MODEL 1
REMARK VINA RESULT:      -8.0      0.000      0.000
REMARK  6 active torsions:
REMARK  status: ('A' for Active; 'I' for Inactive)
REMARK    1  A    between atoms: C_2  and  C_3 
REMARK    2  A    between atoms: C_7  and  C_8 
REMARK       I    between atoms: C_8  and  N_9 
REMARK    3  A    between atoms: N_9  and  C_10 
REMARK    4  A    between atoms: C_10  and  C_11 
REMARK    5  A    between atoms: C_11  and  N_12 
REMARK       I    between atoms: N_12  and  C_13 
REMARK    6  A    between atoms: C_13  and  C_14 
ROOT
HETATM    1  C   UNL     1     -42.854  57.765 -52.253  1.00  0.00     0.142 C 
ENDROOT
BRANCH   1   2
HETATM    2  N   UNL     1     -43.092  57.133 -53.530  1.00  0.00    -0.354 N 
HETATM    3  C   UNL     1     -42.483  57.550 -54.693  1.00  0.00     0.272 C 
HETATM    4  O   UNL     1     -41.739  58.525 -54.754  1.00  0.00    -0.266 OA
HETATM    5  H   UNL     1     -43.632  56.273 -53.599  1.00  0.00     0.162 HD
BRANCH   3   6
HETATM    6  C   UNL     1     -42.791  56.698 -55.851  1.00  0.00     0.146 A 
HETATM    7  N   UNL     1     -43.148  55.403 -55.714  1.00  0.00    -0.169 NA
HETATM    8  N   UNL     1     -43.331  54.979 -56.975  1.00  0.00    -0.281 N 
HETATM    9  C   UNL     1     -43.103  55.937 -57.924  1.00  0.00     0.033 A 
HETATM   10  H   UNL     1     -43.612  54.014 -57.119  1.00  0.00     0.189 HD
HETATM   11  C   UNL     1     -42.754  57.070 -57.218  1.00  0.00     0.066 A 
BRANCH   9  12
HETATM   12  C   UNL     1     -43.249  55.665 -59.389  1.00  0.00     0.029 C 
HETATM   13  C   UNL     1     -43.513  56.956 -60.165  1.00  0.00     0.016 C 
HETATM   14  C   UNL     1     -44.359  54.645 -59.644  1.00  0.00     0.016 C 
ENDBRANCH   9  12
ENDBRANCH   3   6
ENDBRANCH   1   2
BRANCH   1  15
HETATM   15  C   UNL     1     -41.721  57.089 -51.471  1.00  0.00     0.142 C 
BRANCH  15  16
HETATM   16  N   UNL     1     -41.260  55.860 -52.094  1.00  0.00    -0.355 N 
HETATM   17  C   UNL     1     -41.170  54.685 -51.381  1.00  0.00     0.251 C 
HETATM   18  O   UNL     1     -41.455  54.597 -50.193  1.00  0.00    -0.268 OA
HETATM   19  H   UNL     1     -40.830  55.941 -53.005  1.00  0.00     0.162 HD
BRANCH  17  20
HETATM   20  C   UNL     1     -40.668  53.491 -52.118  1.00  0.00     0.033 A 
HETATM   21  C   UNL     1     -40.214  52.395 -51.372  1.00  0.00     0.042 A 
HETATM   22  C   UNL     1     -39.746  51.246 -52.017  1.00  0.00     0.056 A 
HETATM   23 CL   UNL     1     -39.196  49.937 -51.032  1.00  0.00    -0.083 Cl
HETATM   24  C   UNL     1     -39.736  51.185 -53.415  1.00  0.00     0.055 A 
HETATM   25 CL   UNL     1     -39.174  49.800 -54.281  1.00  0.00    -0.083 Cl
HETATM   26  C   UNL     1     -40.202  52.272 -54.161  1.00  0.00     0.026 A 
HETATM   27  C   UNL     1     -40.671  53.421 -53.517  1.00  0.00     0.019 A 
ENDBRANCH  17  20
ENDBRANCH  15  16
ENDBRANCH   1  15
TORSDOF 6
ENDMDL
MODEL 2
REMARK VINA RESULT:      -7.5      1.301      1.537
REMARK  6 active torsions:
REMARK  status: ('A' for Active; 'I' for Inactive)
REMARK    1  A    between atoms: C_2  and  C_3 
REMARK    2  A    between atoms: C_7  and  C_8 
REMARK       I    between atoms: C_8  and  N_9 
REMARK    3  A    between atoms: N_9  and  C_10 
REMARK    4  A    between atoms: C_10  and  C_11 
REMARK    5  A    between atoms: C_11  and  N_12 
REMARK       I    between atoms: N_12  and  C_13 
REMARK    6  A    between atoms: C_13  and  C_14 
ROOT
HETATM    1  C   UNL     1     -44.388  57.419 -52.148  1.00  0.00     0.142 C 
ENDROOT
BRANCH   1   2
HETATM    2  N   UNL     1     -44.253  56.946 -53.507  1.00  0.00    -0.354 N 
HETATM    3  C   UNL     1     -43.923  57.777 -54.555  1.00  0.00     0.272 C 
HETATM    4  O   UNL     1     -43.777  58.990 -54.435  1.00  0.00    -0.266 OA
HETATM    5  H   UNL     1     -44.280  55.953 -53.723  1.00  0.00     0.162 HD
BRANCH   3   6
HETATM    6  C   UNL     1     -43.738  57.064 -55.828  1.00  0.00     0.146 A 
HETATM    7  N   UNL     1     -43.303  55.787 -55.878  1.00  0.00    -0.169 NA
HETATM    8  N   UNL     1     -43.257  55.508 -57.191  1.00  0.00    -0.281 N 
HETATM    9  C   UNL     1     -43.636  56.548 -57.995  1.00  0.00     0.033 A 
HETATM   10  H   UNL     1     -42.954  54.582 -57.473  1.00  0.00     0.189 HD
HETATM   11  C   UNL     1     -43.959  57.574 -57.131  1.00  0.00     0.066 A 
BRANCH   9  12
HETATM   12  C   UNL     1     -43.651  56.443 -59.488  1.00  0.00     0.029 C 
HETATM   13  C   UNL     1     -44.158  55.071 -59.938  1.00  0.00     0.016 C 
HETATM   14  C   UNL     1     -42.264  56.722 -60.067  1.00  0.00     0.016 C 
ENDBRANCH   9  12
ENDBRANCH   3   6
ENDBRANCH   1   2
BRANCH   1  15
HETATM   15  C   UNL     1     -43.197  57.015 -51.269  1.00  0.00     0.142 C 
BRANCH  15  16
HETATM   16  N   UNL     1     -42.573  55.776 -51.701  1.00  0.00    -0.355 N 
HETATM   17  C   UNL     1     -41.475  55.779 -52.533  1.00  0.00     0.251 C 
HETATM   18  O   UNL     1     -40.965  56.804 -52.968  1.00  0.00    -0.268 OA
HETATM   19  H   UNL     1     -43.083  54.921 -51.530  1.00  0.00     0.162 HD
BRANCH  17  20
HETATM   20  C   UNL     1     -40.928  54.449 -52.926  1.00  0.00     0.033 A 
HETATM   21  C   UNL     1     -40.674  53.513 -51.914  1.00  0.00     0.042 A 
HETATM   22  C   UNL     1     -40.174  52.247 -52.233  1.00  0.00     0.056 A 
HETATM   23 CL   UNL     1     -39.878  51.148 -50.933  1.00  0.00    -0.083 Cl
HETATM   24  C   UNL     1     -39.932  51.907 -53.569  1.00  0.00     0.055 A 
HETATM   25 CL   UNL     1     -39.316  50.364 -54.038  1.00  0.00    -0.083 Cl
HETATM   26  C   UNL     1     -40.199  52.835 -54.580  1.00  0.00     0.026 A 
HETATM   27  C   UNL     1     -40.700  54.101 -54.263  1.00  0.00     0.019 A 
ENDBRANCH  17  20
ENDBRANCH  15  16
ENDBRANCH   1  15
TORSDOF 6
ENDMDL
MODEL 3
REMARK VINA RESULT:      -7.4      2.961      4.349
REMARK  6 active torsions:
REMARK  status: ('A' for Active; 'I' for Inactive)
REMARK    1  A    between atoms: C_2  and  C_3 
REMARK    2  A    between atoms: C_7  and  C_8 
REMARK       I    between atoms: C_8  and  N_9 
REMARK    3  A    between atoms: N_9  and  C_10 
REMARK    4  A    between atoms: C_10  and  C_11 
REMARK    5  A    between atoms: C_11  and  N_12 
REMARK       I    between atoms: N_12  and  C_13 
REMARK    6  A    between atoms: C_13  and  C_14 
ROOT
HETATM    1  C   UNL     1     -42.797  55.395 -57.239  1.00  0.00     0.142 C 
ENDROOT
BRANCH   1   2
HETATM    2  N   UNL     1     -43.878  55.958 -58.016  1.00  0.00    -0.354 N 
HETATM    3  C   UNL     1     -43.834  56.060 -59.389  1.00  0.00     0.272 C 
HETATM    4  O   UNL     1     -42.857  55.740 -60.059  1.00  0.00    -0.266 OA
HETATM    5  H   UNL     1     -44.769  56.193 -57.584  1.00  0.00     0.162 HD
BRANCH   3   6
HETATM    6  C   UNL     1     -45.084  56.565 -59.976  1.00  0.00     0.146 A 
HETATM    7  N   UNL     1     -45.826  55.827 -60.829  1.00  0.00    -0.169 NA
HETATM    8  N   UNL     1     -46.858  56.627 -61.141  1.00  0.00    -0.281 N 
HETATM    9  C   UNL     1     -46.816  57.853 -60.535  1.00  0.00     0.033 A 
HETATM   10  H   UNL     1     -47.562  56.272 -61.781  1.00  0.00     0.189 HD
HETATM   11  C   UNL     1     -45.672  57.838 -59.767  1.00  0.00     0.066 A 
BRANCH   9  12
HETATM   12  C   UNL     1     -47.871  58.891 -60.756  1.00  0.00     0.029 C 
HETATM   13  C   UNL     1     -47.806  59.450 -62.179  1.00  0.00     0.016 C 
HETATM   14  C   UNL     1     -47.749  60.017 -59.728  1.00  0.00     0.016 C 
ENDBRANCH   9  12
ENDBRANCH   3   6
ENDBRANCH   1   2
BRANCH   1  15
HETATM   15  C   UNL     1     -42.972  55.640 -55.735  1.00  0.00     0.142 C 
BRANCH  15  16
HETATM   16  N   UNL     1     -42.406  54.578 -54.921  1.00  0.00    -0.355 N 
HETATM   17  C   UNL     1     -41.153  54.697 -54.360  1.00  0.00     0.251 C 
HETATM   18  O   UNL     1     -40.439  55.680 -54.513  1.00  0.00    -0.268 OA
HETATM   19  H   UNL     1     -42.875  53.684 -54.943  1.00  0.00     0.162 HD
BRANCH  17  20
HETATM   20  C   UNL     1     -40.666  53.538 -53.559  1.00  0.00     0.033 A 
HETATM   21  C   UNL     1     -40.341  52.355 -54.237  1.00  0.00     0.042 A 
HETATM   22  C   UNL     1     -39.866  51.245 -53.533  1.00  0.00     0.056 A 
HETATM   23 CL   UNL     1     -39.491  49.819 -54.434  1.00  0.00    -0.083 Cl
HETATM   24  C   UNL     1     -39.708  51.314 -52.144  1.00  0.00     0.055 A 
HETATM   25 CL   UNL     1     -39.127  49.984 -51.207  1.00  0.00    -0.083 Cl
HETATM   26  C   UNL     1     -40.019  52.498 -51.467  1.00  0.00     0.026 A 
HETATM   27  C   UNL     1     -40.492  53.609 -52.171  1.00  0.00     0.019 A 
ENDBRANCH  17  20
ENDBRANCH  15  16
ENDBRANCH   1  15
TORSDOF 6
ENDMDL
MODEL 4
REMARK VINA RESULT:      -7.3      2.251      3.174
REMARK  6 active torsions:
REMARK  status: ('A' for Active; 'I' for Inactive)
REMARK    1  A    between atoms: C_2  and  C_3 
REMARK    2  A    between atoms: C_7  and  C_8 
REMARK       I    between atoms: C_8  and  N_9 
REMARK    3  A    between atoms: N_9  and  C_10 
REMARK    4  A    between atoms: C_10  and  C_11 
REMARK    5  A    between atoms: C_11  and  N_12 
REMARK       I    between atoms: N_12  and  C_13 
REMARK    6  A    between atoms: C_13  and  C_14 
ROOT
HETATM    1  C   UNL     1     -43.810  56.497 -54.535  1.00  0.00     0.142 C 
ENDROOT
BRANCH   1   2
HETATM    2  N   UNL     1     -43.472  57.067 -55.818  1.00  0.00    -0.354 N 
HETATM    3  C   UNL     1     -43.030  56.307 -56.879  1.00  0.00     0.272 C 
HETATM    4  O   UNL     1     -42.830  55.098 -56.806  1.00  0.00    -0.266 OA
HETATM    5  H   UNL     1     -43.662  58.045 -56.026  1.00  0.00     0.162 HD
BRANCH   3   6
HETATM    6  C   UNL     1     -42.847  57.081 -58.116  1.00  0.00     0.146 A 
HETATM    7  N   UNL     1     -43.134  56.570 -59.332  1.00  0.00    -0.169 NA
HETATM    8  N   UNL     1     -42.829  57.562 -60.184  1.00  0.00    -0.281 N 
HETATM    9  C   UNL     1     -42.351  58.691 -59.577  1.00  0.00     0.033 A 
HETATM   10  H   UNL     1     -42.970  57.400 -61.176  1.00  0.00     0.189 HD
HETATM   11  C   UNL     1     -42.356  58.406 -58.227  1.00  0.00     0.066 A 
BRANCH   9  12
HETATM   12  C   UNL     1     -41.949  59.907 -60.351  1.00  0.00     0.029 C 
HETATM   13  C   UNL     1     -41.821  61.125 -59.434  1.00  0.00     0.016 C 
HETATM   14  C   UNL     1     -42.941  60.184 -61.481  1.00  0.00     0.016 C 
ENDBRANCH   9  12
ENDBRANCH   3   6
ENDBRANCH   1   2
BRANCH   1  15
HETATM   15  C   UNL     1     -42.712  56.725 -53.488  1.00  0.00     0.142 C 
BRANCH  15  16
HETATM   16  N   UNL     1     -42.178  55.485 -52.952  1.00  0.00    -0.355 N 
HETATM   17  C   UNL     1     -41.043  54.907 -53.477  1.00  0.00     0.251 C 
HETATM   18  O   UNL     1     -40.423  55.382 -54.421  1.00  0.00    -0.268 OA
HETATM   19  H   UNL     1     -42.770  54.967 -52.318  1.00  0.00     0.162 HD
BRANCH  17  20
HETATM   20  C   UNL     1     -40.597  53.626 -52.860  1.00  0.00     0.033 A 
HETATM   21  C   UNL     1     -40.240  52.570 -53.710  1.00  0.00     0.042 A 
HETATM   22  C   UNL     1     -39.802  51.354 -53.180  1.00  0.00     0.056 A 
HETATM   23 CL   UNL     1     -39.385  50.095 -54.289  1.00  0.00    -0.083 Cl
HETATM   24  C   UNL     1     -39.712  51.188 -51.793  1.00  0.00     0.055 A 
HETATM   25 CL   UNL     1     -39.178  49.715 -51.066  1.00  0.00    -0.083 Cl
HETATM   26  C   UNL     1     -40.054  52.244 -50.944  1.00  0.00     0.026 A 
HETATM   27  C   UNL     1     -40.491  53.462 -51.473  1.00  0.00     0.019 A 
ENDBRANCH  17  20
ENDBRANCH  15  16
ENDBRANCH   1  15
TORSDOF 6
ENDMDL
MODEL 5
REMARK VINA RESULT:      -7.3      2.156      3.046
REMARK  6 active torsions:
REMARK  status: ('A' for Active; 'I' for Inactive)
REMARK    1  A    between atoms: C_2  and  C_3 
REMARK    2  A    between atoms: C_7  and  C_8 
REMARK       I    between atoms: C_8  and  N_9 
REMARK    3  A    between atoms: N_9  and  C_10 
REMARK    4  A    between atoms: C_10  and  C_11 
REMARK    5  A    between atoms: C_11  and  N_12 
REMARK       I    between atoms: N_12  and  C_13 
REMARK    6  A    between atoms: C_13  and  C_14 
ROOT
HETATM    1  C   UNL     1     -41.150  59.757 -50.925  1.00  0.00     0.142 C 
ENDROOT
BRANCH   1   2
HETATM    2  N   UNL     1     -41.657  59.558 -52.263  1.00  0.00    -0.354 N 
HETATM    3  C   UNL     1     -40.861  59.148 -53.309  1.00  0.00     0.272 C 
HETATM    4  O   UNL     1     -39.649  58.976 -53.209  1.00  0.00    -0.266 OA
HETATM    5  H   UNL     1     -42.655  59.600 -52.458  1.00  0.00     0.162 HD
BRANCH   3   6
HETATM    6  C   UNL     1     -41.608  58.910 -54.553  1.00  0.00     0.146 A 
HETATM    7  N   UNL     1     -41.671  59.830 -55.540  1.00  0.00    -0.169 NA
HETATM    8  N   UNL     1     -42.438  59.252 -56.478  1.00  0.00    -0.281 N 
HETATM    9  C   UNL     1     -42.881  58.001 -56.143  1.00  0.00     0.033 A 
HETATM   10  H   UNL     1     -42.624  59.770 -57.330  1.00  0.00     0.189 HD
HETATM   11  C   UNL     1     -42.351  57.752 -54.894  1.00  0.00     0.066 A 
BRANCH   9  12
HETATM   12  C   UNL     1     -43.751  57.190 -57.051  1.00  0.00     0.029 C 
HETATM   13  C   UNL     1     -43.023  55.935 -57.536  1.00  0.00     0.016 C 
HETATM   14  C   UNL     1     -44.231  58.028 -58.236  1.00  0.00     0.016 C 
ENDBRANCH   9  12
ENDBRANCH   3   6
ENDBRANCH   1   2
BRANCH   1  15
HETATM   15  C   UNL     1     -41.342  58.520 -50.039  1.00  0.00     0.142 C 
BRANCH  15  16
HETATM   16  N   UNL     1     -40.913  57.292 -50.686  1.00  0.00    -0.355 N 
HETATM   17  C   UNL     1     -41.793  56.258 -50.915  1.00  0.00     0.251 C 
HETATM   18  O   UNL     1     -42.973  56.294 -50.587  1.00  0.00    -0.268 OA
HETATM   19  H   UNL     1     -39.917  57.148 -50.783  1.00  0.00     0.162 HD
BRANCH  17  20
HETATM   20  C   UNL     1     -41.238  55.038 -51.568  1.00  0.00     0.033 A 
HETATM   21  C   UNL     1     -41.075  55.049 -52.960  1.00  0.00     0.042 A 
HETATM   22  C   UNL     1     -40.545  53.935 -53.618  1.00  0.00     0.056 A 
HETATM   23 CL   UNL     1     -40.379  54.018 -55.336  1.00  0.00    -0.083 Cl
HETATM   24  C   UNL     1     -40.170  52.804 -52.885  1.00  0.00     0.055 A 
HETATM   25 CL   UNL     1     -39.509  51.391 -53.628  1.00  0.00    -0.083 Cl
HETATM   26  C   UNL     1     -40.319  52.796 -51.495  1.00  0.00     0.026 A 
HETATM   27  C   UNL     1     -40.847  53.910 -50.835  1.00  0.00     0.019 A 
ENDBRANCH  17  20
ENDBRANCH  15  16
ENDBRANCH   1  15
TORSDOF 6
ENDMDL
MODEL 6
REMARK VINA RESULT:      -7.2      3.387      4.544
REMARK  6 active torsions:
REMARK  status: ('A' for Active; 'I' for Inactive)
REMARK    1  A    between atoms: C_2  and  C_3 
REMARK    2  A    between atoms: C_7  and  C_8 
REMARK       I    between atoms: C_8  and  N_9 
REMARK    3  A    between atoms: N_9  and  C_10 
REMARK    4  A    between atoms: C_10  and  C_11 
REMARK    5  A    between atoms: C_11  and  N_12 
REMARK       I    between atoms: N_12  and  C_13 
REMARK    6  A    between atoms: C_13  and  C_14 
ROOT
HETATM    1  C   UNL     1     -42.863  55.642 -57.240  1.00  0.00     0.142 C 
ENDROOT
BRANCH   1   2
HETATM    2  N   UNL     1     -42.505  56.864 -57.924  1.00  0.00    -0.354 N 
HETATM    3  C   UNL     1     -42.466  56.965 -59.297  1.00  0.00     0.272 C 
HETATM    4  O   UNL     1     -42.670  56.018 -60.050  1.00  0.00    -0.266 OA
HETATM    5  H   UNL     1     -42.383  57.735 -57.413  1.00  0.00     0.162 HD
BRANCH   3   6
HETATM    6  C   UNL     1     -42.180  58.327 -59.773  1.00  0.00     0.146 A 
HETATM    7  N   UNL     1     -42.068  58.619 -61.087  1.00  0.00    -0.169 NA
HETATM    8  N   UNL     1     -41.800  59.934 -61.108  1.00  0.00    -0.281 N 
HETATM    9  C   UNL     1     -41.726  60.508 -59.868  1.00  0.00     0.033 A 
HETATM   10  H   UNL     1     -41.675  60.383 -62.009  1.00  0.00     0.189 HD
HETATM   11  C   UNL     1     -41.974  59.483 -58.979  1.00  0.00     0.066 A 
BRANCH   9  12
HETATM   12  C   UNL     1     -41.433  61.963 -59.674  1.00  0.00     0.029 C 
HETATM   13  C   UNL     1     -40.801  62.569 -60.928  1.00  0.00     0.016 C 
HETATM   14  C   UNL     1     -40.534  62.179 -58.457  1.00  0.00     0.016 C 
ENDBRANCH   9  12
ENDBRANCH   3   6
ENDBRANCH   1   2
BRANCH   1  15
HETATM   15  C   UNL     1     -43.019  55.845 -55.728  1.00  0.00     0.142 C 
BRANCH  15  16
HETATM   16  N   UNL     1     -42.446  54.759 -54.951  1.00  0.00    -0.355 N 
HETATM   17  C   UNL     1     -41.178  54.849 -54.421  1.00  0.00     0.251 C 
HETATM   18  O   UNL     1     -40.453  55.825 -54.574  1.00  0.00    -0.268 OA
HETATM   19  H   UNL     1     -42.928  53.872 -54.978  1.00  0.00     0.162 HD
BRANCH  17  20
HETATM   20  C   UNL     1     -40.685  53.667 -53.658  1.00  0.00     0.033 A 
HETATM   21  C   UNL     1     -40.719  53.723 -52.258  1.00  0.00     0.042 A 
HETATM   22  C   UNL     1     -40.282  52.635 -51.497  1.00  0.00     0.056 A 
HETATM   23 CL   UNL     1     -40.347  52.778 -49.776  1.00  0.00    -0.083 Cl
HETATM   24  C   UNL     1     -39.813  51.480 -52.134  1.00  0.00     0.055 A 
HETATM   25 CL   UNL     1     -39.258  50.098 -51.260  1.00  0.00    -0.083 Cl
HETATM   26  C   UNL     1     -39.792  51.418 -53.530  1.00  0.00     0.026 A 
HETATM   27  C   UNL     1     -40.230  52.505 -54.293  1.00  0.00     0.019 A 
ENDBRANCH  17  20
ENDBRANCH  15  16
ENDBRANCH   1  15
TORSDOF 6
ENDMDL
MODEL 7
REMARK VINA RESULT:      -7.1      3.335      6.346
REMARK  6 active torsions:
REMARK  status: ('A' for Active; 'I' for Inactive)
REMARK    1  A    between atoms: C_2  and  C_3 
REMARK    2  A    between atoms: C_7  and  C_8 
REMARK       I    between atoms: C_8  and  N_9 
REMARK    3  A    between atoms: N_9  and  C_10 
REMARK    4  A    between atoms: C_10  and  C_11 
REMARK    5  A    between atoms: C_11  and  N_12 
REMARK       I    between atoms: N_12  and  C_13 
REMARK    6  A    between atoms: C_13  and  C_14 
ROOT
HETATM    1  C   UNL     1     -43.778  57.149 -53.735  1.00  0.00     0.142 C 
ENDROOT
BRANCH   1   2
HETATM    2  N   UNL     1     -44.171  58.187 -52.810  1.00  0.00    -0.354 N 
HETATM    3  C   UNL     1     -44.505  57.930 -51.499  1.00  0.00     0.272 C 
HETATM    4  O   UNL     1     -44.556  56.799 -51.024  1.00  0.00    -0.266 OA
HETATM    5  H   UNL     1     -44.101  59.170 -53.063  1.00  0.00     0.162 HD
BRANCH   3   6
HETATM    6  C   UNL     1     -44.770  59.146 -50.715  1.00  0.00     0.146 A 
HETATM    7  N   UNL     1     -45.834  59.251 -49.891  1.00  0.00    -0.169 NA
HETATM    8  N   UNL     1     -45.731  60.488 -49.379  1.00  0.00    -0.281 N 
HETATM    9  C   UNL     1     -44.651  61.193 -49.838  1.00  0.00     0.033 A 
HETATM   10  H   UNL     1     -46.437  60.793 -48.717  1.00  0.00     0.189 HD
HETATM   11  C   UNL     1     -44.006  60.339 -50.708  1.00  0.00     0.066 A 
BRANCH   9  12
HETATM   12  C   UNL     1     -44.360  62.591 -49.393  1.00  0.00     0.029 C 
HETATM   13  C   UNL     1     -44.800  62.811 -47.944  1.00  0.00     0.016 C 
HETATM   14  C   UNL     1     -45.027  63.608 -50.319  1.00  0.00     0.016 C 
ENDBRANCH   9  12
ENDBRANCH   3   6
ENDBRANCH   1   2
BRANCH   1  15
HETATM   15  C   UNL     1     -42.256  56.980 -53.810  1.00  0.00     0.142 C 
BRANCH  15  16
HETATM   16  N   UNL     1     -41.794  55.744 -53.201  1.00  0.00    -0.355 N 
HETATM   17  C   UNL     1     -40.900  54.919 -53.846  1.00  0.00     0.251 C 
HETATM   18  O   UNL     1     -40.448  55.157 -54.959  1.00  0.00    -0.268 OA
HETATM   19  H   UNL     1     -42.295  55.420 -52.386  1.00  0.00     0.162 HD
BRANCH  17  20
HETATM   20  C   UNL     1     -40.511  53.668 -53.135  1.00  0.00     0.033 A 
HETATM   21  C   UNL     1     -40.183  52.543 -53.905  1.00  0.00     0.042 A 
HETATM   22  C   UNL     1     -39.798  51.351 -53.286  1.00  0.00     0.056 A 
HETATM   23 CL   UNL     1     -39.415  50.004 -54.299  1.00  0.00    -0.083 Cl
HETATM   24  C   UNL     1     -39.733  51.278 -51.890  1.00  0.00     0.055 A 
HETATM   25 CL   UNL     1     -39.266  49.840 -51.054  1.00  0.00    -0.083 Cl
HETATM   26  C   UNL     1     -40.046  52.403 -51.120  1.00  0.00     0.026 A 
HETATM   27  C   UNL     1     -40.430  53.597 -51.739  1.00  0.00     0.019 A 
ENDBRANCH  17  20
ENDBRANCH  15  16
ENDBRANCH   1  15
TORSDOF 6
ENDMDL
MODEL 8
REMARK VINA RESULT:      -7.1      3.929      7.993
REMARK  6 active torsions:
REMARK  status: ('A' for Active; 'I' for Inactive)
REMARK    1  A    between atoms: C_2  and  C_3 
REMARK    2  A    between atoms: C_7  and  C_8 
REMARK       I    between atoms: C_8  and  N_9 
REMARK    3  A    between atoms: N_9  and  C_10 
REMARK    4  A    between atoms: C_10  and  C_11 
REMARK    5  A    between atoms: C_11  and  N_12 
REMARK       I    between atoms: N_12  and  C_13 
REMARK    6  A    between atoms: C_13  and  C_14 
ROOT
HETATM    1  C   UNL     1     -43.194  56.607 -53.531  1.00  0.00     0.142 C 
ENDROOT
BRANCH   1   2
HETATM    2  N   UNL     1     -42.387  55.426 -53.328  1.00  0.00    -0.354 N 
HETATM    3  C   UNL     1     -41.385  55.361 -52.385  1.00  0.00     0.272 C 
HETATM    4  O   UNL     1     -41.055  56.313 -51.684  1.00  0.00    -0.266 OA
HETATM    5  H   UNL     1     -42.610  54.551 -53.798  1.00  0.00     0.162 HD
BRANCH   3   6
HETATM    6  C   UNL     1     -40.767  54.030 -52.282  1.00  0.00     0.146 A 
HETATM    7  N   UNL     1     -40.238  53.573 -51.128  1.00  0.00    -0.169 NA
HETATM    8  N   UNL     1     -39.775  52.352 -51.441  1.00  0.00    -0.281 N 
HETATM    9  C   UNL     1     -39.974  51.999 -52.748  1.00  0.00     0.033 A 
HETATM   10  H   UNL     1     -39.328  51.807 -50.711  1.00  0.00     0.189 HD
HETATM   11  C   UNL     1     -40.623  53.074 -53.318  1.00  0.00     0.066 A 
BRANCH   9  12
HETATM   12  C   UNL     1     -39.528  50.681 -53.299  1.00  0.00     0.029 C 
HETATM   13  C   UNL     1     -40.384  50.267 -54.498  1.00  0.00     0.016 C 
HETATM   14  C   UNL     1     -39.558  49.602 -52.217  1.00  0.00     0.016 C 
ENDBRANCH   9  12
ENDBRANCH   3   6
ENDBRANCH   1   2
BRANCH   1  15
HETATM   15  C   UNL     1     -42.803  57.369 -54.803  1.00  0.00     0.142 C 
BRANCH  15  16
HETATM   16  N   UNL     1     -43.767  57.207 -55.877  1.00  0.00    -0.355 N 
HETATM   17  C   UNL     1     -43.398  57.337 -57.197  1.00  0.00     0.251 C 
HETATM   18  O   UNL     1     -42.256  57.604 -57.552  1.00  0.00    -0.268 OA
HETATM   19  H   UNL     1     -44.744  57.189 -55.618  1.00  0.00     0.162 HD
BRANCH  17  20
HETATM   20  C   UNL     1     -44.475  57.168 -58.214  1.00  0.00     0.033 A 
HETATM   21  C   UNL     1     -44.287  56.215 -59.225  1.00  0.00     0.042 A 
HETATM   22  C   UNL     1     -45.274  56.009 -60.193  1.00  0.00     0.056 A 
HETATM   23 CL   UNL     1     -44.971  54.822 -61.412  1.00  0.00    -0.083 Cl
HETATM   24  C   UNL     1     -46.459  56.753 -60.152  1.00  0.00     0.055 A 
HETATM   25 CL   UNL     1     -47.722  56.553 -61.314  1.00  0.00    -0.083 Cl
HETATM   26  C   UNL     1     -46.653  57.694 -59.137  1.00  0.00     0.026 A 
HETATM   27  C   UNL     1     -45.668  57.900 -58.167  1.00  0.00     0.019 A 
ENDBRANCH  17  20
ENDBRANCH  15  16
ENDBRANCH   1  15
TORSDOF 6
ENDMDL
MODEL 9
REMARK VINA RESULT:      -7.0      3.355      6.982
REMARK  6 active torsions:
REMARK  status: ('A' for Active; 'I' for Inactive)
REMARK    1  A    between atoms: C_2  and  C_3 
REMARK    2  A    between atoms: C_7  and  C_8 
REMARK       I    between atoms: C_8  and  N_9 
REMARK    3  A    between atoms: N_9  and  C_10 
REMARK    4  A    between atoms: C_10  and  C_11 
REMARK    5  A    between atoms: C_11  and  N_12 
REMARK       I    between atoms: N_12  and  C_13 
REMARK    6  A    between atoms: C_13  and  C_14 
ROOT
HETATM    1  C   UNL     1     -41.439  57.298 -50.685  1.00  0.00     0.142 C 
ENDROOT
BRANCH   1   2
HETATM    2  N   UNL     1     -40.985  55.963 -51.001  1.00  0.00    -0.354 N 
HETATM    3  C   UNL     1     -40.975  54.941 -50.077  1.00  0.00     0.272 C 
HETATM    4  O   UNL     1     -41.292  55.091 -48.901  1.00  0.00    -0.266 OA
HETATM    5  H   UNL     1     -40.765  55.696 -51.957  1.00  0.00     0.162 HD
BRANCH   3   6
HETATM    6  C   UNL     1     -40.573  53.645 -50.645  1.00  0.00     0.146 A 
HETATM    7  N   UNL     1     -40.421  52.543 -49.881  1.00  0.00    -0.169 NA
HETATM    8  N   UNL     1     -40.046  51.591 -50.751  1.00  0.00    -0.281 N 
HETATM    9  C   UNL     1     -39.943  52.027 -52.044  1.00  0.00     0.033 A 
HETATM   10  H   UNL     1     -39.874  50.657 -50.393  1.00  0.00     0.189 HD
HETATM   11  C   UNL     1     -40.285  53.363 -52.004  1.00  0.00     0.066 A 
BRANCH   9  12
HETATM   12  C   UNL     1     -39.535  51.122 -53.164  1.00  0.00     0.029 C 
HETATM   13  C   UNL     1     -40.386  51.371 -54.410  1.00  0.00     0.016 C 
HETATM   14  C   UNL     1     -39.618  49.657 -52.736  1.00  0.00     0.016 C 
ENDBRANCH   9  12
ENDBRANCH   3   6
ENDBRANCH   1   2
BRANCH   1  15
HETATM   15  C   UNL     1     -42.782  57.628 -51.346  1.00  0.00     0.142 C 
BRANCH  15  16
HETATM   16  N   UNL     1     -42.652  57.955 -52.756  1.00  0.00    -0.355 N 
HETATM   17  C   UNL     1     -42.829  56.999 -53.731  1.00  0.00     0.251 C 
HETATM   18  O   UNL     1     -43.091  55.828 -53.485  1.00  0.00    -0.268 OA
HETATM   19  H   UNL     1     -42.242  58.849 -52.983  1.00  0.00     0.162 HD
BRANCH  17  20
HETATM   20  C   UNL     1     -42.653  57.443 -55.144  1.00  0.00     0.033 A 
HETATM   21  C   UNL     1     -42.909  56.518 -56.165  1.00  0.00     0.042 A 
HETATM   22  C   UNL     1     -42.772  56.890 -57.505  1.00  0.00     0.056 A 
HETATM   23 CL   UNL     1     -43.098  55.695 -58.711  1.00  0.00    -0.083 Cl
HETATM   24  C   UNL     1     -42.383  58.194 -57.832  1.00  0.00     0.055 A 
HETATM   25 CL   UNL     1     -42.193  58.727 -59.465  1.00  0.00    -0.083 Cl
HETATM   26  C   UNL     1     -42.140  59.122 -56.815  1.00  0.00     0.026 A 
HETATM   27  C   UNL     1     -42.279  58.752 -55.474  1.00  0.00     0.019 A 
ENDBRANCH  17  20
ENDBRANCH  15  16
ENDBRANCH   1  15
TORSDOF 6
ENDMDL
MODEL 10
REMARK VINA RESULT:      -7.0      2.743      3.484
REMARK  6 active torsions:
REMARK  status: ('A' for Active; 'I' for Inactive)
REMARK    1  A    between atoms: C_2  and  C_3 
REMARK    2  A    between atoms: C_7  and  C_8 
REMARK       I    between atoms: C_8  and  N_9 
REMARK    3  A    between atoms: N_9  and  C_10 
REMARK    4  A    between atoms: C_10  and  C_11 
REMARK    5  A    between atoms: C_11  and  N_12 
REMARK       I    between atoms: N_12  and  C_13 
REMARK    6  A    between atoms: C_13  and  C_14 
ROOT
HETATM    1  C   UNL     1     -40.612  58.237 -50.807  1.00  0.00     0.142 C 
ENDROOT
BRANCH   1   2
HETATM    2  N   UNL     1     -41.041  58.808 -52.062  1.00  0.00    -0.354 N 
HETATM    3  C   UNL     1     -42.054  59.738 -52.151  1.00  0.00     0.272 C 
HETATM    4  O   UNL     1     -42.714  60.111 -51.186  1.00  0.00    -0.266 OA
HETATM    5  H   UNL     1     -40.527  58.633 -52.923  1.00  0.00     0.162 HD
BRANCH   3   6
HETATM    6  C   UNL     1     -42.250  60.259 -53.512  1.00  0.00     0.146 A 
HETATM    7  N   UNL     1     -42.674  61.520 -53.743  1.00  0.00    -0.169 NA
HETATM    8  N   UNL     1     -42.735  61.604 -55.082  1.00  0.00    -0.281 N 
HETATM    9  C   UNL     1     -42.376  60.453 -55.730  1.00  0.00     0.033 A 
HETATM   10  H   UNL     1     -43.034  62.482 -55.493  1.00  0.00     0.189 HD
HETATM   11  C   UNL     1     -42.051  59.561 -54.729  1.00  0.00     0.066 A 
BRANCH   9  12
HETATM   12  C   UNL     1     -42.380  60.340 -57.222  1.00  0.00     0.029 C 
HETATM   13  C   UNL     1     -41.991  58.929 -57.668  1.00  0.00     0.016 C 
HETATM   14  C   UNL     1     -41.452  61.380 -57.849  1.00  0.00     0.016 C 
ENDBRANCH   9  12
ENDBRANCH   3   6
ENDBRANCH   1   2
BRANCH   1  15
HETATM   15  C   UNL     1     -41.399  56.972 -50.443  1.00  0.00     0.142 C 
BRANCH  15  16
HETATM   16  N   UNL     1     -41.021  55.822 -51.246  1.00  0.00    -0.355 N 
HETATM   17  C   UNL     1     -40.994  54.553 -50.711  1.00  0.00     0.251 C 
HETATM   18  O   UNL     1     -41.269  54.310 -49.542  1.00  0.00    -0.268 OA
HETATM   19  H   UNL     1     -40.597  56.008 -52.144  1.00  0.00     0.162 HD
BRANCH  17  20
HETATM   20  C   UNL     1     -40.573  53.451 -51.622  1.00  0.00     0.033 A 
HETATM   21  C   UNL     1     -40.119  52.255 -51.049  1.00  0.00     0.042 A 
HETATM   22  C   UNL     1     -39.726  51.187 -51.862  1.00  0.00     0.056 A 
HETATM   23 CL   UNL     1     -39.171  49.747 -51.085  1.00  0.00    -0.083 Cl
HETATM   24  C   UNL     1     -39.792  51.308 -53.254  1.00  0.00     0.055 A 
HETATM   25 CL   UNL     1     -39.325  50.032 -54.321  1.00  0.00    -0.083 Cl
HETATM   26  C   UNL     1     -40.258  52.495 -53.828  1.00  0.00     0.026 A 
HETATM   27  C   UNL     1     -40.653  53.563 -53.016  1.00  0.00     0.019 A 
ENDBRANCH  17  20
ENDBRANCH  15  16
ENDBRANCH   1  15
TORSDOF 6
ENDMDL
