MODEL 1
REMARK VINA RESULT:      -7.7      0.000      0.000
REMARK  7 active torsions:
REMARK  status: ('A' for Active; 'I' for Inactive)
REMARK    1  A    between atoms: C_5  and  N_6 
REMARK    2  A    between atoms: N_6  and  C_9 
REMARK    3  A    between atoms: C_9  and  C_10 
REMARK    4  A    between atoms: C_10  and  C_11 
REMARK    5  A    between atoms: C_10  and  C_13 
REMARK    6  A    between atoms: C_11  and  O_12 
REMARK    7  A    between atoms: C_13  and  C_14 
ROOT
HETATM    1  N   UNL     1     -43.205  55.579 -57.025  1.00  0.00    -0.066 N 
HETATM    2  H   UNL     1     -44.206  55.415 -56.813  1.00  0.00     0.278 HD
HETATM    3  H   UNL     1     -42.826  54.642 -57.259  1.00  0.00     0.278 HD
ENDROOT
BRANCH   1   4
HETATM    4  C   UNL     1     -43.214  56.490 -58.189  1.00  0.00     0.220 C 
HETATM    5  C   UNL     1     -44.564  57.117 -58.367  1.00  0.00    -0.021 A 
HETATM    6  C   UNL     1     -45.238  56.589 -59.481  1.00  0.00    -0.040 A 
HETATM    7  C   UNL     1     -45.162  58.067 -57.550  1.00  0.00     0.010 A 
HETATM    8  C   UNL     1     -46.512  57.038 -59.828  1.00  0.00    -0.055 A 
HETATM    9  C   UNL     1     -44.408  55.535 -60.162  1.00  0.00     0.018 C 
HETATM   10  C   UNL     1     -47.260  56.509 -61.015  1.00  0.00     0.049 C 
HETATM   11  C   UNL     1     -47.113  57.992 -58.994  1.00  0.00     0.007 A 
HETATM   12  C   UNL     1     -46.447  58.500 -57.868  1.00  0.00     0.001 A 
HETATM   13  C   UNL     1     -43.017  55.777 -59.537  1.00  0.00     0.047 C 
HETATM   14  C   UNL     1     -44.919  54.121 -59.910  1.00  0.00     0.015 C 
ENDBRANCH   1   4
BRANCH   1  15
HETATM   15  C   UNL     1     -42.593  56.047 -55.755  1.00  0.00     0.240 C 
BRANCH  15  16
HETATM   16  C   UNL     1     -42.263  54.859 -54.827  1.00  0.00     0.040 C 
BRANCH  16  17
HETATM   17  C   UNL     1     -43.366  54.685 -53.771  1.00  0.00     0.170 C 
BRANCH  17  18
HETATM   18  O   UNL     1     -44.643  54.838 -54.390  1.00  0.00    -0.400 OA
HETATM   19  H   UNL     1     -45.013  55.682 -54.055  1.00  0.00     0.209 HD
ENDBRANCH  17  18
ENDBRANCH  16  17
BRANCH  16  20
HETATM   20  C   UNL     1     -40.891  54.954 -54.119  1.00  0.00     0.067 C 
BRANCH  20  21
HETATM   21  C   UNL     1     -40.445  53.653 -53.506  1.00  0.00     0.034 A 
HETATM   22  N   UNL     1     -40.271  53.661 -52.154  1.00  0.00    -0.266 NA
HETATM   23  C   UNL     1     -39.868  52.495 -51.591  1.00  0.00     0.117 A 
HETATM   24  C   UNL     1     -39.598  51.340 -52.306  1.00  0.00     0.019 A 
HETATM   25  C   UNL     1     -39.761  51.369 -53.685  1.00  0.00     0.003 A 
HETATM   26  C   UNL     1     -40.192  52.539 -54.300  1.00  0.00     0.027 A 
ENDBRANCH  20  21
ENDBRANCH  16  20
ENDBRANCH  15  16
ENDBRANCH   1  15
TORSDOF 7
ENDMDL
MODEL 2
REMARK VINA RESULT:      -7.7      2.790      7.681
REMARK  7 active torsions:
REMARK  status: ('A' for Active; 'I' for Inactive)
REMARK    1  A    between atoms: C_5  and  N_6 
REMARK    2  A    between atoms: N_6  and  C_9 
REMARK    3  A    between atoms: C_9  and  C_10 
REMARK    4  A    between atoms: C_10  and  C_11 
REMARK    5  A    between atoms: C_10  and  C_13 
REMARK    6  A    between atoms: C_11  and  O_12 
REMARK    7  A    between atoms: C_13  and  C_14 
ROOT
HETATM    1  N   UNL     1     -41.955  56.402 -52.762  1.00  0.00    -0.066 N 
HETATM    2  H   UNL     1     -41.733  56.625 -51.775  1.00  0.00     0.278 HD
HETATM    3  H   UNL     1     -41.041  56.432 -53.252  1.00  0.00     0.278 HD
ENDROOT
BRANCH   1   4
HETATM    4  C   UNL     1     -42.527  55.040 -52.718  1.00  0.00     0.220 C 
HETATM    5  C   UNL     1     -41.547  54.066 -52.137  1.00  0.00    -0.021 A 
HETATM    6  C   UNL     1     -41.023  53.210 -53.120  1.00  0.00    -0.040 A 
HETATM    7  C   UNL     1     -41.122  53.989 -50.817  1.00  0.00     0.010 A 
HETATM    8  C   UNL     1     -40.093  52.224 -52.791  1.00  0.00    -0.055 A 
HETATM    9  C   UNL     1     -41.593  53.533 -54.475  1.00  0.00     0.018 C 
HETATM   10  C   UNL     1     -39.519  51.283 -53.808  1.00  0.00     0.049 C 
HETATM   11  C   UNL     1     -39.662  52.157 -51.458  1.00  0.00     0.007 A 
HETATM   12  C   UNL     1     -40.169  53.030 -50.483  1.00  0.00     0.001 A 
HETATM   13  C   UNL     1     -42.792  54.431 -54.105  1.00  0.00     0.047 C 
HETATM   14  C   UNL     1     -40.596  54.243 -55.384  1.00  0.00     0.015 C 
ENDBRANCH   1   4
BRANCH   1  15
HETATM   15  C   UNL     1     -42.804  57.519 -53.250  1.00  0.00     0.240 C 
BRANCH  15  16
HETATM   16  C   UNL     1     -42.164  58.210 -54.472  1.00  0.00     0.040 C 
BRANCH  16  17
HETATM   17  C   UNL     1     -41.398  59.468 -54.034  1.00  0.00     0.170 C 
BRANCH  17  18
HETATM   18  O   UNL     1     -40.195  59.083 -53.369  1.00  0.00    -0.400 OA
HETATM   19  H   UNL     1     -39.938  59.841 -52.802  1.00  0.00     0.209 HD
ENDBRANCH  17  18
ENDBRANCH  16  17
BRANCH  16  20
HETATM   20  C   UNL     1     -43.158  58.585 -55.597  1.00  0.00     0.067 C 
BRANCH  20  21
HETATM   21  C   UNL     1     -42.916  57.838 -56.880  1.00  0.00     0.034 A 
HETATM   22  N   UNL     1     -42.354  58.559 -57.892  1.00  0.00    -0.266 NA
HETATM   23  C   UNL     1     -42.133  57.896 -59.055  1.00  0.00     0.117 A 
HETATM   24  C   UNL     1     -42.473  56.571 -59.269  1.00  0.00     0.019 A 
HETATM   25  C   UNL     1     -43.067  55.868 -58.228  1.00  0.00     0.003 A 
HETATM   26  C   UNL     1     -43.293  56.506 -57.013  1.00  0.00     0.027 A 
ENDBRANCH  20  21
ENDBRANCH  16  20
ENDBRANCH  15  16
ENDBRANCH   1  15
TORSDOF 7
ENDMDL
MODEL 3
REMARK VINA RESULT:      -7.6      1.570      8.076
REMARK  7 active torsions:
REMARK  status: ('A' for Active; 'I' for Inactive)
REMARK    1  A    between atoms: C_5  and  N_6 
REMARK    2  A    between atoms: N_6  and  C_9 
REMARK    3  A    between atoms: C_9  and  C_10 
REMARK    4  A    between atoms: C_10  and  C_11 
REMARK    5  A    between atoms: C_10  and  C_13 
REMARK    6  A    between atoms: C_11  and  O_12 
REMARK    7  A    between atoms: C_13  and  C_14 
ROOT
HETATM    1  N   UNL     1     -42.730  54.863 -54.936  1.00  0.00    -0.066 N 
HETATM    2  H   UNL     1     -42.788  53.829 -54.937  1.00  0.00     0.278 HD
HETATM    3  H   UNL     1     -43.541  55.174 -54.369  1.00  0.00     0.278 HD
ENDROOT
BRANCH   1   4
HETATM    4  C   UNL     1     -41.438  55.163 -54.286  1.00  0.00     0.220 C 
HETATM    5  C   UNL     1     -40.789  53.910 -53.781  1.00  0.00    -0.021 A 
HETATM    6  C   UNL     1     -40.839  53.828 -52.379  1.00  0.00    -0.040 A 
HETATM    7  C   UNL     1     -40.231  52.889 -54.540  1.00  0.00     0.010 A 
HETATM    8  C   UNL     1     -40.288  52.740 -51.704  1.00  0.00    -0.055 A 
HETATM    9  C   UNL     1     -41.546  55.022 -51.796  1.00  0.00     0.018 C 
HETATM   10  C   UNL     1     -40.312  52.620 -50.209  1.00  0.00     0.049 C 
HETATM   11  C   UNL     1     -39.735  51.709 -52.477  1.00  0.00     0.007 A 
HETATM   12  C   UNL     1     -39.707  51.782 -53.878  1.00  0.00     0.001 A 
HETATM   13  C   UNL     1     -41.568  55.992 -52.997  1.00  0.00     0.047 C 
HETATM   14  C   UNL     1     -42.945  54.695 -51.289  1.00  0.00     0.015 C 
ENDBRANCH   1   4
BRANCH   1  15
HETATM   15  C   UNL     1     -42.935  55.282 -56.347  1.00  0.00     0.240 C 
BRANCH  15  16
HETATM   16  C   UNL     1     -42.638  56.786 -56.528  1.00  0.00     0.040 C 
BRANCH  16  17
HETATM   17  C   UNL     1     -43.662  57.628 -55.752  1.00  0.00     0.170 C 
BRANCH  17  18
HETATM   18  O   UNL     1     -44.857  56.870 -55.565  1.00  0.00    -0.400 OA
HETATM   19  H   UNL     1     -45.114  56.987 -54.626  1.00  0.00     0.209 HD
ENDBRANCH  17  18
ENDBRANCH  16  17
BRANCH  16  20
HETATM   20  C   UNL     1     -42.596  57.264 -57.999  1.00  0.00     0.067 C 
BRANCH  20  21
HETATM   21  C   UNL     1     -43.694  56.681 -58.847  1.00  0.00     0.034 A 
HETATM   22  N   UNL     1     -44.915  57.277 -58.732  1.00  0.00    -0.266 NA
HETATM   23  C   UNL     1     -45.913  56.760 -59.491  1.00  0.00     0.117 A 
HETATM   24  C   UNL     1     -45.765  55.664 -60.325  1.00  0.00     0.019 A 
HETATM   25  C   UNL     1     -44.516  55.063 -60.404  1.00  0.00     0.003 A 
HETATM   26  C   UNL     1     -43.461  55.574 -59.657  1.00  0.00     0.027 A 
ENDBRANCH  20  21
ENDBRANCH  16  20
ENDBRANCH  15  16
ENDBRANCH   1  15
TORSDOF 7
ENDMDL
MODEL 4
REMARK VINA RESULT:      -7.6      3.798      7.433
REMARK  7 active torsions:
REMARK  status: ('A' for Active; 'I' for Inactive)
REMARK    1  A    between atoms: C_5  and  N_6 
REMARK    2  A    between atoms: N_6  and  C_9 
REMARK    3  A    between atoms: C_9  and  C_10 
REMARK    4  A    between atoms: C_10  and  C_11 
REMARK    5  A    between atoms: C_10  and  C_13 
REMARK    6  A    between atoms: C_11  and  O_12 
REMARK    7  A    between atoms: C_13  and  C_14 
ROOT
HETATM    1  N   UNL     1     -41.738  56.297 -54.403  1.00  0.00    -0.066 N 
HETATM    2  H   UNL     1     -41.097  56.775 -53.744  1.00  0.00     0.278 HD
HETATM    3  H   UNL     1     -41.117  55.879 -55.121  1.00  0.00     0.278 HD
ENDROOT
BRANCH   1   4
HETATM    4  C   UNL     1     -42.422  55.275 -53.583  1.00  0.00     0.220 C 
HETATM    5  C   UNL     1     -41.628  54.957 -52.353  1.00  0.00    -0.021 A 
HETATM    6  C   UNL     1     -41.032  53.688 -52.434  1.00  0.00    -0.040 A 
HETATM    7  C   UNL     1     -41.420  55.779 -51.252  1.00  0.00     0.010 A 
HETATM    8  C   UNL     1     -40.250  53.195 -51.390  1.00  0.00    -0.055 A 
HETATM    9  C   UNL     1     -41.356  53.024 -53.745  1.00  0.00     0.018 C 
HETATM   10  C   UNL     1     -39.605  51.841 -51.433  1.00  0.00     0.049 C 
HETATM   11  C   UNL     1     -40.037  54.033 -50.286  1.00  0.00     0.007 A 
HETATM   12  C   UNL     1     -40.614  55.310 -50.218  1.00  0.00     0.001 A 
HETATM   13  C   UNL     1     -42.519  53.898 -54.260  1.00  0.00     0.047 C 
HETATM   14  C   UNL     1     -40.175  53.004 -54.708  1.00  0.00     0.015 C 
ENDBRANCH   1   4
BRANCH   1  15
HETATM   15  C   UNL     1     -42.549  57.372 -55.031  1.00  0.00     0.240 C 
BRANCH  15  16
HETATM   16  C   UNL     1     -43.333  58.168 -53.966  1.00  0.00     0.040 C 
BRANCH  16  17
HETATM   17  C   UNL     1     -44.785  58.381 -54.422  1.00  0.00     0.170 C 
BRANCH  17  18
HETATM   18  O   UNL     1     -45.184  57.295 -55.256  1.00  0.00    -0.400 OA
HETATM   19  H   UNL     1     -44.372  56.780 -55.448  1.00  0.00     0.209 HD
ENDBRANCH  17  18
ENDBRANCH  16  17
BRANCH  16  20
HETATM   20  C   UNL     1     -42.711  59.535 -53.593  1.00  0.00     0.067 C 
BRANCH  20  21
HETATM   21  C   UNL     1     -41.550  59.422 -52.642  1.00  0.00     0.034 A 
HETATM   22  N   UNL     1     -40.339  59.156 -53.210  1.00  0.00    -0.266 NA
HETATM   23  C   UNL     1     -39.285  59.050 -52.362  1.00  0.00     0.117 A 
HETATM   24  C   UNL     1     -39.383  59.161 -50.985  1.00  0.00     0.019 A 
HETATM   25  C   UNL     1     -40.634  59.408 -50.433  1.00  0.00     0.003 A 
HETATM   26  C   UNL     1     -41.737  59.542 -51.269  1.00  0.00     0.027 A 
ENDBRANCH  20  21
ENDBRANCH  16  20
ENDBRANCH  15  16
ENDBRANCH   1  15
TORSDOF 7
ENDMDL
MODEL 5
REMARK VINA RESULT:      -7.4      4.075      8.132
REMARK  7 active torsions:
REMARK  status: ('A' for Active; 'I' for Inactive)
REMARK    1  A    between atoms: C_5  and  N_6 
REMARK    2  A    between atoms: N_6  and  C_9 
REMARK    3  A    between atoms: C_9  and  C_10 
REMARK    4  A    between atoms: C_10  and  C_11 
REMARK    5  A    between atoms: C_10  and  C_13 
REMARK    6  A    between atoms: C_11  and  O_12 
REMARK    7  A    between atoms: C_13  and  C_14 
ROOT
HETATM    1  N   UNL     1     -40.737  56.366 -50.511  1.00  0.00    -0.066 N 
HETATM    2  H   UNL     1     -40.438  56.087 -49.559  1.00  0.00     0.278 HD
HETATM    3  H   UNL     1     -39.869  56.344 -51.079  1.00  0.00     0.278 HD
ENDROOT
BRANCH   1   4
HETATM    4  C   UNL     1     -41.704  55.326 -50.918  1.00  0.00     0.220 C 
HETATM    5  C   UNL     1     -40.999  54.066 -51.320  1.00  0.00    -0.021 A 
HETATM    6  C   UNL     1     -41.048  53.865 -52.709  1.00  0.00    -0.040 A 
HETATM    7  C   UNL     1     -40.318  53.185 -50.490  1.00  0.00     0.010 A 
HETATM    8  C   UNL     1     -40.453  52.747 -53.293  1.00  0.00    -0.055 A 
HETATM    9  C   UNL     1     -41.786  54.986 -53.390  1.00  0.00     0.018 C 
HETATM   10  C   UNL     1     -40.492  52.490 -54.770  1.00  0.00     0.049 C 
HETATM   11  C   UNL     1     -39.760  51.866 -52.451  1.00  0.00     0.007 A 
HETATM   12  C   UNL     1     -39.692  52.082 -51.066  1.00  0.00     0.001 A 
HETATM   13  C   UNL     1     -42.487  55.670 -52.196  1.00  0.00     0.047 C 
HETATM   14  C   UNL     1     -40.861  55.936 -54.142  1.00  0.00     0.015 C 
ENDBRANCH   1   4
BRANCH   1  15
HETATM   15  C   UNL     1     -41.204  57.772 -50.394  1.00  0.00     0.240 C 
BRANCH  15  16
HETATM   16  C   UNL     1     -40.568  58.661 -51.483  1.00  0.00     0.040 C 
BRANCH  16  17
HETATM   17  C   UNL     1     -39.279  59.309 -50.956  1.00  0.00     0.170 C 
BRANCH  17  18
HETATM   18  O   UNL     1     -38.361  59.486 -52.034  1.00  0.00    -0.400 OA
HETATM   19  H   UNL     1     -37.955  60.369 -51.909  1.00  0.00     0.209 HD
ENDBRANCH  17  18
ENDBRANCH  16  17
BRANCH  16  20
HETATM   20  C   UNL     1     -41.499  59.761 -52.045  1.00  0.00     0.067 C 
BRANCH  20  21
HETATM   21  C   UNL     1     -42.183  59.367 -53.326  1.00  0.00     0.034 A 
HETATM   22  N   UNL     1     -41.459  59.548 -54.467  1.00  0.00    -0.266 NA
HETATM   23  C   UNL     1     -42.065  59.198 -55.629  1.00  0.00     0.117 A 
HETATM   24  C   UNL     1     -43.359  58.713 -55.713  1.00  0.00     0.019 A 
HETATM   25  C   UNL     1     -44.081  58.561 -54.536  1.00  0.00     0.003 A 
HETATM   26  C   UNL     1     -43.490  58.891 -53.322  1.00  0.00     0.027 A 
ENDBRANCH  20  21
ENDBRANCH  16  20
ENDBRANCH  15  16
ENDBRANCH   1  15
TORSDOF 7
ENDMDL
MODEL 6
REMARK VINA RESULT:      -7.3      3.636      8.097
REMARK  7 active torsions:
REMARK  status: ('A' for Active; 'I' for Inactive)
REMARK    1  A    between atoms: C_5  and  N_6 
REMARK    2  A    between atoms: N_6  and  C_9 
REMARK    3  A    between atoms: C_9  and  C_10 
REMARK    4  A    between atoms: C_10  and  C_11 
REMARK    5  A    between atoms: C_10  and  C_13 
REMARK    6  A    between atoms: C_11  and  O_12 
REMARK    7  A    between atoms: C_13  and  C_14 
ROOT
HETATM    1  N   UNL     1     -43.720  56.952 -50.620  1.00  0.00    -0.066 N 
HETATM    2  H   UNL     1     -43.909  55.940 -50.501  1.00  0.00     0.278 HD
HETATM    3  H   UNL     1     -43.675  57.329 -49.654  1.00  0.00     0.278 HD
ENDROOT
BRANCH   1   4
HETATM    4  C   UNL     1     -42.413  57.008 -51.308  1.00  0.00     0.220 C 
HETATM    5  C   UNL     1     -42.178  55.765 -52.111  1.00  0.00    -0.021 A 
HETATM    6  C   UNL     1     -41.202  54.943 -51.522  1.00  0.00    -0.040 A 
HETATM    7  C   UNL     1     -42.834  55.380 -53.274  1.00  0.00     0.010 A 
HETATM    8  C   UNL     1     -40.830  53.736 -52.112  1.00  0.00    -0.055 A 
HETATM    9  C   UNL     1     -40.689  55.550 -50.244  1.00  0.00     0.018 C 
HETATM   10  C   UNL     1     -39.786  52.836 -51.520  1.00  0.00     0.049 C 
HETATM   11  C   UNL     1     -41.503  53.349 -53.280  1.00  0.00     0.007 A 
HETATM   12  C   UNL     1     -42.493  54.160 -53.853  1.00  0.00     0.001 A 
HETATM   13  C   UNL     1     -41.207  57.000 -50.354  1.00  0.00     0.047 C 
HETATM   14  C   UNL     1     -41.210  54.841 -48.999  1.00  0.00     0.015 C 
ENDBRANCH   1   4
BRANCH   1  15
HETATM   15  C   UNL     1     -44.914  57.511 -51.305  1.00  0.00     0.240 C 
BRANCH  15  16
HETATM   16  C   UNL     1     -44.758  59.027 -51.542  1.00  0.00     0.040 C 
BRANCH  16  17
HETATM   17  C   UNL     1     -45.549  59.816 -50.487  1.00  0.00     0.170 C 
BRANCH  17  18
HETATM   18  O   UNL     1     -45.810  58.975 -49.364  1.00  0.00    -0.400 OA
HETATM   19  H   UNL     1     -46.784  58.964 -49.247  1.00  0.00     0.209 HD
ENDBRANCH  17  18
ENDBRANCH  16  17
BRANCH  16  20
HETATM   20  C   UNL     1     -45.174  59.506 -52.954  1.00  0.00     0.067 C 
BRANCH  20  21
HETATM   21  C   UNL     1     -44.323  58.931 -54.053  1.00  0.00     0.034 A 
HETATM   22  N   UNL     1     -44.971  58.141 -54.956  1.00  0.00    -0.266 NA
HETATM   23  C   UNL     1     -44.214  57.616 -55.951  1.00  0.00     0.117 A 
HETATM   24  C   UNL     1     -42.847  57.808 -56.071  1.00  0.00     0.019 A 
HETATM   25  C   UNL     1     -42.210  58.598 -55.123  1.00  0.00     0.003 A 
HETATM   26  C   UNL     1     -42.953  59.171 -54.097  1.00  0.00     0.027 A 
ENDBRANCH  20  21
ENDBRANCH  16  20
ENDBRANCH  15  16
ENDBRANCH   1  15
TORSDOF 7
ENDMDL
MODEL 7
REMARK VINA RESULT:      -7.3      4.881      8.513
REMARK  7 active torsions:
REMARK  status: ('A' for Active; 'I' for Inactive)
REMARK    1  A    between atoms: C_5  and  N_6 
REMARK    2  A    between atoms: N_6  and  C_9 
REMARK    3  A    between atoms: C_9  and  C_10 
REMARK    4  A    between atoms: C_10  and  C_11 
REMARK    5  A    between atoms: C_10  and  C_13 
REMARK    6  A    between atoms: C_11  and  O_12 
REMARK    7  A    between atoms: C_13  and  C_14 
ROOT
HETATM    1  N   UNL     1     -41.209  56.447 -52.755  1.00  0.00    -0.066 N 
HETATM    2  H   UNL     1     -40.227  56.119 -52.725  1.00  0.00     0.278 HD
HETATM    3  H   UNL     1     -41.289  56.965 -53.650  1.00  0.00     0.278 HD
ENDROOT
BRANCH   1   4
HETATM    4  C   UNL     1     -42.015  55.208 -52.748  1.00  0.00     0.220 C 
HETATM    5  C   UNL     1     -41.232  54.064 -52.177  1.00  0.00    -0.021 A 
HETATM    6  C   UNL     1     -40.853  53.147 -53.172  1.00  0.00    -0.040 A 
HETATM    7  C   UNL     1     -40.849  53.887 -50.853  1.00  0.00     0.010 A 
HETATM    8  C   UNL     1     -40.118  52.006 -52.853  1.00  0.00    -0.055 A 
HETATM    9  C   UNL     1     -41.335  53.594 -54.526  1.00  0.00     0.018 C 
HETATM   10  C   UNL     1     -39.703  50.998 -53.884  1.00  0.00     0.049 C 
HETATM   11  C   UNL     1     -39.727  51.838 -51.517  1.00  0.00     0.007 A 
HETATM   12  C   UNL     1     -40.086  52.767 -50.529  1.00  0.00     0.001 A 
HETATM   13  C   UNL     1     -42.362  54.683 -54.150  1.00  0.00     0.047 C 
HETATM   14  C   UNL     1     -40.214  54.132 -55.407  1.00  0.00     0.015 C 
ENDBRANCH   1   4
BRANCH   1  15
HETATM   15  C   UNL     1     -41.354  57.401 -51.626  1.00  0.00     0.240 C 
BRANCH  15  16
HETATM   16  C   UNL     1     -41.923  58.751 -52.110  1.00  0.00     0.040 C 
BRANCH  16  17
HETATM   17  C   UNL     1     -41.197  59.209 -53.385  1.00  0.00     0.170 C 
BRANCH  17  18
HETATM   18  O   UNL     1     -39.787  59.115 -53.188  1.00  0.00    -0.400 OA
HETATM   19  H   UNL     1     -39.656  58.834 -52.258  1.00  0.00     0.209 HD
ENDBRANCH  17  18
ENDBRANCH  16  17
BRANCH  16  20
HETATM   20  C   UNL     1     -41.874  59.887 -51.061  1.00  0.00     0.067 C 
BRANCH  20  21
HETATM   21  C   UNL     1     -43.236  60.375 -50.647  1.00  0.00     0.034 A 
HETATM   22  N   UNL     1     -44.284  59.566 -50.974  1.00  0.00    -0.266 NA
HETATM   23  C   UNL     1     -45.517  59.996 -50.607  1.00  0.00     0.117 A 
HETATM   24  C   UNL     1     -45.759  61.200 -49.966  1.00  0.00     0.019 A 
HETATM   25  C   UNL     1     -44.675  62.015 -49.667  1.00  0.00     0.003 A 
HETATM   26  C   UNL     1     -43.392  61.602 -50.009  1.00  0.00     0.027 A 
ENDBRANCH  20  21
ENDBRANCH  16  20
ENDBRANCH  15  16
ENDBRANCH   1  15
TORSDOF 7
ENDMDL
MODEL 8
REMARK VINA RESULT:      -7.3      4.040      7.792
REMARK  7 active torsions:
REMARK  status: ('A' for Active; 'I' for Inactive)
REMARK    1  A    between atoms: C_5  and  N_6 
REMARK    2  A    between atoms: N_6  and  C_9 
REMARK    3  A    between atoms: C_9  and  C_10 
REMARK    4  A    between atoms: C_10  and  C_11 
REMARK    5  A    between atoms: C_10  and  C_13 
REMARK    6  A    between atoms: C_11  and  O_12 
REMARK    7  A    between atoms: C_13  and  C_14 
ROOT
HETATM    1  N   UNL     1     -42.568  55.736 -53.883  1.00  0.00    -0.066 N 
HETATM    2  H   UNL     1     -42.642  54.933 -54.535  1.00  0.00     0.278 HD
HETATM    3  H   UNL     1     -43.299  55.564 -53.167  1.00  0.00     0.278 HD
ENDROOT
BRANCH   1   4
HETATM    4  C   UNL     1     -41.202  55.642 -53.329  1.00  0.00     0.220 C 
HETATM    5  C   UNL     1     -40.686  54.238 -53.412  1.00  0.00    -0.021 A 
HETATM    6  C   UNL     1     -40.638  53.627 -52.148  1.00  0.00    -0.040 A 
HETATM    7  C   UNL     1     -40.326  53.542 -54.560  1.00  0.00     0.010 A 
HETATM    8  C   UNL     1     -40.184  52.317 -52.001  1.00  0.00    -0.055 A 
HETATM    9  C   UNL     1     -41.135  54.563 -51.080  1.00  0.00     0.018 C 
HETATM   10  C   UNL     1     -40.108  51.633 -50.669  1.00  0.00     0.049 C 
HETATM   11  C   UNL     1     -39.831  51.617 -53.165  1.00  0.00     0.007 A 
HETATM   12  C   UNL     1     -39.903  52.222 -54.429  1.00  0.00     0.001 A 
HETATM   13  C   UNL     1     -41.123  55.918 -51.819  1.00  0.00     0.047 C 
HETATM   14  C   UNL     1     -42.522  54.195 -50.566  1.00  0.00     0.015 C 
ENDBRANCH   1   4
BRANCH   1  15
HETATM   15  C   UNL     1     -42.938  56.937 -54.676  1.00  0.00     0.240 C 
BRANCH  15  16
HETATM   16  C   UNL     1     -43.375  58.096 -53.756  1.00  0.00     0.040 C 
BRANCH  16  17
HETATM   17  C   UNL     1     -44.820  58.511 -54.071  1.00  0.00     0.170 C 
BRANCH  17  18
HETATM   18  O   UNL     1     -44.971  59.913 -53.848  1.00  0.00    -0.400 OA
HETATM   19  H   UNL     1     -45.338  60.287 -54.676  1.00  0.00     0.209 HD
ENDBRANCH  17  18
ENDBRANCH  16  17
BRANCH  16  20
HETATM   20  C   UNL     1     -42.463  59.345 -53.813  1.00  0.00     0.067 C 
BRANCH  20  21
HETATM   21  C   UNL     1     -41.418  59.370 -52.730  1.00  0.00     0.034 A 
HETATM   22  N   UNL     1     -40.138  59.126 -53.131  1.00  0.00    -0.266 NA
HETATM   23  C   UNL     1     -39.188  59.145 -52.164  1.00  0.00     0.117 A 
HETATM   24  C   UNL     1     -39.453  59.357 -50.821  1.00  0.00     0.019 A 
HETATM   25  C   UNL     1     -40.769  59.579 -50.438  1.00  0.00     0.003 A 
HETATM   26  C   UNL     1     -41.771  59.587 -51.402  1.00  0.00     0.027 A 
ENDBRANCH  20  21
ENDBRANCH  16  20
ENDBRANCH  15  16
ENDBRANCH   1  15
TORSDOF 7
ENDMDL
MODEL 9
REMARK VINA RESULT:      -7.1      4.407      6.125
REMARK  7 active torsions:
REMARK  status: ('A' for Active; 'I' for Inactive)
REMARK    1  A    between atoms: C_5  and  N_6 
REMARK    2  A    between atoms: N_6  and  C_9 
REMARK    3  A    between atoms: C_9  and  C_10 
REMARK    4  A    between atoms: C_10  and  C_11 
REMARK    5  A    between atoms: C_10  and  C_13 
REMARK    6  A    between atoms: C_11  and  O_12 
REMARK    7  A    between atoms: C_13  and  C_14 
ROOT
HETATM    1  N   UNL     1     -40.957  56.505 -53.468  1.00  0.00    -0.066 N 
HETATM    2  H   UNL     1     -39.957  56.338 -53.681  1.00  0.00     0.278 HD
HETATM    3  H   UNL     1     -41.056  56.276 -52.462  1.00  0.00     0.278 HD
ENDROOT
BRANCH   1   4
HETATM    4  C   UNL     1     -41.161  57.943 -53.743  1.00  0.00     0.220 C 
HETATM    5  C   UNL     1     -41.185  58.733 -52.470  1.00  0.00    -0.021 A 
HETATM    6  C   UNL     1     -42.481  59.180 -52.162  1.00  0.00    -0.040 A 
HETATM    7  C   UNL     1     -40.116  58.991 -51.623  1.00  0.00     0.010 A 
HETATM    8  C   UNL     1     -42.725  59.938 -51.018  1.00  0.00    -0.055 A 
HETATM    9  C   UNL     1     -43.470  58.720 -53.199  1.00  0.00     0.018 C 
HETATM   10  C   UNL     1     -44.091  60.444 -50.659  1.00  0.00     0.049 C 
HETATM   11  C   UNL     1     -41.642  60.188 -50.162  1.00  0.00     0.007 A 
HETATM   12  C   UNL     1     -40.354  59.720 -50.459  1.00  0.00     0.001 A 
HETATM   13  C   UNL     1     -42.537  58.271 -54.345  1.00  0.00     0.047 C 
HETATM   14  C   UNL     1     -44.366  57.590 -52.705  1.00  0.00     0.015 C 
ENDBRANCH   1   4
BRANCH   1  15
HETATM   15  C   UNL     1     -41.714  55.508 -54.269  1.00  0.00     0.240 C 
BRANCH  15  16
HETATM   16  C   UNL     1     -41.790  54.152 -53.538  1.00  0.00     0.040 C 
BRANCH  16  17
HETATM   17  C   UNL     1     -42.922  54.169 -52.499  1.00  0.00     0.170 C 
BRANCH  17  18
HETATM   18  O   UNL     1     -42.490  54.881 -51.340  1.00  0.00    -0.400 OA
HETATM   19  H   UNL     1     -41.764  55.471 -51.633  1.00  0.00     0.209 HD
ENDBRANCH  17  18
ENDBRANCH  16  17
BRANCH  16  20
HETATM   20  C   UNL     1     -40.475  53.712 -52.853  1.00  0.00     0.067 C 
BRANCH  20  21
HETATM   21  C   UNL     1     -40.193  52.241 -52.991  1.00  0.00     0.034 A 
HETATM   22  N   UNL     1     -39.735  51.614 -51.870  1.00  0.00    -0.266 NA
HETATM   23  C   UNL     1     -39.476  50.288 -51.983  1.00  0.00     0.117 A 
HETATM   24  C   UNL     1     -39.616  49.567 -53.157  1.00  0.00     0.019 A 
HETATM   25  C   UNL     1     -40.061  50.237 -54.290  1.00  0.00     0.003 A 
HETATM   26  C   UNL     1     -40.356  51.593 -54.212  1.00  0.00     0.027 A 
ENDBRANCH  20  21
ENDBRANCH  16  20
ENDBRANCH  15  16
ENDBRANCH   1  15
TORSDOF 7
ENDMDL
MODEL 10
REMARK VINA RESULT:      -7.0      2.668      7.825
REMARK  7 active torsions:
REMARK  status: ('A' for Active; 'I' for Inactive)
REMARK    1  A    between atoms: C_5  and  N_6 
REMARK    2  A    between atoms: N_6  and  C_9 
REMARK    3  A    between atoms: C_9  and  C_10 
REMARK    4  A    between atoms: C_10  and  C_11 
REMARK    5  A    between atoms: C_10  and  C_13 
REMARK    6  A    between atoms: C_11  and  O_12 
REMARK    7  A    between atoms: C_13  and  C_14 
ROOT
HETATM    1  N   UNL     1     -42.255  54.868 -55.423  1.00  0.00    -0.066 N 
HETATM    2  H   UNL     1     -41.975  54.779 -56.417  1.00  0.00     0.278 HD
HETATM    3  H   UNL     1     -42.671  53.949 -55.181  1.00  0.00     0.278 HD
ENDROOT
BRANCH   1   4
HETATM    4  C   UNL     1     -40.990  55.121 -54.702  1.00  0.00     0.220 C 
HETATM    5  C   UNL     1     -40.527  53.889 -53.984  1.00  0.00    -0.021 A 
HETATM    6  C   UNL     1     -40.693  54.006 -52.594  1.00  0.00    -0.040 A 
HETATM    7  C   UNL     1     -40.033  52.722 -54.552  1.00  0.00     0.010 A 
HETATM    8  C   UNL     1     -40.322  52.970 -51.737  1.00  0.00    -0.055 A 
HETATM    9  C   UNL     1     -41.301  55.335 -52.235  1.00  0.00     0.018 C 
HETATM   10  C   UNL     1     -40.472  53.061 -50.248  1.00  0.00     0.049 C 
HETATM   11  C   UNL     1     -39.831  51.792 -52.318  1.00  0.00     0.007 A 
HETATM   12  C   UNL     1     -39.690  51.668 -53.708  1.00  0.00     0.001 A 
HETATM   13  C   UNL     1     -41.123  56.127 -53.548  1.00  0.00     0.047 C 
HETATM   14  C   UNL     1     -42.764  55.226 -51.818  1.00  0.00     0.015 C 
ENDBRANCH   1   4
BRANCH   1  15
HETATM   15  C   UNL     1     -43.316  55.906 -55.391  1.00  0.00     0.240 C 
BRANCH  15  16
HETATM   16  C   UNL     1     -43.314  56.742 -56.688  1.00  0.00     0.040 C 
BRANCH  16  17
HETATM   17  C   UNL     1     -42.936  55.861 -57.889  1.00  0.00     0.170 C 
BRANCH  17  18
HETATM   18  O   UNL     1     -43.962  54.893 -58.109  1.00  0.00    -0.400 OA
HETATM   19  H   UNL     1     -44.650  55.061 -57.431  1.00  0.00     0.209 HD
ENDBRANCH  17  18
ENDBRANCH  16  17
BRANCH  16  20
HETATM   20  C   UNL     1     -42.390  57.983 -56.656  1.00  0.00     0.067 C 
BRANCH  20  21
HETATM   21  C   UNL     1     -42.754  58.970 -55.580  1.00  0.00     0.034 A 
HETATM   22  N   UNL     1     -41.718  59.446 -54.834  1.00  0.00    -0.266 NA
HETATM   23  C   UNL     1     -42.034  60.336 -53.860  1.00  0.00     0.117 A 
HETATM   24  C   UNL     1     -43.325  60.744 -53.572  1.00  0.00     0.019 A 
HETATM   25  C   UNL     1     -44.364  60.224 -54.334  1.00  0.00     0.003 A 
HETATM   26  C   UNL     1     -44.081  59.324 -55.354  1.00  0.00     0.027 A 
ENDBRANCH  20  21
ENDBRANCH  16  20
ENDBRANCH  15  16
ENDBRANCH   1  15
TORSDOF 7
ENDMDL
