MODEL 1
REMARK VINA RESULT:      -8.4      0.000      0.000
REMARK  4 active torsions:
REMARK  status: ('A' for Active; 'I' for Inactive)
REMARK    1  A    between atoms: C_10  and  C_11 
REMARK    2  A    between atoms: N_14  and  C_16 
REMARK    3  A    between atoms: C_16  and  C_17 
REMARK    4  A    between atoms: C_22  and  C_23 
ROOT
HETATM    1  C   UNL     1     -42.114  53.940 -54.225  1.00  0.00     0.024 C 
HETATM    2  C   UNL     1     -41.282  54.688 -55.286  1.00  0.00     0.037 C 
HETATM    3  C   UNL     1     -40.462  55.803 -54.651  1.00  0.00     0.236 C 
HETATM    4  N   UNL     1     -41.375  56.789 -53.958  1.00  0.00    -0.066 N 
HETATM    5  H   UNL     1     -41.870  57.300 -54.707  1.00  0.00     0.280 HD
HETATM    6  C   UNL     1     -42.358  56.163 -53.010  1.00  0.00     0.236 C 
HETATM    7  C   UNL     1     -43.075  54.970 -53.629  1.00  0.00     0.037 C 
ENDROOT
BRANCH   4   8
HETATM    8  C   UNL     1     -40.580  57.877 -53.235  1.00  0.00     0.294 C 
BRANCH   8   9
HETATM    9  C   UNL     1     -41.406  59.085 -52.838  1.00  0.00     0.075 A 
HETATM   10  N   UNL     1     -42.095  59.682 -53.854  1.00  0.00    -0.263 NA
HETATM   11  C   UNL     1     -42.847  60.764 -53.541  1.00  0.00     0.117 A 
HETATM   12  C   UNL     1     -42.952  61.281 -52.263  1.00  0.00     0.020 A 
HETATM   13  C   UNL     1     -42.259  60.650 -51.235  1.00  0.00     0.020 A 
HETATM   14  C   UNL     1     -41.476  59.524 -51.510  1.00  0.00     0.074 A 
BRANCH  14  15
HETATM   15  C   UNL     1     -40.713  58.822 -50.422  1.00  0.00     0.419 C 
HETATM   16  F   UNL     1     -39.369  58.894 -50.633  1.00  0.00    -0.166 F 
HETATM   17  F   UNL     1     -40.920  59.411 -49.213  1.00  0.00    -0.166 F 
HETATM   18  F   UNL     1     -41.013  57.510 -50.278  1.00  0.00    -0.166 F 
ENDBRANCH  14  15
ENDBRANCH   8   9
ENDBRANCH   4   8
BRANCH   1  19
HETATM   19  C   UNL     1     -41.219  53.193 -53.244  1.00  0.00    -0.024 A 
HETATM   20  C   UNL     1     -40.542  51.920 -53.350  1.00  0.00     0.018 A 
HETATM   21  C   UNL     1     -39.967  51.662 -52.106  1.00  0.00     0.138 A 
HETATM   22  C   UNL     1     -40.345  50.922 -54.326  1.00  0.00     0.017 A 
HETATM   23  N   UNL     1     -39.305  50.563 -51.707  1.00  0.00    -0.242 NA
HETATM   24  N   UNL     1     -40.160  52.748 -51.309  1.00  0.00    -0.350 N 
HETATM   25  C   UNL     1     -39.175  49.634 -52.674  1.00  0.00     0.119 A 
HETATM   26  C   UNL     1     -39.654  49.761 -53.968  1.00  0.00     0.020 A 
HETATM   27  H   UNL     1     -39.794  52.823 -50.370  1.00  0.00     0.166 HD
HETATM   28  C   UNL     1     -40.896  53.683 -51.983  1.00  0.00     0.098 A 
ENDBRANCH   1  19
TORSDOF 4
ENDMDL
MODEL 2
REMARK VINA RESULT:      -8.3      3.715      6.977
REMARK  4 active torsions:
REMARK  status: ('A' for Active; 'I' for Inactive)
REMARK    1  A    between atoms: C_10  and  C_11 
REMARK    2  A    between atoms: N_14  and  C_16 
REMARK    3  A    between atoms: C_16  and  C_17 
REMARK    4  A    between atoms: C_22  and  C_23 
ROOT
HETATM    1  C   UNL     1     -43.243  56.138 -54.347  1.00  0.00     0.024 C 
HETATM    2  C   UNL     1     -43.710  54.669 -54.316  1.00  0.00     0.037 C 
HETATM    3  C   UNL     1     -42.562  53.738 -53.947  1.00  0.00     0.236 C 
HETATM    4  N   UNL     1     -41.440  53.875 -54.951  1.00  0.00    -0.066 N 
HETATM    5  H   UNL     1     -41.780  53.444 -55.825  1.00  0.00     0.280 HD
HETATM    6  C   UNL     1     -40.999  55.289 -55.198  1.00  0.00     0.236 C 
HETATM    7  C   UNL     1     -42.176  56.226 -55.440  1.00  0.00     0.037 C 
ENDROOT
BRANCH   4   8
HETATM    8  C   UNL     1     -40.234  53.018 -54.563  1.00  0.00     0.294 C 
BRANCH   8   9
HETATM    9  C   UNL     1     -40.156  52.694 -53.084  1.00  0.00     0.075 A 
HETATM   10  N   UNL     1     -40.303  53.760 -52.243  1.00  0.00    -0.263 NA
HETATM   11  C   UNL     1     -40.241  53.513 -50.913  1.00  0.00     0.117 A 
HETATM   12  C   UNL     1     -40.046  52.254 -50.375  1.00  0.00     0.020 A 
HETATM   13  C   UNL     1     -39.918  51.176 -51.244  1.00  0.00     0.020 A 
HETATM   14  C   UNL     1     -39.983  51.382 -52.626  1.00  0.00     0.074 A 
BRANCH  14  15
HETATM   15  C   UNL     1     -39.845  50.238 -53.591  1.00  0.00     0.419 C 
HETATM   16  F   UNL     1     -38.756  50.395 -54.394  1.00  0.00    -0.166 F 
HETATM   17  F   UNL     1     -39.645  49.061 -52.939  1.00  0.00    -0.166 F 
HETATM   18  F   UNL     1     -40.908  50.060 -54.410  1.00  0.00    -0.166 F 
ENDBRANCH  14  15
ENDBRANCH   8   9
ENDBRANCH   4   8
BRANCH   1  19
HETATM   19  C   UNL     1     -42.840  56.622 -52.960  1.00  0.00    -0.024 A 
HETATM   20  C   UNL     1     -41.798  57.528 -52.531  1.00  0.00     0.018 A 
HETATM   21  C   UNL     1     -41.795  57.512 -51.137  1.00  0.00     0.138 A 
HETATM   22  C   UNL     1     -40.828  58.358 -53.129  1.00  0.00     0.017 A 
HETATM   23  N   UNL     1     -40.950  58.136 -50.299  1.00  0.00    -0.242 NA
HETATM   24  N   UNL     1     -42.838  56.748 -50.712  1.00  0.00    -0.350 N 
HETATM   25  C   UNL     1     -40.029  58.890 -50.930  1.00  0.00     0.119 A 
HETATM   26  C   UNL     1     -39.929  59.041 -52.304  1.00  0.00     0.020 A 
HETATM   27  H   UNL     1     -43.075  56.619 -49.739  1.00  0.00     0.166 HD
HETATM   28  C   UNL     1     -43.485  56.220 -51.795  1.00  0.00     0.098 A 
ENDBRANCH   1  19
TORSDOF 4
ENDMDL
MODEL 3
REMARK VINA RESULT:      -8.3      3.364      6.800
REMARK  4 active torsions:
REMARK  status: ('A' for Active; 'I' for Inactive)
REMARK    1  A    between atoms: C_10  and  C_11 
REMARK    2  A    between atoms: N_14  and  C_16 
REMARK    3  A    between atoms: C_16  and  C_17 
REMARK    4  A    between atoms: C_22  and  C_23 
ROOT
HETATM    1  C   UNL     1     -42.885  56.033 -50.932  1.00  0.00     0.024 C 
HETATM    2  C   UNL     1     -41.728  56.294 -49.947  1.00  0.00     0.037 C 
HETATM    3  C   UNL     1     -40.550  55.371 -50.231  1.00  0.00     0.236 C 
HETATM    4  N   UNL     1     -40.981  53.927 -50.110  1.00  0.00    -0.066 N 
HETATM    5  H   UNL     1     -41.138  53.755 -49.104  1.00  0.00     0.280 HD
HETATM    6  C   UNL     1     -42.209  53.580 -50.901  1.00  0.00     0.236 C 
HETATM    7  C   UNL     1     -43.332  54.589 -50.697  1.00  0.00     0.037 C 
ENDROOT
BRANCH   4   8
HETATM    8  C   UNL     1     -39.844  52.971 -50.474  1.00  0.00     0.294 C 
BRANCH   8   9
HETATM    9  C   UNL     1     -39.946  52.394 -51.873  1.00  0.00     0.075 A 
HETATM   10  N   UNL     1     -40.055  53.312 -52.878  1.00  0.00    -0.263 NA
HETATM   11  C   UNL     1     -40.146  52.838 -54.143  1.00  0.00     0.117 A 
HETATM   12  C   UNL     1     -40.129  51.492 -54.461  1.00  0.00     0.020 A 
HETATM   13  C   UNL     1     -39.998  50.570 -53.427  1.00  0.00     0.020 A 
HETATM   14  C   UNL     1     -39.892  51.014 -52.106  1.00  0.00     0.074 A 
BRANCH  14  15
HETATM   15  C   UNL     1     -39.753  50.043 -50.967  1.00  0.00     0.419 C 
HETATM   16  F   UNL     1     -38.444  49.818 -50.663  1.00  0.00    -0.166 F 
HETATM   17  F   UNL     1     -40.308  50.534 -49.826  1.00  0.00    -0.166 F 
HETATM   18  F   UNL     1     -40.313  48.831 -51.187  1.00  0.00    -0.166 F 
ENDBRANCH  14  15
ENDBRANCH   8   9
ENDBRANCH   4   8
BRANCH   1  19
HETATM   19  C   UNL     1     -42.494  56.403 -52.357  1.00  0.00    -0.024 A 
HETATM   20  C   UNL     1     -42.738  55.737 -53.617  1.00  0.00     0.018 A 
HETATM   21  C   UNL     1     -42.044  56.450 -54.594  1.00  0.00     0.138 A 
HETATM   22  C   UNL     1     -43.441  54.605 -54.077  1.00  0.00     0.017 A 
HETATM   23  N   UNL     1     -41.913  56.159 -55.899  1.00  0.00    -0.242 NA
HETATM   24  N   UNL     1     -41.502  57.556 -54.017  1.00  0.00    -0.350 N 
HETATM   25  C   UNL     1     -42.581  55.051 -56.273  1.00  0.00     0.119 A 
HETATM   26  C   UNL     1     -43.348  54.262 -55.430  1.00  0.00     0.020 A 
HETATM   27  H   UNL     1     -40.988  58.258 -54.530  1.00  0.00     0.166 HD
HETATM   28  C   UNL     1     -41.777  57.552 -52.677  1.00  0.00     0.098 A 
ENDBRANCH   1  19
TORSDOF 4
ENDMDL
MODEL 4
REMARK VINA RESULT:      -8.0      4.284      7.440
REMARK  4 active torsions:
REMARK  status: ('A' for Active; 'I' for Inactive)
REMARK    1  A    between atoms: C_10  and  C_11 
REMARK    2  A    between atoms: N_14  and  C_16 
REMARK    3  A    between atoms: C_16  and  C_17 
REMARK    4  A    between atoms: C_22  and  C_23 
ROOT
HETATM    1  C   UNL     1     -43.468  58.271 -55.466  1.00  0.00     0.024 C 
HETATM    2  C   UNL     1     -42.106  58.091 -54.766  1.00  0.00     0.037 C 
HETATM    3  C   UNL     1     -41.762  56.615 -54.613  1.00  0.00     0.236 C 
HETATM    4  N   UNL     1     -42.827  55.916 -53.801  1.00  0.00    -0.066 N 
HETATM    5  H   UNL     1     -42.719  56.253 -52.831  1.00  0.00     0.280 HD
HETATM    6  C   UNL     1     -44.229  56.149 -54.285  1.00  0.00     0.236 C 
HETATM    7  C   UNL     1     -44.509  57.623 -54.552  1.00  0.00     0.037 C 
ENDROOT
BRANCH   4   8
HETATM    8  C   UNL     1     -42.559  54.413 -53.700  1.00  0.00     0.294 C 
BRANCH   8   9
HETATM    9  C   UNL     1     -41.683  54.020 -52.525  1.00  0.00     0.075 A 
HETATM   10  N   UNL     1     -42.006  54.603 -51.334  1.00  0.00    -0.263 NA
HETATM   11  C   UNL     1     -41.248  54.277 -50.259  1.00  0.00     0.117 A 
HETATM   12  C   UNL     1     -40.186  53.392 -50.310  1.00  0.00     0.020 A 
HETATM   13  C   UNL     1     -39.882  52.793 -51.527  1.00  0.00     0.020 A 
HETATM   14  C   UNL     1     -40.642  53.093 -52.662  1.00  0.00     0.074 A 
BRANCH  14  15
HETATM   15  C   UNL     1     -40.336  52.464 -53.993  1.00  0.00     0.419 C 
HETATM   16  F   UNL     1     -39.984  53.402 -54.916  1.00  0.00    -0.166 F 
HETATM   17  F   UNL     1     -39.271  51.622 -53.909  1.00  0.00    -0.166 F 
HETATM   18  F   UNL     1     -41.358  51.756 -54.530  1.00  0.00    -0.166 F 
ENDBRANCH  14  15
ENDBRANCH   8   9
ENDBRANCH   4   8
BRANCH   1  19
HETATM   19  C   UNL     1     -43.422  57.778 -56.906  1.00  0.00    -0.024 A 
HETATM   20  C   UNL     1     -44.472  57.580 -57.881  1.00  0.00     0.018 A 
HETATM   21  C   UNL     1     -43.882  56.988 -58.997  1.00  0.00     0.138 A 
HETATM   22  C   UNL     1     -45.861  57.803 -57.975  1.00  0.00     0.017 A 
HETATM   23  N   UNL     1     -44.479  56.550 -60.118  1.00  0.00    -0.242 NA
HETATM   24  N   UNL     1     -42.538  56.928 -58.794  1.00  0.00    -0.350 N 
HETATM   25  C   UNL     1     -45.808  56.763 -60.137  1.00  0.00     0.119 A 
HETATM   26  C   UNL     1     -46.531  57.376 -59.126  1.00  0.00     0.020 A 
HETATM   27  H   UNL     1     -41.885  56.580 -59.482  1.00  0.00     0.166 HD
HETATM   28  C   UNL     1     -42.244  57.414 -57.550  1.00  0.00     0.098 A 
ENDBRANCH   1  19
TORSDOF 4
ENDMDL
MODEL 5
REMARK VINA RESULT:      -7.9      2.175      2.694
REMARK  4 active torsions:
REMARK  status: ('A' for Active; 'I' for Inactive)
REMARK    1  A    between atoms: C_10  and  C_11 
REMARK    2  A    between atoms: N_14  and  C_16 
REMARK    3  A    between atoms: C_16  and  C_17 
REMARK    4  A    between atoms: C_22  and  C_23 
ROOT
HETATM    1  C   UNL     1     -41.077  54.052 -54.838  1.00  0.00     0.024 C 
HETATM    2  C   UNL     1     -40.647  55.531 -54.751  1.00  0.00     0.037 C 
HETATM    3  C   UNL     1     -41.286  56.216 -53.551  1.00  0.00     0.236 C 
HETATM    4  N   UNL     1     -42.793  56.149 -53.658  1.00  0.00    -0.066 N 
HETATM    5  H   UNL     1     -43.057  56.789 -54.424  1.00  0.00     0.280 HD
HETATM    6  C   UNL     1     -43.335  54.772 -53.912  1.00  0.00     0.236 C 
HETATM    7  C   UNL     1     -42.594  54.058 -55.035  1.00  0.00     0.037 C 
ENDROOT
BRANCH   4   8
HETATM    8  C   UNL     1     -43.469  56.752 -52.425  1.00  0.00     0.294 C 
BRANCH   8   9
HETATM    9  C   UNL     1     -42.713  57.916 -51.814  1.00  0.00     0.075 A 
HETATM   10  N   UNL     1     -41.776  57.579 -50.880  1.00  0.00    -0.263 NA
HETATM   11  C   UNL     1     -41.076  58.589 -50.310  1.00  0.00     0.117 A 
HETATM   12  C   UNL     1     -41.260  59.923 -50.628  1.00  0.00     0.020 A 
HETATM   13  C   UNL     1     -42.205  60.248 -51.595  1.00  0.00     0.020 A 
HETATM   14  C   UNL     1     -42.944  59.237 -52.216  1.00  0.00     0.074 A 
BRANCH  14  15
HETATM   15  C   UNL     1     -43.975  59.557 -53.263  1.00  0.00     0.419 C 
HETATM   16  F   UNL     1     -44.144  60.902 -53.397  1.00  0.00    -0.166 F 
HETATM   17  F   UNL     1     -43.587  59.118 -54.490  1.00  0.00    -0.166 F 
HETATM   18  F   UNL     1     -45.201  59.034 -53.026  1.00  0.00    -0.166 F 
ENDBRANCH  14  15
ENDBRANCH   8   9
ENDBRANCH   4   8
BRANCH   1  19
HETATM   19  C   UNL     1     -40.545  53.248 -53.659  1.00  0.00    -0.024 A 
HETATM   20  C   UNL     1     -40.136  51.866 -53.554  1.00  0.00     0.018 A 
HETATM   21  C   UNL     1     -39.856  51.627 -52.209  1.00  0.00     0.138 A 
HETATM   22  C   UNL     1     -39.977  50.758 -54.412  1.00  0.00     0.017 A 
HETATM   23  N   UNL     1     -39.517  50.466 -51.624  1.00  0.00    -0.242 NA
HETATM   24  N   UNL     1     -39.961  52.802 -51.532  1.00  0.00    -0.350 N 
HETATM   25  C   UNL     1     -39.410  49.439 -52.490  1.00  0.00     0.119 A 
HETATM   26  C   UNL     1     -39.614  49.527 -53.857  1.00  0.00     0.020 A 
HETATM   27  H   UNL     1     -39.761  52.897 -50.546  1.00  0.00     0.166 HD
HETATM   28  C   UNL     1     -40.357  53.789 -52.391  1.00  0.00     0.098 A 
ENDBRANCH   1  19
TORSDOF 4
ENDMDL
MODEL 6
REMARK VINA RESULT:      -7.8      1.867      2.382
REMARK  4 active torsions:
REMARK  status: ('A' for Active; 'I' for Inactive)
REMARK    1  A    between atoms: C_10  and  C_11 
REMARK    2  A    between atoms: N_14  and  C_16 
REMARK    3  A    between atoms: C_16  and  C_17 
REMARK    4  A    between atoms: C_22  and  C_23 
ROOT
HETATM    1  C   UNL     1     -40.982  53.708 -55.037  1.00  0.00     0.024 C 
HETATM    2  C   UNL     1     -40.495  55.157 -55.242  1.00  0.00     0.037 C 
HETATM    3  C   UNL     1     -41.125  56.095 -54.220  1.00  0.00     0.236 C 
HETATM    4  N   UNL     1     -42.631  56.061 -54.345  1.00  0.00    -0.066 N 
HETATM    5  H   UNL     1     -42.859  56.541 -55.230  1.00  0.00     0.280 HD
HETATM    6  C   UNL     1     -43.224  54.682 -54.326  1.00  0.00     0.236 C 
HETATM    7  C   UNL     1     -42.495  53.729 -55.264  1.00  0.00     0.037 C 
ENDROOT
BRANCH   4   8
HETATM    8  C   UNL     1     -43.301  56.926 -53.276  1.00  0.00     0.294 C 
BRANCH   8   9
HETATM    9  C   UNL     1     -42.331  57.557 -52.295  1.00  0.00     0.075 A 
HETATM   10  N   UNL     1     -41.718  58.697 -52.729  1.00  0.00    -0.263 NA
HETATM   11  C   UNL     1     -40.845  59.293 -51.882  1.00  0.00     0.117 A 
HETATM   12  C   UNL     1     -40.555  58.813 -50.618  1.00  0.00     0.020 A 
HETATM   13  C   UNL     1     -41.203  57.661 -50.183  1.00  0.00     0.020 A 
HETATM   14  C   UNL     1     -42.118  57.017 -51.021  1.00  0.00     0.074 A 
BRANCH  14  15
HETATM   15  C   UNL     1     -42.832  55.769 -50.580  1.00  0.00     0.419 C 
HETATM   16  F   UNL     1     -42.319  55.290 -49.412  1.00  0.00    -0.166 F 
HETATM   17  F   UNL     1     -44.145  56.014 -50.324  1.00  0.00    -0.166 F 
HETATM   18  F   UNL     1     -42.787  54.750 -51.470  1.00  0.00    -0.166 F 
ENDBRANCH  14  15
ENDBRANCH   8   9
ENDBRANCH   4   8
BRANCH   1  19
HETATM   19  C   UNL     1     -40.500  53.143 -53.707  1.00  0.00    -0.024 A 
HETATM   20  C   UNL     1     -40.119  51.802 -53.323  1.00  0.00     0.018 A 
HETATM   21  C   UNL     1     -39.884  51.826 -51.949  1.00  0.00     0.138 A 
HETATM   22  C   UNL     1     -39.954  50.547 -53.945  1.00  0.00     0.017 A 
HETATM   23  N   UNL     1     -39.582  50.797 -51.139  1.00  0.00    -0.242 NA
HETATM   24  N   UNL     1     -39.988  53.111 -51.516  1.00  0.00    -0.350 N 
HETATM   25  C   UNL     1     -39.468  49.621 -51.786  1.00  0.00     0.119 A 
HETATM   26  C   UNL     1     -39.629  49.444 -53.150  1.00  0.00     0.020 A 
HETATM   27  H   UNL     1     -39.816  53.394 -50.561  1.00  0.00     0.166 HD
HETATM   28  C   UNL     1     -40.341  53.917 -52.562  1.00  0.00     0.098 A 
ENDBRANCH   1  19
TORSDOF 4
ENDMDL
MODEL 7
REMARK VINA RESULT:      -7.8      3.275      7.505
REMARK  4 active torsions:
REMARK  status: ('A' for Active; 'I' for Inactive)
REMARK    1  A    between atoms: C_10  and  C_11 
REMARK    2  A    between atoms: N_14  and  C_16 
REMARK    3  A    between atoms: C_16  and  C_17 
REMARK    4  A    between atoms: C_22  and  C_23 
ROOT
HETATM    1  C   UNL     1     -44.313  57.918 -53.833  1.00  0.00     0.024 C 
HETATM    2  C   UNL     1     -43.828  57.734 -52.381  1.00  0.00     0.037 C 
HETATM    3  C   UNL     1     -42.401  57.204 -52.345  1.00  0.00     0.236 C 
HETATM    4  N   UNL     1     -42.322  55.875 -53.061  1.00  0.00    -0.066 N 
HETATM    5  H   UNL     1     -42.808  55.193 -52.458  1.00  0.00     0.280 HD
HETATM    6  C   UNL     1     -42.918  55.878 -54.439  1.00  0.00     0.236 C 
HETATM    7  C   UNL     1     -44.295  56.528 -54.471  1.00  0.00     0.037 C 
ENDROOT
BRANCH   4   8
HETATM    8  C   UNL     1     -40.885  55.355 -53.120  1.00  0.00     0.294 C 
BRANCH   8   9
HETATM    9  C   UNL     1     -40.629  54.148 -52.237  1.00  0.00     0.075 A 
HETATM   10  N   UNL     1     -40.594  54.401 -50.896  1.00  0.00    -0.263 NA
HETATM   11  C   UNL     1     -40.369  53.349 -50.072  1.00  0.00     0.117 A 
HETATM   12  C   UNL     1     -40.182  52.053 -50.518  1.00  0.00     0.020 A 
HETATM   13  C   UNL     1     -40.239  51.809 -51.886  1.00  0.00     0.020 A 
HETATM   14  C   UNL     1     -40.477  52.863 -52.773  1.00  0.00     0.074 A 
BRANCH  14  15
HETATM   15  C   UNL     1     -40.542  52.632 -54.257  1.00  0.00     0.419 C 
HETATM   16  F   UNL     1     -40.143  51.370 -54.581  1.00  0.00    -0.166 F 
HETATM   17  F   UNL     1     -41.817  52.737 -54.720  1.00  0.00    -0.166 F 
HETATM   18  F   UNL     1     -39.784  53.478 -54.993  1.00  0.00    -0.166 F 
ENDBRANCH  14  15
ENDBRANCH   8   9
ENDBRANCH   4   8
BRANCH   1  19
HETATM   19  C   UNL     1     -43.524  59.007 -54.548  1.00  0.00    -0.024 A 
HETATM   20  C   UNL     1     -43.027  59.091 -55.903  1.00  0.00     0.018 A 
HETATM   21  C   UNL     1     -42.261  60.254 -55.982  1.00  0.00     0.138 A 
HETATM   22  C   UNL     1     -43.099  58.331 -57.088  1.00  0.00     0.017 A 
HETATM   23  N   UNL     1     -41.538  60.705 -57.021  1.00  0.00    -0.242 NA
HETATM   24  N   UNL     1     -42.367  60.921 -54.801  1.00  0.00    -0.350 N 
HETATM   25  C   UNL     1     -41.623  59.921 -58.114  1.00  0.00     0.119 A 
HETATM   26  C   UNL     1     -42.374  58.760 -58.204  1.00  0.00     0.020 A 
HETATM   27  H   UNL     1     -41.937  61.819 -54.627  1.00  0.00     0.166 HD
HETATM   28  C   UNL     1     -43.135  60.194 -53.935  1.00  0.00     0.098 A 
ENDBRANCH   1  19
TORSDOF 4
ENDMDL
MODEL 8
REMARK VINA RESULT:      -7.8      1.293      2.132
REMARK  4 active torsions:
REMARK  status: ('A' for Active; 'I' for Inactive)
REMARK    1  A    between atoms: C_10  and  C_11 
REMARK    2  A    between atoms: N_14  and  C_16 
REMARK    3  A    between atoms: C_16  and  C_17 
REMARK    4  A    between atoms: C_22  and  C_23 
ROOT
HETATM    1  C   UNL     1     -42.812  54.512 -54.423  1.00  0.00     0.024 C 
HETATM    2  C   UNL     1     -42.055  55.256 -55.541  1.00  0.00     0.037 C 
HETATM    3  C   UNL     1     -41.113  56.302 -54.960  1.00  0.00     0.236 C 
HETATM    4  N   UNL     1     -41.892  57.307 -54.143  1.00  0.00    -0.066 N 
HETATM    5  H   UNL     1     -42.433  57.871 -54.818  1.00  0.00     0.280 HD
HETATM    6  C   UNL     1     -42.804  56.697 -53.117  1.00  0.00     0.236 C 
HETATM    7  C   UNL     1     -43.648  55.568 -53.695  1.00  0.00     0.037 C 
ENDROOT
BRANCH   4   8
HETATM    8  C   UNL     1     -40.967  58.323 -53.473  1.00  0.00     0.294 C 
BRANCH   8   9
HETATM    9  C   UNL     1     -41.694  59.476 -52.807  1.00  0.00     0.075 A 
HETATM   10  N   UNL     1     -42.494  60.216 -53.629  1.00  0.00    -0.263 NA
HETATM   11  C   UNL     1     -43.163  61.254 -53.072  1.00  0.00     0.117 A 
HETATM   12  C   UNL     1     -43.079  61.590 -51.733  1.00  0.00     0.020 A 
HETATM   13  C   UNL     1     -42.275  60.814 -50.905  1.00  0.00     0.020 A 
HETATM   14  C   UNL     1     -41.572  59.727 -51.435  1.00  0.00     0.074 A 
BRANCH  14  15
HETATM   15  C   UNL     1     -40.692  58.872 -50.566  1.00  0.00     0.419 C 
HETATM   16  F   UNL     1     -39.387  58.952 -50.951  1.00  0.00    -0.166 F 
HETATM   17  F   UNL     1     -40.713  59.292 -49.273  1.00  0.00    -0.166 F 
HETATM   18  F   UNL     1     -41.013  57.557 -50.559  1.00  0.00    -0.166 F 
ENDBRANCH  14  15
ENDBRANCH   8   9
ENDBRANCH   4   8
BRANCH   1  19
HETATM   19  C   UNL     1     -41.864  53.683 -53.567  1.00  0.00    -0.024 A 
HETATM   20  C   UNL     1     -41.612  53.689 -52.143  1.00  0.00     0.018 A 
HETATM   21  C   UNL     1     -40.551  52.813 -51.916  1.00  0.00     0.138 A 
HETATM   22  C   UNL     1     -42.123  54.332 -50.997  1.00  0.00     0.017 A 
HETATM   23  N   UNL     1     -39.919  52.555 -50.759  1.00  0.00    -0.242 NA
HETATM   24  N   UNL     1     -40.235  52.204 -53.091  1.00  0.00    -0.350 N 
HETATM   25  C   UNL     1     -40.432  53.221 -49.707  1.00  0.00     0.119 A 
HETATM   26  C   UNL     1     -41.509  54.091 -49.764  1.00  0.00     0.020 A 
HETATM   27  H   UNL     1     -39.525  51.490 -53.176  1.00  0.00     0.166 HD
HETATM   28  C   UNL     1     -41.026  52.703 -54.089  1.00  0.00     0.098 A 
ENDBRANCH   1  19
TORSDOF 4
ENDMDL
MODEL 9
REMARK VINA RESULT:      -7.8      2.026      2.562
REMARK  4 active torsions:
REMARK  status: ('A' for Active; 'I' for Inactive)
REMARK    1  A    between atoms: C_10  and  C_11 
REMARK    2  A    between atoms: N_14  and  C_16 
REMARK    3  A    between atoms: C_16  and  C_17 
REMARK    4  A    between atoms: C_22  and  C_23 
ROOT
HETATM    1  C   UNL     1     -40.692  53.970 -54.694  1.00  0.00     0.024 C 
HETATM    2  C   UNL     1     -40.434  55.489 -54.644  1.00  0.00     0.037 C 
HETATM    3  C   UNL     1     -41.407  56.177 -53.696  1.00  0.00     0.236 C 
HETATM    4  N   UNL     1     -42.830  55.936 -54.147  1.00  0.00    -0.066 N 
HETATM    5  H   UNL     1     -42.958  56.490 -55.009  1.00  0.00     0.280 HD
HETATM    6  C   UNL     1     -43.165  54.493 -54.394  1.00  0.00     0.236 C 
HETATM    7  C   UNL     1     -42.110  53.793 -55.242  1.00  0.00     0.037 C 
ENDROOT
BRANCH   4   8
HETATM    8  C   UNL     1     -43.838  56.540 -53.169  1.00  0.00     0.294 C 
BRANCH   8   9
HETATM    9  C   UNL     1     -44.379  57.891 -53.595  1.00  0.00     0.075 A 
HETATM   10  N   UNL     1     -44.712  57.998 -54.915  1.00  0.00    -0.263 NA
HETATM   11  C   UNL     1     -45.201  59.189 -55.337  1.00  0.00     0.117 A 
HETATM   12  C   UNL     1     -45.381  60.281 -54.507  1.00  0.00     0.020 A 
HETATM   13  C   UNL     1     -45.055  60.150 -53.162  1.00  0.00     0.020 A 
HETATM   14  C   UNL     1     -44.554  58.936 -52.680  1.00  0.00     0.074 A 
BRANCH  14  15
HETATM   15  C   UNL     1     -44.190  58.764 -51.231  1.00  0.00     0.419 C 
HETATM   16  F   UNL     1     -44.430  59.902 -50.521  1.00  0.00    -0.166 F 
HETATM   17  F   UNL     1     -44.949  57.803 -50.640  1.00  0.00    -0.166 F 
HETATM   18  F   UNL     1     -42.896  58.436 -51.011  1.00  0.00    -0.166 F 
ENDBRANCH  14  15
ENDBRANCH   8   9
ENDBRANCH   4   8
BRANCH   1  19
HETATM   19  C   UNL     1     -40.390  53.310 -53.355  1.00  0.00    -0.024 A 
HETATM   20  C   UNL     1     -40.048  51.947 -53.018  1.00  0.00     0.018 A 
HETATM   21  C   UNL     1     -40.006  51.871 -51.627  1.00  0.00     0.138 A 
HETATM   22  C   UNL     1     -39.781  50.742 -53.699  1.00  0.00     0.017 A 
HETATM   23  N   UNL     1     -39.806  50.787 -50.859  1.00  0.00    -0.242 NA
HETATM   24  N   UNL     1     -40.187  53.121 -51.121  1.00  0.00    -0.350 N 
HETATM   25  C   UNL     1     -39.586  49.662 -51.565  1.00  0.00     0.119 A 
HETATM   26  C   UNL     1     -39.554  49.584 -52.948  1.00  0.00     0.020 A 
HETATM   27  H   UNL     1     -40.153  53.334 -50.134  1.00  0.00     0.166 HD
HETATM   28  C   UNL     1     -40.403  54.000 -52.146  1.00  0.00     0.098 A 
ENDBRANCH   1  19
TORSDOF 4
ENDMDL
MODEL 10
REMARK VINA RESULT:      -7.7      3.183      7.760
REMARK  4 active torsions:
REMARK  status: ('A' for Active; 'I' for Inactive)
REMARK    1  A    between atoms: C_10  and  C_11 
REMARK    2  A    between atoms: N_14  and  C_16 
REMARK    3  A    between atoms: C_16  and  C_17 
REMARK    4  A    between atoms: C_22  and  C_23 
ROOT
HETATM    1  C   UNL     1     -43.280  56.518 -51.511  1.00  0.00     0.024 C 
HETATM    2  C   UNL     1     -42.385  56.056 -50.343  1.00  0.00     0.037 C 
HETATM    3  C   UNL     1     -41.141  55.343 -50.857  1.00  0.00     0.236 C 
HETATM    4  N   UNL     1     -41.536  54.138 -51.680  1.00  0.00    -0.066 N 
HETATM    5  H   UNL     1     -41.909  53.443 -51.013  1.00  0.00     0.280 HD
HETATM    6  C   UNL     1     -42.541  54.426 -52.758  1.00  0.00     0.236 C 
HETATM    7  C   UNL     1     -43.716  55.248 -52.245  1.00  0.00     0.037 C 
ENDROOT
BRANCH   4   8
HETATM    8  C   UNL     1     -40.312  53.447 -52.284  1.00  0.00     0.294 C 
BRANCH   8   9
HETATM    9  C   UNL     1     -40.129  52.011 -51.834  1.00  0.00     0.075 A 
HETATM   10  N   UNL     1     -40.160  51.812 -50.484  1.00  0.00    -0.263 NA
HETATM   11  C   UNL     1     -40.001  50.542 -50.040  1.00  0.00     0.117 A 
HETATM   12  C   UNL     1     -39.818  49.455 -50.876  1.00  0.00     0.020 A 
HETATM   13  C   UNL     1     -39.808  49.672 -52.250  1.00  0.00     0.020 A 
HETATM   14  C   UNL     1     -39.976  50.966 -52.753  1.00  0.00     0.074 A 
BRANCH  14  15
HETATM   15  C   UNL     1     -39.966  51.232 -54.233  1.00  0.00     0.419 C 
HETATM   16  F   UNL     1     -41.217  51.513 -54.695  1.00  0.00    -0.166 F 
HETATM   17  F   UNL     1     -39.217  52.327 -54.534  1.00  0.00    -0.166 F 
HETATM   18  F   UNL     1     -39.495  50.212 -54.987  1.00  0.00    -0.166 F 
ENDBRANCH  14  15
ENDBRANCH   8   9
ENDBRANCH   4   8
BRANCH   1  19
HETATM   19  C   UNL     1     -42.592  57.588 -52.348  1.00  0.00    -0.024 A 
HETATM   20  C   UNL     1     -42.792  58.002 -53.719  1.00  0.00     0.018 A 
HETATM   21  C   UNL     1     -41.800  58.938 -54.008  1.00  0.00     0.138 A 
HETATM   22  C   UNL     1     -43.671  57.702 -54.780  1.00  0.00     0.017 A 
HETATM   23  N   UNL     1     -41.541  59.540 -55.182  1.00  0.00    -0.242 NA
HETATM   24  N   UNL     1     -41.100  59.191 -52.869  1.00  0.00    -0.350 N 
HETATM   25  C   UNL     1     -42.395  59.191 -56.163  1.00  0.00     0.119 A 
HETATM   26  C   UNL     1     -43.454  58.309 -56.021  1.00  0.00     0.020 A 
HETATM   27  H   UNL     1     -40.355  59.871 -52.812  1.00  0.00     0.166 HD
HETATM   28  C   UNL     1     -41.574  58.401 -51.859  1.00  0.00     0.098 A 
ENDBRANCH   1  19
TORSDOF 4
ENDMDL
