MODEL 1
REMARK VINA RESULT:      -6.9      0.000      0.000
REMARK  5 active torsions:
REMARK  status: ('A' for Active; 'I' for Inactive)
REMARK    1  A    between atoms: C_2  and  N_3 
REMARK    2  A    between atoms: N_3  and  C_6 
REMARK    3  A    between atoms: C_6  and  C_7 
REMARK    4  A    between atoms: C_8  and  N_9 
REMARK       I    between atoms: N_9  and  C_10 
REMARK    5  A    between atoms: C_10  and  C_11 
ROOT
HETATM    1  N   UNL     1     -41.408  54.325 -53.569  1.00  0.00    -0.326 N 
HETATM    2  C   UNL     1     -42.579  54.876 -53.093  1.00  0.00     0.231 C 
HETATM    3  O   UNL     1     -43.264  54.377 -52.203  1.00  0.00    -0.272 OA
HETATM    4  H   UNL     1     -41.018  54.815 -54.370  1.00  0.00     0.169 HD
ENDROOT
BRANCH   1   5
HETATM    5  C   UNL     1     -40.735  53.113 -53.252  1.00  0.00     0.042 A 
HETATM    6  C   UNL     1     -40.104  52.724 -52.049  1.00  0.00    -0.006 A 
HETATM    7  C   UNL     1     -39.551  51.418 -51.971  1.00  0.00     0.011 A 
HETATM    8  C   UNL     1     -39.586  50.531 -53.044  1.00  0.00     0.001 A 
HETATM    9  C   UNL     1     -40.175  50.926 -54.229  1.00  0.00     0.002 A 
HETATM   10  C   UNL     1     -40.737  52.198 -54.329  1.00  0.00     0.030 A 
BRANCH   6  11
HETATM   11  C   UNL     1     -39.910  53.560 -50.809  1.00  0.00     0.273 C 
BRANCH  11  12
HETATM   12  N   UNL     1     -41.135  53.633 -49.970  1.00  0.00    -0.072 N 
HETATM   13  H   UNL     1     -41.273  52.763 -49.444  1.00  0.00     0.277 HD
HETATM   14  H   UNL     1     -41.900  53.676 -50.671  1.00  0.00     0.277 HD
BRANCH  12  15
HETATM   15  C   UNL     1     -41.267  54.838 -49.116  1.00  0.00     0.228 C 
HETATM   16  C   UNL     1     -41.102  56.070 -49.983  1.00  0.00     0.034 C 
ENDBRANCH  12  15
ENDBRANCH  11  12
ENDBRANCH   6  11
ENDBRANCH   1   5
BRANCH   2  17
HETATM   17  C   UNL     1     -43.035  56.126 -53.862  1.00  0.00     0.122 C 
HETATM   18  C   UNL     1     -43.425  57.220 -52.892  1.00  0.00    -0.028 A 
HETATM   19  C   UNL     1     -42.403  58.142 -52.630  1.00  0.00     0.007 A 
HETATM   20  C   UNL     1     -44.644  57.324 -52.227  1.00  0.00     0.009 A 
HETATM   21  C   UNL     1     -42.564  59.150 -51.694  1.00  0.00     0.019 A 
HETATM   22  S   UNL     1     -40.968  57.860 -53.623  1.00  0.00    -0.128 SA
HETATM   23  C   UNL     1     -43.781  59.248 -51.018  1.00  0.00     0.001 A 
HETATM   24  C   UNL     1     -44.817  58.344 -51.290  1.00  0.00     0.001 A 
HETATM   25  C   UNL     1     -41.878  56.704 -54.699  1.00  0.00     0.098 C 
ENDBRANCH   2  17
TORSDOF 5
ENDMDL
MODEL 2
REMARK VINA RESULT:      -6.8      3.535      4.947
REMARK  5 active torsions:
REMARK  status: ('A' for Active; 'I' for Inactive)
REMARK    1  A    between atoms: C_2  and  N_3 
REMARK    2  A    between atoms: N_3  and  C_6 
REMARK    3  A    between atoms: C_6  and  C_7 
REMARK    4  A    between atoms: C_8  and  N_9 
REMARK       I    between atoms: N_9  and  C_10 
REMARK    5  A    between atoms: C_10  and  C_11 
ROOT
HETATM    1  N   UNL     1     -41.317  55.839 -55.635  1.00  0.00    -0.326 N 
HETATM    2  C   UNL     1     -42.516  56.397 -56.026  1.00  0.00     0.231 C 
HETATM    3  O   UNL     1     -43.594  56.165 -55.485  1.00  0.00    -0.272 OA
HETATM    4  H   UNL     1     -40.538  56.063 -56.249  1.00  0.00     0.169 HD
ENDROOT
BRANCH   1   5
HETATM    5  C   UNL     1     -41.002  54.883 -54.631  1.00  0.00     0.042 A 
HETATM    6  C   UNL     1     -41.186  54.955 -53.232  1.00  0.00    -0.006 A 
HETATM    7  C   UNL     1     -40.837  53.822 -52.448  1.00  0.00     0.011 A 
HETATM    8  C   UNL     1     -40.298  52.668 -53.009  1.00  0.00     0.001 A 
HETATM    9  C   UNL     1     -40.089  52.612 -54.373  1.00  0.00     0.002 A 
HETATM   10  C   UNL     1     -40.434  53.705 -55.168  1.00  0.00     0.030 A 
BRANCH   6  11
HETATM   11  C   UNL     1     -41.692  56.133 -52.439  1.00  0.00     0.273 C 
BRANCH  11  12
HETATM   12  N   UNL     1     -43.175  56.148 -52.320  1.00  0.00    -0.072 N 
HETATM   13  H   UNL     1     -43.601  55.456 -52.944  1.00  0.00     0.277 HD
HETATM   14  H   UNL     1     -43.432  57.081 -52.697  1.00  0.00     0.277 HD
BRANCH  12  15
HETATM   15  C   UNL     1     -43.716  56.079 -50.941  1.00  0.00     0.228 C 
HETATM   16  C   UNL     1     -43.894  54.623 -50.560  1.00  0.00     0.034 C 
ENDBRANCH  12  15
ENDBRANCH  11  12
ENDBRANCH   6  11
ENDBRANCH   1   5
BRANCH   2  17
HETATM   17  C   UNL     1     -42.415  57.257 -57.296  1.00  0.00     0.122 C 
HETATM   18  C   UNL     1     -43.375  56.745 -58.348  1.00  0.00    -0.028 A 
HETATM   19  C   UNL     1     -44.604  57.416 -58.374  1.00  0.00     0.007 A 
HETATM   20  C   UNL     1     -43.154  55.664 -59.199  1.00  0.00     0.009 A 
HETATM   21  C   UNL     1     -45.630  57.011 -59.213  1.00  0.00     0.019 A 
HETATM   22  S   UNL     1     -44.649  58.787 -57.259  1.00  0.00    -0.128 SA
HETATM   23  C   UNL     1     -45.413  55.921 -60.057  1.00  0.00     0.001 A 
HETATM   24  C   UNL     1     -44.179  55.258 -60.054  1.00  0.00     0.001 A 
HETATM   25  C   UNL     1     -42.845  58.708 -57.010  1.00  0.00     0.098 C 
ENDBRANCH   2  17
TORSDOF 5
ENDMDL
MODEL 3
REMARK VINA RESULT:      -6.7      4.109      7.572
REMARK  5 active torsions:
REMARK  status: ('A' for Active; 'I' for Inactive)
REMARK    1  A    between atoms: C_2  and  N_3 
REMARK    2  A    between atoms: N_3  and  C_6 
REMARK    3  A    between atoms: C_6  and  C_7 
REMARK    4  A    between atoms: C_8  and  N_9 
REMARK       I    between atoms: N_9  and  C_10 
REMARK    5  A    between atoms: C_10  and  C_11 
ROOT
HETATM    1  N   UNL     1     -43.184  55.693 -56.802  1.00  0.00    -0.326 N 
HETATM    2  C   UNL     1     -42.364  55.244 -55.787  1.00  0.00     0.231 C 
HETATM    3  O   UNL     1     -41.184  55.559 -55.665  1.00  0.00    -0.272 OA
HETATM    4  H   UNL     1     -44.105  55.261 -56.809  1.00  0.00     0.169 HD
ENDROOT
BRANCH   1   5
HETATM    5  C   UNL     1     -42.928  56.521 -57.929  1.00  0.00     0.042 A 
HETATM    6  C   UNL     1     -43.247  56.311 -59.289  1.00  0.00    -0.006 A 
HETATM    7  C   UNL     1     -42.929  57.336 -60.221  1.00  0.00     0.011 A 
HETATM    8  C   UNL     1     -42.292  58.514 -59.841  1.00  0.00     0.001 A 
HETATM    9  C   UNL     1     -41.953  58.703 -58.515  1.00  0.00     0.002 A 
HETATM   10  C   UNL     1     -42.265  57.719 -57.577  1.00  0.00     0.030 A 
BRANCH   6  11
HETATM   11  C   UNL     1     -43.873  55.083 -59.900  1.00  0.00     0.273 C 
BRANCH  11  12
HETATM   12  N   UNL     1     -45.328  54.978 -59.611  1.00  0.00    -0.072 N 
HETATM   13  H   UNL     1     -45.511  55.072 -58.606  1.00  0.00     0.277 HD
HETATM   14  H   UNL     1     -45.547  53.993 -59.858  1.00  0.00     0.277 HD
BRANCH  12  15
HETATM   15  C   UNL     1     -46.216  55.835 -60.431  1.00  0.00     0.228 C 
HETATM   16  C   UNL     1     -46.824  56.901 -59.541  1.00  0.00     0.034 C 
ENDBRANCH  12  15
ENDBRANCH  11  12
ENDBRANCH   6  11
ENDBRANCH   1   5
BRANCH   2  17
HETATM   17  C   UNL     1     -43.025  54.202 -54.871  1.00  0.00     0.122 C 
HETATM   18  C   UNL     1     -41.978  53.527 -54.012  1.00  0.00    -0.028 A 
HETATM   19  C   UNL     1     -41.835  54.090 -52.738  1.00  0.00     0.007 A 
HETATM   20  C   UNL     1     -41.146  52.483 -54.410  1.00  0.00     0.009 A 
HETATM   21  C   UNL     1     -40.855  53.651 -51.861  1.00  0.00     0.019 A 
HETATM   22  S   UNL     1     -43.026  55.357 -52.421  1.00  0.00    -0.128 SA
HETATM   23  C   UNL     1     -40.014  52.613 -52.264  1.00  0.00     0.001 A 
HETATM   24  C   UNL     1     -40.165  52.028 -53.528  1.00  0.00     0.001 A 
HETATM   25  C   UNL     1     -43.999  54.879 -53.887  1.00  0.00     0.098 C 
ENDBRANCH   2  17
TORSDOF 5
ENDMDL
MODEL 4
REMARK VINA RESULT:      -6.7      1.651      3.480
REMARK  5 active torsions:
REMARK  status: ('A' for Active; 'I' for Inactive)
REMARK    1  A    between atoms: C_2  and  N_3 
REMARK    2  A    between atoms: N_3  and  C_6 
REMARK    3  A    between atoms: C_6  and  C_7 
REMARK    4  A    between atoms: C_8  and  N_9 
REMARK       I    between atoms: N_9  and  C_10 
REMARK    5  A    between atoms: C_10  and  C_11 
ROOT
HETATM    1  N   UNL     1     -41.314  54.636 -51.859  1.00  0.00    -0.326 N 
HETATM    2  C   UNL     1     -42.605  55.110 -51.747  1.00  0.00     0.231 C 
HETATM    3  O   UNL     1     -43.589  54.551 -52.225  1.00  0.00    -0.272 OA
HETATM    4  H   UNL     1     -40.610  55.268 -51.489  1.00  0.00     0.169 HD
ENDROOT
BRANCH   1   5
HETATM    5  C   UNL     1     -40.777  53.508 -52.537  1.00  0.00     0.042 A 
HETATM    6  C   UNL     1     -40.851  53.162 -53.905  1.00  0.00    -0.006 A 
HETATM    7  C   UNL     1     -40.167  51.995 -54.342  1.00  0.00     0.011 A 
HETATM    8  C   UNL     1     -39.460  51.177 -53.467  1.00  0.00     0.001 A 
HETATM    9  C   UNL     1     -39.417  51.499 -52.124  1.00  0.00     0.002 A 
HETATM   10  C   UNL     1     -40.068  52.645 -51.670  1.00  0.00     0.030 A 
BRANCH   6  11
HETATM   11  C   UNL     1     -41.615  53.882 -54.987  1.00  0.00     0.273 C 
BRANCH  11  12
HETATM   12  N   UNL     1     -40.969  55.159 -55.393  1.00  0.00    -0.072 N 
HETATM   13  H   UNL     1     -40.274  55.001 -56.130  1.00  0.00     0.277 HD
HETATM   14  H   UNL     1     -40.438  55.434 -54.543  1.00  0.00     0.277 HD
BRANCH  12  15
HETATM   15  C   UNL     1     -41.886  56.279 -55.709  1.00  0.00     0.228 C 
HETATM   16  C   UNL     1     -43.312  55.824 -55.471  1.00  0.00     0.034 C 
ENDBRANCH  12  15
ENDBRANCH  11  12
ENDBRANCH   6  11
ENDBRANCH   1   5
BRANCH   2  17
HETATM   17  C   UNL     1     -42.704  56.485 -51.068  1.00  0.00     0.122 C 
HETATM   18  C   UNL     1     -42.139  57.556 -51.977  1.00  0.00    -0.028 A 
HETATM   19  C   UNL     1     -43.104  58.219 -52.745  1.00  0.00     0.007 A 
HETATM   20  C   UNL     1     -40.790  57.859 -52.140  1.00  0.00     0.009 A 
HETATM   21  C   UNL     1     -42.746  59.161 -53.696  1.00  0.00     0.019 A 
HETATM   22  S   UNL     1     -44.751  57.723 -52.337  1.00  0.00    -0.128 SA
HETATM   23  C   UNL     1     -41.393  59.457 -53.869  1.00  0.00     0.001 A 
HETATM   24  C   UNL     1     -40.422  58.815 -53.089  1.00  0.00     0.001 A 
HETATM   25  C   UNL     1     -44.175  56.873 -50.830  1.00  0.00     0.098 C 
ENDBRANCH   2  17
TORSDOF 5
ENDMDL
MODEL 5
REMARK VINA RESULT:      -6.5      3.389      6.131
REMARK  5 active torsions:
REMARK  status: ('A' for Active; 'I' for Inactive)
REMARK    1  A    between atoms: C_2  and  N_3 
REMARK    2  A    between atoms: N_3  and  C_6 
REMARK    3  A    between atoms: C_6  and  C_7 
REMARK    4  A    between atoms: C_8  and  N_9 
REMARK       I    between atoms: N_9  and  C_10 
REMARK    5  A    between atoms: C_10  and  C_11 
ROOT
HETATM    1  N   UNL     1     -42.107  55.935 -56.763  1.00  0.00    -0.326 N 
HETATM    2  C   UNL     1     -42.160  55.221 -55.584  1.00  0.00     0.231 C 
HETATM    3  O   UNL     1     -43.187  54.736 -55.117  1.00  0.00    -0.272 OA
HETATM    4  H   UNL     1     -41.197  56.346 -56.955  1.00  0.00     0.169 HD
ENDROOT
BRANCH   1   5
HETATM    5  C   UNL     1     -43.124  56.337 -57.672  1.00  0.00     0.042 A 
HETATM    6  C   UNL     1     -44.155  57.288 -57.503  1.00  0.00    -0.006 A 
HETATM    7  C   UNL     1     -45.015  57.550 -58.603  1.00  0.00     0.011 A 
HETATM    8  C   UNL     1     -44.892  56.882 -59.818  1.00  0.00     0.001 A 
HETATM    9  C   UNL     1     -43.903  55.929 -59.970  1.00  0.00     0.002 A 
HETATM   10  C   UNL     1     -43.037  55.662 -58.911  1.00  0.00     0.030 A 
BRANCH   6  11
HETATM   11  C   UNL     1     -44.486  58.061 -56.252  1.00  0.00     0.273 C 
BRANCH  11  12
HETATM   12  N   UNL     1     -45.095  57.208 -55.196  1.00  0.00    -0.072 N 
HETATM   13  H   UNL     1     -44.981  56.214 -55.416  1.00  0.00     0.277 HD
HETATM   14  H   UNL     1     -46.109  57.414 -55.283  1.00  0.00     0.277 HD
BRANCH  12  15
HETATM   15  C   UNL     1     -44.710  57.528 -53.801  1.00  0.00     0.228 C 
HETATM   16  C   UNL     1     -43.649  58.610 -53.824  1.00  0.00     0.034 C 
ENDBRANCH  12  15
ENDBRANCH  11  12
ENDBRANCH   6  11
ENDBRANCH   1   5
BRANCH   2  17
HETATM   17  C   UNL     1     -40.825  55.181 -54.823  1.00  0.00     0.122 C 
HETATM   18  C   UNL     1     -41.079  55.091 -53.333  1.00  0.00    -0.028 A 
HETATM   19  C   UNL     1     -41.044  53.786 -52.825  1.00  0.00     0.007 A 
HETATM   20  C   UNL     1     -41.396  56.157 -52.494  1.00  0.00     0.009 A 
HETATM   21  C   UNL     1     -41.348  53.520 -51.500  1.00  0.00     0.019 A 
HETATM   22  S   UNL     1     -40.565  52.600 -54.045  1.00  0.00    -0.128 SA
HETATM   23  C   UNL     1     -41.677  54.586 -50.662  1.00  0.00     0.001 A 
HETATM   24  C   UNL     1     -41.693  55.897 -51.155  1.00  0.00     0.001 A 
HETATM   25  C   UNL     1     -40.026  53.915 -55.186  1.00  0.00     0.098 C 
ENDBRANCH   2  17
TORSDOF 5
ENDMDL
MODEL 6
REMARK VINA RESULT:      -6.5      2.890      7.193
REMARK  5 active torsions:
REMARK  status: ('A' for Active; 'I' for Inactive)
REMARK    1  A    between atoms: C_2  and  N_3 
REMARK    2  A    between atoms: N_3  and  C_6 
REMARK    3  A    between atoms: C_6  and  C_7 
REMARK    4  A    between atoms: C_8  and  N_9 
REMARK       I    between atoms: N_9  and  C_10 
REMARK    5  A    between atoms: C_10  and  C_11 
ROOT
HETATM    1  N   UNL     1     -42.655  56.314 -54.438  1.00  0.00    -0.326 N 
HETATM    2  C   UNL     1     -41.963  55.139 -54.645  1.00  0.00     0.231 C 
HETATM    3  O   UNL     1     -41.050  55.010 -55.456  1.00  0.00    -0.272 OA
HETATM    4  H   UNL     1     -43.441  56.222 -53.800  1.00  0.00     0.169 HD
ENDROOT
BRANCH   1   5
HETATM    5  C   UNL     1     -42.571  57.585 -55.070  1.00  0.00     0.042 A 
HETATM    6  C   UNL     1     -42.988  57.975 -56.362  1.00  0.00    -0.006 A 
HETATM    7  C   UNL     1     -42.843  59.339 -56.733  1.00  0.00     0.011 A 
HETATM    8  C   UNL     1     -42.282  60.285 -55.881  1.00  0.00     0.001 A 
HETATM    9  C   UNL     1     -41.845  59.895 -54.630  1.00  0.00     0.002 A 
HETATM   10  C   UNL     1     -41.987  58.565 -54.235  1.00  0.00     0.030 A 
BRANCH   6  11
HETATM   11  C   UNL     1     -43.556  57.089 -57.443  1.00  0.00     0.273 C 
BRANCH  11  12
HETATM   12  N   UNL     1     -42.520  56.240 -58.090  1.00  0.00    -0.072 N 
HETATM   13  H   UNL     1     -42.362  55.381 -57.554  1.00  0.00     0.277 HD
HETATM   14  H   UNL     1     -41.656  56.808 -57.995  1.00  0.00     0.277 HD
BRANCH  12  15
HETATM   15  C   UNL     1     -42.706  55.980 -59.537  1.00  0.00     0.228 C 
HETATM   16  C   UNL     1     -43.950  55.136 -59.726  1.00  0.00     0.034 C 
ENDBRANCH  12  15
ENDBRANCH  11  12
ENDBRANCH   6  11
ENDBRANCH   1   5
BRANCH   2  17
HETATM   17  C   UNL     1     -42.518  53.945 -53.853  1.00  0.00     0.122 C 
HETATM   18  C   UNL     1     -41.385  53.043 -53.411  1.00  0.00    -0.028 A 
HETATM   19  C   UNL     1     -40.932  53.290 -52.109  1.00  0.00     0.007 A 
HETATM   20  C   UNL     1     -40.754  52.082 -54.198  1.00  0.00     0.009 A 
HETATM   21  C   UNL     1     -39.841  52.617 -51.585  1.00  0.00     0.019 A 
HETATM   22  S   UNL     1     -41.910  54.503 -51.273  1.00  0.00    -0.128 SA
HETATM   23  C   UNL     1     -39.200  51.663 -52.377  1.00  0.00     0.001 A 
HETATM   24  C   UNL     1     -39.660  51.393 -53.672  1.00  0.00     0.001 A 
HETATM   25  C   UNL     1     -43.202  54.419 -52.556  1.00  0.00     0.098 C 
ENDBRANCH   2  17
TORSDOF 5
ENDMDL
MODEL 7
REMARK VINA RESULT:      -6.4      3.043      6.643
REMARK  5 active torsions:
REMARK  status: ('A' for Active; 'I' for Inactive)
REMARK    1  A    between atoms: C_2  and  N_3 
REMARK    2  A    between atoms: N_3  and  C_6 
REMARK    3  A    between atoms: C_6  and  C_7 
REMARK    4  A    between atoms: C_8  and  N_9 
REMARK       I    between atoms: N_9  and  C_10 
REMARK    5  A    between atoms: C_10  and  C_11 
ROOT
HETATM    1  N   UNL     1     -42.986  55.430 -56.084  1.00  0.00    -0.326 N 
HETATM    2  C   UNL     1     -42.052  54.936 -55.198  1.00  0.00     0.231 C 
HETATM    3  O   UNL     1     -40.854  55.206 -55.237  1.00  0.00    -0.272 OA
HETATM    4  H   UNL     1     -43.915  55.032 -55.968  1.00  0.00     0.169 HD
ENDROOT
BRANCH   1   5
HETATM    5  C   UNL     1     -42.857  56.267 -57.226  1.00  0.00     0.042 A 
HETATM    6  C   UNL     1     -42.599  57.655 -57.298  1.00  0.00    -0.006 A 
HETATM    7  C   UNL     1     -42.456  58.247 -58.582  1.00  0.00     0.011 A 
HETATM    8  C   UNL     1     -42.590  57.513 -59.757  1.00  0.00     0.001 A 
HETATM    9  C   UNL     1     -42.873  56.163 -59.684  1.00  0.00     0.002 A 
HETATM   10  C   UNL     1     -43.007  55.554 -58.437  1.00  0.00     0.030 A 
BRANCH   6  11
HETATM   11  C   UNL     1     -42.486  58.622 -56.147  1.00  0.00     0.273 C 
BRANCH  11  12
HETATM   12  N   UNL     1     -43.761  59.340 -55.875  1.00  0.00    -0.072 N 
HETATM   13  H   UNL     1     -44.156  59.728 -56.737  1.00  0.00     0.277 HD
HETATM   14  H   UNL     1     -43.457  60.150 -55.300  1.00  0.00     0.277 HD
BRANCH  12  15
HETATM   15  C   UNL     1     -44.765  58.598 -55.075  1.00  0.00     0.228 C 
HETATM   16  C   UNL     1     -44.104  58.096 -53.807  1.00  0.00     0.034 C 
ENDBRANCH  12  15
ENDBRANCH  11  12
ENDBRANCH   6  11
ENDBRANCH   1   5
BRANCH   2  17
HETATM   17  C   UNL     1     -42.618  53.903 -54.211  1.00  0.00     0.122 C 
HETATM   18  C   UNL     1     -41.505  53.024 -53.682  1.00  0.00    -0.028 A 
HETATM   19  C   UNL     1     -40.982  53.443 -52.452  1.00  0.00     0.007 A 
HETATM   20  C   UNL     1     -40.951  51.927 -54.337  1.00  0.00     0.009 A 
HETATM   21  C   UNL     1     -39.897  52.805 -51.875  1.00  0.00     0.019 A 
HETATM   22  S   UNL     1     -41.868  54.813 -51.773  1.00  0.00    -0.128 SA
HETATM   23  C   UNL     1     -39.334  51.713 -52.536  1.00  0.00     0.001 A 
HETATM   24  C   UNL     1     -39.864  51.272 -53.756  1.00  0.00     0.001 A 
HETATM   25  C   UNL     1     -43.221  54.600 -52.976  1.00  0.00     0.098 C 
ENDBRANCH   2  17
TORSDOF 5
ENDMDL
MODEL 8
REMARK VINA RESULT:      -6.2     14.982     17.543
REMARK  5 active torsions:
REMARK  status: ('A' for Active; 'I' for Inactive)
REMARK    1  A    between atoms: C_2  and  N_3 
REMARK    2  A    between atoms: N_3  and  C_6 
REMARK    3  A    between atoms: C_6  and  C_7 
REMARK    4  A    between atoms: C_8  and  N_9 
REMARK       I    between atoms: N_9  and  C_10 
REMARK    5  A    between atoms: C_10  and  C_11 
ROOT
HETATM    1  N   UNL     1     -33.721  41.050 -55.268  1.00  0.00    -0.326 N 
HETATM    2  C   UNL     1     -33.289  39.826 -54.801  1.00  0.00     0.231 C 
HETATM    3  O   UNL     1     -33.961  38.798 -54.835  1.00  0.00    -0.272 OA
HETATM    4  H   UNL     1     -33.078  41.814 -55.077  1.00  0.00     0.169 HD
ENDROOT
BRANCH   1   5
HETATM    5  C   UNL     1     -34.963  41.466 -55.819  1.00  0.00     0.042 A 
HETATM    6  C   UNL     1     -36.109  41.977 -55.169  1.00  0.00    -0.006 A 
HETATM    7  C   UNL     1     -37.213  42.381 -55.968  1.00  0.00     0.011 A 
HETATM    8  C   UNL     1     -37.209  42.260 -57.355  1.00  0.00     0.001 A 
HETATM    9  C   UNL     1     -36.100  41.731 -57.986  1.00  0.00     0.002 A 
HETATM   10  C   UNL     1     -34.998  41.338 -57.227  1.00  0.00     0.030 A 
BRANCH   6  11
HETATM   11  C   UNL     1     -36.326  42.122 -53.684  1.00  0.00     0.273 C 
BRANCH  11  12
HETATM   12  N   UNL     1     -37.631  41.564 -53.239  1.00  0.00    -0.072 N 
HETATM   13  H   UNL     1     -38.154  41.176 -54.030  1.00  0.00     0.277 HD
HETATM   14  H   UNL     1     -38.153  42.405 -52.925  1.00  0.00     0.277 HD
BRANCH  12  15
HETATM   15  C   UNL     1     -37.579  40.636 -52.084  1.00  0.00     0.228 C 
HETATM   16  C   UNL     1     -36.162  40.118 -51.938  1.00  0.00     0.034 C 
ENDBRANCH  12  15
ENDBRANCH  11  12
ENDBRANCH   6  11
ENDBRANCH   1   5
BRANCH   2  17
HETATM   17  C   UNL     1     -31.917  39.875 -54.109  1.00  0.00     0.122 C 
HETATM   18  C   UNL     1     -32.084  39.712 -52.613  1.00  0.00    -0.028 A 
HETATM   19  C   UNL     1     -31.911  38.398 -52.160  1.00  0.00     0.007 A 
HETATM   20  C   UNL     1     -32.445  40.717 -51.718  1.00  0.00     0.009 A 
HETATM   21  C   UNL     1     -32.121  38.060 -50.833  1.00  0.00     0.019 A 
HETATM   22  S   UNL     1     -31.399  37.301 -53.447  1.00  0.00    -0.128 SA
HETATM   23  C   UNL     1     -32.495  39.064 -49.937  1.00  0.00     0.001 A 
HETATM   24  C   UNL     1     -32.648  40.385 -50.378  1.00  0.00     0.001 A 
HETATM   25  C   UNL     1     -31.034  38.697 -54.561  1.00  0.00     0.098 C 
ENDBRANCH   2  17
TORSDOF 5
ENDMDL
MODEL 9
REMARK VINA RESULT:      -6.1      3.372      5.519
REMARK  5 active torsions:
REMARK  status: ('A' for Active; 'I' for Inactive)
REMARK    1  A    between atoms: C_2  and  N_3 
REMARK    2  A    between atoms: N_3  and  C_6 
REMARK    3  A    between atoms: C_6  and  C_7 
REMARK    4  A    between atoms: C_8  and  N_9 
REMARK       I    between atoms: N_9  and  C_10 
REMARK    5  A    between atoms: C_10  and  C_11 
ROOT
HETATM    1  N   UNL     1     -41.540  56.359 -54.952  1.00  0.00    -0.326 N 
HETATM    2  C   UNL     1     -42.662  56.525 -55.738  1.00  0.00     0.231 C 
HETATM    3  O   UNL     1     -43.779  56.113 -55.440  1.00  0.00    -0.272 OA
HETATM    4  H   UNL     1     -40.679  56.677 -55.390  1.00  0.00     0.169 HD
ENDROOT
BRANCH   1   5
HETATM    5  C   UNL     1     -41.343  55.682 -53.717  1.00  0.00     0.042 A 
HETATM    6  C   UNL     1     -40.788  54.406 -53.471  1.00  0.00    -0.006 A 
HETATM    7  C   UNL     1     -40.646  53.983 -52.122  1.00  0.00     0.011 A 
HETATM    8  C   UNL     1     -41.061  54.768 -51.050  1.00  0.00     0.001 A 
HETATM    9  C   UNL     1     -41.632  56.001 -51.294  1.00  0.00     0.002 A 
HETATM   10  C   UNL     1     -41.772  56.447 -52.609  1.00  0.00     0.030 A 
BRANCH   6  11
HETATM   11  C   UNL     1     -40.344  53.392 -54.495  1.00  0.00     0.273 C 
BRANCH  11  12
HETATM   12  N   UNL     1     -39.848  52.134 -53.876  1.00  0.00    -0.072 N 
HETATM   13  H   UNL     1     -39.749  52.237 -52.861  1.00  0.00     0.277 HD
HETATM   14  H   UNL     1     -38.886  52.046 -54.257  1.00  0.00     0.277 HD
BRANCH  12  15
HETATM   15  C   UNL     1     -40.572  50.896 -54.253  1.00  0.00     0.228 C 
HETATM   16  C   UNL     1     -39.559  49.811 -54.558  1.00  0.00     0.034 C 
ENDBRANCH  12  15
ENDBRANCH  11  12
ENDBRANCH   6  11
ENDBRANCH   1   5
BRANCH   2  17
HETATM   17  C   UNL     1     -42.373  57.175 -57.100  1.00  0.00     0.122 C 
HETATM   18  C   UNL     1     -43.385  56.708 -58.124  1.00  0.00    -0.028 A 
HETATM   19  C   UNL     1     -44.469  57.578 -58.294  1.00  0.00     0.007 A 
HETATM   20  C   UNL     1     -43.345  55.501 -58.818  1.00  0.00     0.009 A 
HETATM   21  C   UNL     1     -45.530  57.255 -59.124  1.00  0.00     0.019 A 
HETATM   22  S   UNL     1     -44.288  59.072 -57.366  1.00  0.00    -0.128 SA
HETATM   23  C   UNL     1     -45.497  56.041 -59.811  1.00  0.00     0.001 A 
HETATM   24  C   UNL     1     -44.406  55.173 -59.664  1.00  0.00     0.001 A 
HETATM   25  C   UNL     1     -42.536  58.705 -57.022  1.00  0.00     0.098 C 
ENDBRANCH   2  17
TORSDOF 5
ENDMDL
MODEL 10
REMARK VINA RESULT:      -5.9      1.788      3.733
REMARK  5 active torsions:
REMARK  status: ('A' for Active; 'I' for Inactive)
REMARK    1  A    between atoms: C_2  and  N_3 
REMARK    2  A    between atoms: N_3  and  C_6 
REMARK    3  A    between atoms: C_6  and  C_7 
REMARK    4  A    between atoms: C_8  and  N_9 
REMARK       I    between atoms: N_9  and  C_10 
REMARK    5  A    between atoms: C_10  and  C_11 
ROOT
HETATM    1  N   UNL     1     -41.506  56.547 -51.449  1.00  0.00    -0.326 N 
HETATM    2  C   UNL     1     -42.639  56.942 -52.130  1.00  0.00     0.231 C 
HETATM    3  O   UNL     1     -43.618  56.223 -52.316  1.00  0.00    -0.272 OA
HETATM    4  H   UNL     1     -40.755  57.231 -51.469  1.00  0.00     0.169 HD
ENDROOT
BRANCH   1   5
HETATM    5  C   UNL     1     -41.139  55.304 -50.865  1.00  0.00     0.042 A 
HETATM    6  C   UNL     1     -40.758  54.096 -51.490  1.00  0.00    -0.006 A 
HETATM    7  C   UNL     1     -40.376  53.002 -50.666  1.00  0.00     0.011 A 
HETATM    8  C   UNL     1     -40.396  53.078 -49.276  1.00  0.00     0.001 A 
HETATM    9  C   UNL     1     -40.800  54.250 -48.667  1.00  0.00     0.002 A 
HETATM   10  C   UNL     1     -41.168  55.343 -49.452  1.00  0.00     0.030 A 
BRANCH   6  11
HETATM   11  C   UNL     1     -40.735  53.802 -52.969  1.00  0.00     0.273 C 
BRANCH  11  12
HETATM   12  N   UNL     1     -40.033  52.530 -53.289  1.00  0.00    -0.072 N 
HETATM   13  H   UNL     1     -39.787  52.021 -52.434  1.00  0.00     0.277 HD
HETATM   14  H   UNL     1     -39.138  52.854 -53.706  1.00  0.00     0.277 HD
BRANCH  12  15
HETATM   15  C   UNL     1     -40.687  51.664 -54.298  1.00  0.00     0.228 C 
HETATM   16  C   UNL     1     -40.052  50.288 -54.245  1.00  0.00     0.034 C 
ENDBRANCH  12  15
ENDBRANCH  11  12
ENDBRANCH   6  11
ENDBRANCH   1   5
BRANCH   2  17
HETATM   17  C   UNL     1     -42.529  58.340 -52.758  1.00  0.00     0.122 C 
HETATM   18  C   UNL     1     -43.678  59.210 -52.293  1.00  0.00    -0.028 A 
HETATM   19  C   UNL     1     -43.370  60.024 -51.196  1.00  0.00     0.007 A 
HETATM   20  C   UNL     1     -44.970  59.202 -52.813  1.00  0.00     0.009 A 
HETATM   21  C   UNL     1     -44.335  60.811 -50.588  1.00  0.00     0.019 A 
HETATM   22  S   UNL     1     -41.666  59.924 -50.737  1.00  0.00    -0.128 SA
HETATM   23  C   UNL     1     -45.632  60.794 -51.101  1.00  0.00     0.001 A 
HETATM   24  C   UNL     1     -45.945  60.000 -52.212  1.00  0.00     0.001 A 
HETATM   25  C   UNL     1     -41.249  59.053 -52.284  1.00  0.00     0.098 C 
ENDBRANCH   2  17
TORSDOF 5
ENDMDL
