MODEL 1
REMARK VINA RESULT:      -8.3      0.000      0.000
REMARK  4 active torsions:
REMARK  status: ('A' for Active; 'I' for Inactive)
REMARK    1  A    between atoms: C_5  and  C_6 
REMARK    2  A    between atoms: C_12  and  C_13 
REMARK    3  A    between atoms: C_13  and  N_14 
REMARK       I    between atoms: N_14  and  C_15 
REMARK       I    between atoms: C_15  and  N_16 
REMARK    4  A    between atoms: N_16  and  C_17 
ROOT
HETATM    1  C   UNL     1     -41.782  56.489 -50.523  1.00  0.00     0.168 C 
ENDROOT
BRANCH   1   2
HETATM    2  C   UNL     1     -41.199  57.453 -51.496  1.00  0.00     0.023 A 
HETATM    3  C   UNL     1     -40.670  58.717 -51.304  1.00  0.00     0.085 A 
HETATM    4  C   UNL     1     -40.455  59.597 -50.137  1.00  0.00     0.079 C 
HETATM    5  O   UNL     1     -40.284  59.235 -52.496  1.00  0.00    -0.217 OA
HETATM    6  N   UNL     1     -40.556  58.342 -53.503  1.00  0.00    -0.127 NA
HETATM    7  C   UNL     1     -41.095  57.263 -52.918  1.00  0.00     0.105 A 
BRANCH   7   8
HETATM    8  C   UNL     1     -41.519  56.123 -53.726  1.00  0.00    -0.004 A 
HETATM    9  C   UNL     1     -40.608  55.415 -54.520  1.00  0.00     0.014 A 
HETATM   10  C   UNL     1     -41.031  54.318 -55.275  1.00  0.00     0.001 A 
HETATM   11  C   UNL     1     -42.369  53.927 -55.252  1.00  0.00     0.000 A 
HETATM   12  C   UNL     1     -43.288  54.635 -54.480  1.00  0.00     0.001 A 
HETATM   13  C   UNL     1     -42.866  55.730 -53.721  1.00  0.00     0.014 A 
ENDBRANCH   7   8
ENDBRANCH   1   2
BRANCH   1  14
HETATM   14  N   UNL     1     -40.755  55.812 -49.764  1.00  0.00    -0.338 N 
HETATM   15  C   UNL     1     -40.184  54.591 -49.946  1.00  0.00     0.320 C 
HETATM   16  N   UNL     1     -40.833  53.742 -50.797  1.00  0.00    -0.309 N 
HETATM   17  O   UNL     1     -39.146  54.364 -49.335  1.00  0.00    -0.247 OA
HETATM   18  H   UNL     1     -41.798  53.952 -50.989  1.00  0.00     0.170 HD
HETATM   19  H   UNL     1     -40.194  56.387 -49.148  1.00  0.00     0.164 HD
BRANCH  16  20
HETATM   20  C   UNL     1     -40.374  52.497 -51.279  1.00  0.00     0.036 A 
HETATM   21  C   UNL     1     -40.038  52.253 -52.613  1.00  0.00     0.029 A 
HETATM   22  C   UNL     1     -39.606  50.985 -53.017  1.00  0.00     0.002 A 
HETATM   23  C   UNL     1     -39.515  49.948 -52.093  1.00  0.00     0.000 A 
HETATM   24  C   UNL     1     -39.855  50.176 -50.762  1.00  0.00     0.002 A 
HETATM   25  C   UNL     1     -40.282  51.444 -50.358  1.00  0.00     0.029 A 
ENDBRANCH  16  20
ENDBRANCH   1  14
TORSDOF 4
ENDMDL
MODEL 2
REMARK VINA RESULT:      -8.3      0.561      1.515
REMARK  4 active torsions:
REMARK  status: ('A' for Active; 'I' for Inactive)
REMARK    1  A    between atoms: C_5  and  C_6 
REMARK    2  A    between atoms: C_12  and  C_13 
REMARK    3  A    between atoms: C_13  and  N_14 
REMARK       I    between atoms: N_14  and  C_15 
REMARK       I    between atoms: C_15  and  N_16 
REMARK    4  A    between atoms: N_16  and  C_17 
ROOT
HETATM    1  C   UNL     1     -41.851  56.683 -50.579  1.00  0.00     0.168 C 
ENDROOT
BRANCH   1   2
HETATM    2  C   UNL     1     -41.235  57.579 -51.596  1.00  0.00     0.023 A 
HETATM    3  C   UNL     1     -40.544  58.768 -51.446  1.00  0.00     0.085 A 
HETATM    4  C   UNL     1     -40.131  59.604 -50.301  1.00  0.00     0.079 C 
HETATM    5  O   UNL     1     -40.194  59.247 -52.666  1.00  0.00    -0.217 OA
HETATM    6  N   UNL     1     -40.651  58.402 -53.647  1.00  0.00    -0.127 NA
HETATM    7  C   UNL     1     -41.269  57.392 -53.021  1.00  0.00     0.105 A 
BRANCH   7   8
HETATM    8  C   UNL     1     -41.890  56.318 -53.792  1.00  0.00    -0.004 A 
HETATM    9  C   UNL     1     -43.115  55.758 -53.405  1.00  0.00     0.014 A 
HETATM   10  C   UNL     1     -43.699  54.741 -54.164  1.00  0.00     0.001 A 
HETATM   11  C   UNL     1     -43.060  54.268 -55.309  1.00  0.00     0.000 A 
HETATM   12  C   UNL     1     -41.832  54.804 -55.693  1.00  0.00     0.001 A 
HETATM   13  C   UNL     1     -41.248  55.823 -54.937  1.00  0.00     0.014 A 
ENDBRANCH   7   8
ENDBRANCH   1   2
BRANCH   1  14
HETATM   14  N   UNL     1     -40.853  55.912 -49.873  1.00  0.00    -0.338 N 
HETATM   15  C   UNL     1     -40.287  54.713 -50.178  1.00  0.00     0.320 C 
HETATM   16  N   UNL     1     -40.918  53.974 -51.138  1.00  0.00    -0.309 N 
HETATM   17  O   UNL     1     -39.269  54.406 -49.568  1.00  0.00    -0.247 OA
HETATM   18  H   UNL     1     -41.875  54.217 -51.332  1.00  0.00     0.170 HD
HETATM   19  H   UNL     1     -40.306  56.407 -49.180  1.00  0.00     0.164 HD
BRANCH  16  20
HETATM   20  C   UNL     1     -40.456  52.787 -51.747  1.00  0.00     0.036 A 
HETATM   21  C   UNL     1     -40.011  51.669 -51.037  1.00  0.00     0.029 A 
HETATM   22  C   UNL     1     -39.552  50.534 -51.715  1.00  0.00     0.002 A 
HETATM   23  C   UNL     1     -39.525  50.511 -53.107  1.00  0.00     0.000 A 
HETATM   24  C   UNL     1     -39.957  51.622 -53.824  1.00  0.00     0.002 A 
HETATM   25  C   UNL     1     -40.421  52.754 -53.147  1.00  0.00     0.029 A 
ENDBRANCH  16  20
ENDBRANCH   1  14
TORSDOF 4
ENDMDL
MODEL 3
REMARK VINA RESULT:      -7.8      2.509      4.264
REMARK  4 active torsions:
REMARK  status: ('A' for Active; 'I' for Inactive)
REMARK    1  A    between atoms: C_5  and  C_6 
REMARK    2  A    between atoms: C_12  and  C_13 
REMARK    3  A    between atoms: C_13  and  N_14 
REMARK       I    between atoms: N_14  and  C_15 
REMARK       I    between atoms: C_15  and  N_16 
REMARK    4  A    between atoms: N_16  and  C_17 
ROOT
HETATM    1  C   UNL     1     -43.456  55.750 -54.851  1.00  0.00     0.168 C 
ENDROOT
BRANCH   1   2
HETATM    2  C   UNL     1     -44.040  56.898 -54.104  1.00  0.00     0.023 A 
HETATM    3  C   UNL     1     -44.844  57.937 -54.538  1.00  0.00     0.085 A 
HETATM    4  C   UNL     1     -45.443  58.331 -55.829  1.00  0.00     0.079 C 
HETATM    5  O   UNL     1     -45.107  58.771 -53.501  1.00  0.00    -0.217 OA
HETATM    6  N   UNL     1     -44.480  58.318 -52.367  1.00  0.00    -0.127 NA
HETATM    7  C   UNL     1     -43.844  57.189 -52.711  1.00  0.00     0.105 A 
BRANCH   7   8
HETATM    8  C   UNL     1     -43.056  56.459 -51.721  1.00  0.00    -0.004 A 
HETATM    9  C   UNL     1     -43.523  55.266 -51.155  1.00  0.00     0.014 A 
HETATM   10  C   UNL     1     -42.747  54.576 -50.220  1.00  0.00     0.001 A 
HETATM   11  C   UNL     1     -41.504  55.077 -49.835  1.00  0.00     0.000 A 
HETATM   12  C   UNL     1     -41.038  56.273 -50.378  1.00  0.00     0.001 A 
HETATM   13  C   UNL     1     -41.811  56.963 -51.315  1.00  0.00     0.014 A 
ENDBRANCH   7   8
ENDBRANCH   1   2
BRANCH   1  14
HETATM   14  N   UNL     1     -42.013  55.815 -54.885  1.00  0.00    -0.338 N 
HETATM   15  C   UNL     1     -41.080  54.893 -54.522  1.00  0.00     0.320 C 
HETATM   16  N   UNL     1     -41.526  53.849 -53.763  1.00  0.00    -0.309 N 
HETATM   17  O   UNL     1     -39.931  55.082 -54.907  1.00  0.00    -0.247 OA
HETATM   18  H   UNL     1     -42.407  53.980 -53.295  1.00  0.00     0.170 HD
HETATM   19  H   UNL     1     -41.606  56.532 -55.471  1.00  0.00     0.164 HD
BRANCH  16  20
HETATM   20  C   UNL     1     -40.808  52.690 -53.395  1.00  0.00     0.036 A 
HETATM   21  C   UNL     1     -40.174  52.523 -52.162  1.00  0.00     0.029 A 
HETATM   22  C   UNL     1     -39.467  51.349 -51.880  1.00  0.00     0.002 A 
HETATM   23  C   UNL     1     -39.383  50.336 -52.830  1.00  0.00     0.000 A 
HETATM   24  C   UNL     1     -40.004  50.493 -54.065  1.00  0.00     0.002 A 
HETATM   25  C   UNL     1     -40.713  51.664 -54.346  1.00  0.00     0.029 A 
ENDBRANCH  16  20
ENDBRANCH   1  14
TORSDOF 4
ENDMDL
MODEL 4
REMARK VINA RESULT:      -7.6      2.396      3.909
REMARK  4 active torsions:
REMARK  status: ('A' for Active; 'I' for Inactive)
REMARK    1  A    between atoms: C_5  and  C_6 
REMARK    2  A    between atoms: C_12  and  C_13 
REMARK    3  A    between atoms: C_13  and  N_14 
REMARK       I    between atoms: N_14  and  C_15 
REMARK       I    between atoms: C_15  and  N_16 
REMARK    4  A    between atoms: N_16  and  C_17 
ROOT
HETATM    1  C   UNL     1     -41.438  57.372 -54.130  1.00  0.00     0.168 C 
ENDROOT
BRANCH   1   2
HETATM    2  C   UNL     1     -42.185  58.287 -53.225  1.00  0.00     0.023 A 
HETATM    3  C   UNL     1     -42.627  59.583 -53.422  1.00  0.00     0.085 A 
HETATM    4  C   UNL     1     -42.570  60.553 -54.534  1.00  0.00     0.079 C 
HETATM    5  O   UNL     1     -43.240  60.030 -52.297  1.00  0.00    -0.217 OA
HETATM    6  N   UNL     1     -43.209  59.056 -51.330  1.00  0.00    -0.127 NA
HETATM    7  C   UNL     1     -42.588  58.000 -51.875  1.00  0.00     0.105 A 
BRANCH   7   8
HETATM    8  C   UNL     1     -42.374  56.787 -51.090  1.00  0.00    -0.004 A 
HETATM    9  C   UNL     1     -43.336  55.769 -51.046  1.00  0.00     0.014 A 
HETATM   10  C   UNL     1     -43.105  54.611 -50.300  1.00  0.00     0.001 A 
HETATM   11  C   UNL     1     -41.918  54.464 -49.583  1.00  0.00     0.000 A 
HETATM   12  C   UNL     1     -40.963  55.479 -49.605  1.00  0.00     0.001 A 
HETATM   13  C   UNL     1     -41.190  56.636 -50.353  1.00  0.00     0.014 A 
ENDBRANCH   7   8
ENDBRANCH   1   2
BRANCH   1  14
HETATM   14  N   UNL     1     -42.249  56.248 -54.539  1.00  0.00    -0.338 N 
HETATM   15  C   UNL     1     -42.076  54.914 -54.333  1.00  0.00     0.320 C 
HETATM   16  N   UNL     1     -40.835  54.523 -53.918  1.00  0.00    -0.309 N 
HETATM   17  O   UNL     1     -43.043  54.188 -54.537  1.00  0.00    -0.247 OA
HETATM   18  H   UNL     1     -40.085  55.176 -54.072  1.00  0.00     0.170 HD
HETATM   19  H   UNL     1     -43.202  56.452 -54.811  1.00  0.00     0.164 HD
BRANCH  16  20
HETATM   20  C   UNL     1     -40.442  53.238 -53.482  1.00  0.00     0.036 A 
HETATM   21  C   UNL     1     -40.192  52.910 -52.148  1.00  0.00     0.029 A 
HETATM   22  C   UNL     1     -39.790  51.617 -51.798  1.00  0.00     0.002 A 
HETATM   23  C   UNL     1     -39.627  50.643 -52.779  1.00  0.00     0.000 A 
HETATM   24  C   UNL     1     -39.866  50.960 -54.113  1.00  0.00     0.002 A 
HETATM   25  C   UNL     1     -40.271  52.251 -54.462  1.00  0.00     0.029 A 
ENDBRANCH  16  20
ENDBRANCH   1  14
TORSDOF 4
ENDMDL
MODEL 5
REMARK VINA RESULT:      -7.5      2.838      6.845
REMARK  4 active torsions:
REMARK  status: ('A' for Active; 'I' for Inactive)
REMARK    1  A    between atoms: C_5  and  C_6 
REMARK    2  A    between atoms: C_12  and  C_13 
REMARK    3  A    between atoms: C_13  and  N_14 
REMARK       I    between atoms: N_14  and  C_15 
REMARK       I    between atoms: C_15  and  N_16 
REMARK    4  A    between atoms: N_16  and  C_17 
ROOT
HETATM    1  C   UNL     1     -40.243  53.057 -54.228  1.00  0.00     0.168 C 
ENDROOT
BRANCH   1   2
HETATM    2  C   UNL     1     -40.005  51.959 -53.252  1.00  0.00     0.023 A 
HETATM    3  C   UNL     1     -39.640  50.640 -53.453  1.00  0.00     0.085 A 
HETATM    4  C   UNL     1     -39.336  49.804 -54.633  1.00  0.00     0.079 C 
HETATM    5  O   UNL     1     -39.570  50.000 -52.260  1.00  0.00    -0.217 OA
HETATM    6  N   UNL     1     -39.896  50.867 -51.246  1.00  0.00    -0.127 NA
HETATM    7  C   UNL     1     -40.149  52.049 -51.824  1.00  0.00     0.105 A 
BRANCH   7   8
HETATM    8  C   UNL     1     -40.548  53.195 -51.012  1.00  0.00    -0.004 A 
HETATM    9  C   UNL     1     -39.609  53.923 -50.270  1.00  0.00     0.014 A 
HETATM   10  C   UNL     1     -40.010  55.025 -49.509  1.00  0.00     0.001 A 
HETATM   11  C   UNL     1     -41.352  55.401 -49.475  1.00  0.00     0.000 A 
HETATM   12  C   UNL     1     -42.297  54.672 -50.193  1.00  0.00     0.001 A 
HETATM   13  C   UNL     1     -41.898  53.572 -50.957  1.00  0.00     0.014 A 
ENDBRANCH   7   8
ENDBRANCH   1   2
BRANCH   1  14
HETATM   14  N   UNL     1     -41.630  53.124 -54.628  1.00  0.00    -0.338 N 
HETATM   15  C   UNL     1     -42.497  54.173 -54.634  1.00  0.00     0.320 C 
HETATM   16  N   UNL     1     -42.119  55.272 -53.917  1.00  0.00    -0.309 N 
HETATM   17  O   UNL     1     -43.531  54.037 -55.278  1.00  0.00    -0.247 OA
HETATM   18  H   UNL     1     -41.403  55.131 -53.225  1.00  0.00     0.170 HD
HETATM   19  H   UNL     1     -41.971  52.368 -55.208  1.00  0.00     0.164 HD
BRANCH  16  20
HETATM   20  C   UNL     1     -42.748  56.536 -53.892  1.00  0.00     0.036 A 
HETATM   21  C   UNL     1     -42.506  57.547 -54.825  1.00  0.00     0.029 A 
HETATM   22  C   UNL     1     -43.158  58.780 -54.722  1.00  0.00     0.002 A 
HETATM   23  C   UNL     1     -44.052  59.016 -53.681  1.00  0.00     0.000 A 
HETATM   24  C   UNL     1     -44.296  58.019 -52.741  1.00  0.00     0.002 A 
HETATM   25  C   UNL     1     -43.648  56.786 -52.846  1.00  0.00     0.029 A 
ENDBRANCH  16  20
ENDBRANCH   1  14
TORSDOF 4
ENDMDL
MODEL 6
REMARK VINA RESULT:      -7.3      4.294      7.619
REMARK  4 active torsions:
REMARK  status: ('A' for Active; 'I' for Inactive)
REMARK    1  A    between atoms: C_5  and  C_6 
REMARK    2  A    between atoms: C_12  and  C_13 
REMARK    3  A    between atoms: C_13  and  N_14 
REMARK       I    between atoms: N_14  and  C_15 
REMARK       I    between atoms: C_15  and  N_16 
REMARK    4  A    between atoms: N_16  and  C_17 
ROOT
HETATM    1  C   UNL     1     -41.652  55.256 -55.475  1.00  0.00     0.168 C 
ENDROOT
BRANCH   1   2
HETATM    2  C   UNL     1     -42.266  55.212 -54.120  1.00  0.00     0.023 A 
HETATM    3  C   UNL     1     -43.157  56.075 -53.508  1.00  0.00     0.085 A 
HETATM    4  C   UNL     1     -43.850  57.319 -53.902  1.00  0.00     0.079 C 
HETATM    5  O   UNL     1     -43.414  55.645 -52.248  1.00  0.00    -0.217 OA
HETATM    6  N   UNL     1     -42.697  54.503 -51.989  1.00  0.00    -0.127 NA
HETATM    7  C   UNL     1     -42.011  54.225 -53.106  1.00  0.00     0.105 A 
BRANCH   7   8
HETATM    8  C   UNL     1     -41.124  53.065 -53.155  1.00  0.00    -0.004 A 
HETATM    9  C   UNL     1     -41.106  52.209 -54.264  1.00  0.00     0.014 A 
HETATM   10  C   UNL     1     -40.240  51.113 -54.296  1.00  0.00     0.001 A 
HETATM   11  C   UNL     1     -39.394  50.857 -53.217  1.00  0.00     0.000 A 
HETATM   12  C   UNL     1     -39.418  51.691 -52.101  1.00  0.00     0.001 A 
HETATM   13  C   UNL     1     -40.280  52.789 -52.069  1.00  0.00     0.014 A 
ENDBRANCH   7   8
ENDBRANCH   1   2
BRANCH   1  14
HETATM   14  N   UNL     1     -42.647  55.123 -56.515  1.00  0.00    -0.338 N 
HETATM   15  C   UNL     1     -42.913  55.916 -57.588  1.00  0.00     0.320 C 
HETATM   16  N   UNL     1     -42.362  57.165 -57.566  1.00  0.00    -0.309 N 
HETATM   17  O   UNL     1     -43.619  55.441 -58.471  1.00  0.00    -0.247 OA
HETATM   18  H   UNL     1     -42.060  57.506 -56.669  1.00  0.00     0.170 HD
HETATM   19  H   UNL     1     -43.064  54.207 -56.628  1.00  0.00     0.164 HD
BRANCH  16  20
HETATM   20  C   UNL     1     -42.348  58.114 -58.613  1.00  0.00     0.036 A 
HETATM   21  C   UNL     1     -41.824  57.865 -59.884  1.00  0.00     0.029 A 
HETATM   22  C   UNL     1     -41.832  58.863 -60.863  1.00  0.00     0.002 A 
HETATM   23  C   UNL     1     -42.356  60.121 -60.579  1.00  0.00     0.000 A 
HETATM   24  C   UNL     1     -42.874  60.384 -59.314  1.00  0.00     0.002 A 
HETATM   25  C   UNL     1     -42.870  59.385 -58.336  1.00  0.00     0.029 A 
ENDBRANCH  16  20
ENDBRANCH   1  14
TORSDOF 4
ENDMDL
MODEL 7
REMARK VINA RESULT:      -7.3      2.838      6.409
REMARK  4 active torsions:
REMARK  status: ('A' for Active; 'I' for Inactive)
REMARK    1  A    between atoms: C_5  and  C_6 
REMARK    2  A    between atoms: C_12  and  C_13 
REMARK    3  A    between atoms: C_13  and  N_14 
REMARK       I    between atoms: N_14  and  C_15 
REMARK       I    between atoms: C_15  and  N_16 
REMARK    4  A    between atoms: N_16  and  C_17 
ROOT
HETATM    1  C   UNL     1     -41.023  54.991 -53.180  1.00  0.00     0.168 C 
ENDROOT
BRANCH   1   2
HETATM    2  C   UNL     1     -40.802  54.539 -51.779  1.00  0.00     0.023 A 
HETATM    3  C   UNL     1     -40.881  55.235 -50.587  1.00  0.00     0.085 A 
HETATM    4  C   UNL     1     -41.207  56.624 -50.203  1.00  0.00     0.079 C 
HETATM    5  O   UNL     1     -40.564  54.411 -49.558  1.00  0.00    -0.217 OA
HETATM    6  N   UNL     1     -40.258  53.162 -50.037  1.00  0.00    -0.127 NA
HETATM    7  C   UNL     1     -40.406  53.220 -51.368  1.00  0.00     0.105 A 
BRANCH   7   8
HETATM    8  C   UNL     1     -40.134  52.043 -52.190  1.00  0.00    -0.004 A 
HETATM    9  C   UNL     1     -40.261  52.085 -53.584  1.00  0.00     0.014 A 
HETATM   10  C   UNL     1     -39.983  50.952 -54.354  1.00  0.00     0.001 A 
HETATM   11  C   UNL     1     -39.588  49.766 -53.736  1.00  0.00     0.000 A 
HETATM   12  C   UNL     1     -39.477  49.708 -52.348  1.00  0.00     0.001 A 
HETATM   13  C   UNL     1     -39.751  50.841 -51.577  1.00  0.00     0.014 A 
ENDBRANCH   7   8
ENDBRANCH   1   2
BRANCH   1  14
HETATM   14  N   UNL     1     -42.358  55.512 -53.368  1.00  0.00    -0.338 N 
HETATM   15  C   UNL     1     -42.983  55.953 -54.494  1.00  0.00     0.320 C 
HETATM   16  N   UNL     1     -42.181  56.206 -55.570  1.00  0.00    -0.309 N 
HETATM   17  O   UNL     1     -44.201  56.082 -54.441  1.00  0.00    -0.247 OA
HETATM   18  H   UNL     1     -41.201  56.330 -55.378  1.00  0.00     0.170 HD
HETATM   19  H   UNL     1     -43.027  55.318 -52.634  1.00  0.00     0.164 HD
BRANCH  16  20
HETATM   20  C   UNL     1     -42.587  56.511 -56.887  1.00  0.00     0.036 A 
HETATM   21  C   UNL     1     -43.080  55.566 -57.790  1.00  0.00     0.029 A 
HETATM   22  C   UNL     1     -43.446  55.946 -59.086  1.00  0.00     0.002 A 
HETATM   23  C   UNL     1     -43.314  57.270 -59.493  1.00  0.00     0.000 A 
HETATM   24  C   UNL     1     -42.816  58.219 -58.605  1.00  0.00     0.002 A 
HETATM   25  C   UNL     1     -42.455  57.841 -57.309  1.00  0.00     0.029 A 
ENDBRANCH  16  20
ENDBRANCH   1  14
TORSDOF 4
ENDMDL
MODEL 8
REMARK VINA RESULT:      -7.3      4.809      8.076
REMARK  4 active torsions:
REMARK  status: ('A' for Active; 'I' for Inactive)
REMARK    1  A    between atoms: C_5  and  C_6 
REMARK    2  A    between atoms: C_12  and  C_13 
REMARK    3  A    between atoms: C_13  and  N_14 
REMARK       I    between atoms: N_14  and  C_15 
REMARK       I    between atoms: C_15  and  N_16 
REMARK    4  A    between atoms: N_16  and  C_17 
ROOT
HETATM    1  C   UNL     1     -42.883  55.424 -56.401  1.00  0.00     0.168 C 
ENDROOT
BRANCH   1   2
HETATM    2  C   UNL     1     -42.221  56.367 -55.459  1.00  0.00     0.023 A 
HETATM    3  C   UNL     1     -42.247  57.749 -55.404  1.00  0.00     0.085 A 
HETATM    4  C   UNL     1     -42.900  58.818 -56.188  1.00  0.00     0.079 C 
HETATM    5  O   UNL     1     -41.463  58.179 -54.385  1.00  0.00    -0.217 OA
HETATM    6  N   UNL     1     -40.892  57.103 -53.750  1.00  0.00    -0.127 NA
HETATM    7  C   UNL     1     -41.346  56.009 -54.376  1.00  0.00     0.105 A 
BRANCH   7   8
HETATM    8  C   UNL     1     -40.908  54.682 -53.950  1.00  0.00    -0.004 A 
HETATM    9  C   UNL     1     -40.399  53.754 -54.866  1.00  0.00     0.014 A 
HETATM   10  C   UNL     1     -39.973  52.495 -54.435  1.00  0.00     0.001 A 
HETATM   11  C   UNL     1     -40.062  52.149 -53.087  1.00  0.00     0.000 A 
HETATM   12  C   UNL     1     -40.585  53.058 -52.170  1.00  0.00     0.001 A 
HETATM   13  C   UNL     1     -41.008  54.319 -52.598  1.00  0.00     0.014 A 
ENDBRANCH   7   8
ENDBRANCH   1   2
BRANCH   1  14
HETATM   14  N   UNL     1     -42.525  55.702 -57.773  1.00  0.00    -0.338 N 
HETATM   15  C   UNL     1     -43.280  56.163 -58.806  1.00  0.00     0.320 C 
HETATM   16  N   UNL     1     -44.634  56.113 -58.633  1.00  0.00    -0.309 N 
HETATM   17  O   UNL     1     -42.683  56.578 -59.793  1.00  0.00    -0.247 OA
HETATM   18  H   UNL     1     -44.971  55.496 -57.914  1.00  0.00     0.170 HD
HETATM   19  H   UNL     1     -41.537  55.805 -57.971  1.00  0.00     0.164 HD
BRANCH  16  20
HETATM   20  C   UNL     1     -45.626  56.671 -59.470  1.00  0.00     0.036 A 
HETATM   21  C   UNL     1     -46.389  55.930 -60.375  1.00  0.00     0.029 A 
HETATM   22  C   UNL     1     -47.343  56.559 -61.182  1.00  0.00     0.002 A 
HETATM   23  C   UNL     1     -47.535  57.935 -61.098  1.00  0.00     0.000 A 
HETATM   24  C   UNL     1     -46.775  58.686 -60.206  1.00  0.00     0.002 A 
HETATM   25  C   UNL     1     -45.826  58.056 -59.396  1.00  0.00     0.029 A 
ENDBRANCH  16  20
ENDBRANCH   1  14
TORSDOF 4
ENDMDL
MODEL 9
REMARK VINA RESULT:      -7.2     14.299     16.778
REMARK  4 active torsions:
REMARK  status: ('A' for Active; 'I' for Inactive)
REMARK    1  A    between atoms: C_5  and  C_6 
REMARK    2  A    between atoms: C_12  and  C_13 
REMARK    3  A    between atoms: C_13  and  N_14 
REMARK       I    between atoms: N_14  and  C_15 
REMARK       I    between atoms: C_15  and  N_16 
REMARK    4  A    between atoms: N_16  and  C_17 
ROOT
HETATM    1  C   UNL     1     -34.862  42.425 -56.148  1.00  0.00     0.168 C 
ENDROOT
BRANCH   1   2
HETATM    2  C   UNL     1     -35.213  41.320 -57.082  1.00  0.00     0.023 A 
HETATM    3  C   UNL     1     -36.188  41.246 -58.060  1.00  0.00     0.085 A 
HETATM    4  C   UNL     1     -37.225  42.161 -58.580  1.00  0.00     0.079 C 
HETATM    5  O   UNL     1     -36.156  40.021 -58.641  1.00  0.00    -0.217 OA
HETATM    6  N   UNL     1     -35.175  39.255 -58.061  1.00  0.00    -0.127 NA
HETATM    7  C   UNL     1     -34.594  40.024 -57.131  1.00  0.00     0.105 A 
BRANCH   7   8
HETATM    8  C   UNL     1     -33.509  39.492 -56.310  1.00  0.00    -0.004 A 
HETATM    9  C   UNL     1     -32.218  40.033 -56.370  1.00  0.00     0.014 A 
HETATM   10  C   UNL     1     -31.198  39.518 -55.567  1.00  0.00     0.001 A 
HETATM   11  C   UNL     1     -31.456  38.452 -54.705  1.00  0.00     0.000 A 
HETATM   12  C   UNL     1     -32.731  37.895 -54.650  1.00  0.00     0.001 A 
HETATM   13  C   UNL     1     -33.754  38.410 -55.450  1.00  0.00     0.014 A 
ENDBRANCH   7   8
ENDBRANCH   1   2
BRANCH   1  14
HETATM   14  N   UNL     1     -35.722  42.436 -54.987  1.00  0.00    -0.338 N 
HETATM   15  C   UNL     1     -35.497  42.001 -53.717  1.00  0.00     0.320 C 
HETATM   16  N   UNL     1     -34.413  41.189 -53.542  1.00  0.00    -0.309 N 
HETATM   17  O   UNL     1     -36.281  42.375 -52.852  1.00  0.00    -0.247 OA
HETATM   18  H   UNL     1     -34.046  40.746 -54.368  1.00  0.00     0.170 HD
HETATM   19  H   UNL     1     -36.521  43.057 -55.021  1.00  0.00     0.164 HD
BRANCH  16  20
HETATM   20  C   UNL     1     -33.869  40.739 -52.318  1.00  0.00     0.036 A 
HETATM   21  C   UNL     1     -34.639  40.346 -51.221  1.00  0.00     0.029 A 
HETATM   22  C   UNL     1     -34.024  39.927 -50.036  1.00  0.00     0.002 A 
HETATM   23  C   UNL     1     -32.636  39.906 -49.935  1.00  0.00     0.000 A 
HETATM   24  C   UNL     1     -31.858  40.302 -51.020  1.00  0.00     0.002 A 
HETATM   25  C   UNL     1     -32.472  40.716 -52.205  1.00  0.00     0.029 A 
ENDBRANCH  16  20
ENDBRANCH   1  14
TORSDOF 4
ENDMDL
MODEL 10
REMARK VINA RESULT:      -7.2     14.480     16.270
REMARK  4 active torsions:
REMARK  status: ('A' for Active; 'I' for Inactive)
REMARK    1  A    between atoms: C_5  and  C_6 
REMARK    2  A    between atoms: C_12  and  C_13 
REMARK    3  A    between atoms: C_13  and  N_14 
REMARK       I    between atoms: N_14  and  C_15 
REMARK       I    between atoms: C_15  and  N_16 
REMARK    4  A    between atoms: N_16  and  C_17 
ROOT
HETATM    1  C   UNL     1     -34.916  42.266 -56.632  1.00  0.00     0.168 C 
ENDROOT
BRANCH   1   2
HETATM    2  C   UNL     1     -36.302  41.727 -56.704  1.00  0.00     0.023 A 
HETATM    3  C   UNL     1     -37.191  41.669 -57.762  1.00  0.00     0.085 A 
HETATM    4  C   UNL     1     -37.159  42.075 -59.182  1.00  0.00     0.079 C 
HETATM    5  O   UNL     1     -38.357  41.115 -57.346  1.00  0.00    -0.217 OA
HETATM    6  N   UNL     1     -38.276  40.804 -56.011  1.00  0.00    -0.127 NA
HETATM    7  C   UNL     1     -37.045  41.156 -55.614  1.00  0.00     0.105 A 
BRANCH   7   8
HETATM    8  C   UNL     1     -36.641  40.970 -54.223  1.00  0.00    -0.004 A 
HETATM    9  C   UNL     1     -36.219  42.050 -53.437  1.00  0.00     0.014 A 
HETATM   10  C   UNL     1     -35.849  41.853 -52.104  1.00  0.00     0.001 A 
HETATM   11  C   UNL     1     -35.886  40.575 -51.549  1.00  0.00     0.000 A 
HETATM   12  C   UNL     1     -36.286  39.490 -52.327  1.00  0.00     0.001 A 
HETATM   13  C   UNL     1     -36.660  39.686 -53.658  1.00  0.00     0.014 A 
ENDBRANCH   7   8
ENDBRANCH   1   2
BRANCH   1  14
HETATM   14  N   UNL     1     -33.930  41.236 -56.865  1.00  0.00    -0.338 N 
HETATM   15  C   UNL     1     -33.255  40.447 -55.985  1.00  0.00     0.320 C 
HETATM   16  N   UNL     1     -33.286  40.838 -54.677  1.00  0.00    -0.309 N 
HETATM   17  O   UNL     1     -32.683  39.464 -56.444  1.00  0.00    -0.247 OA
HETATM   18  H   UNL     1     -33.541  41.795 -54.501  1.00  0.00     0.170 HD
HETATM   19  H   UNL     1     -33.884  40.857 -57.802  1.00  0.00     0.164 HD
BRANCH  16  20
HETATM   20  C   UNL     1     -32.811  40.119 -53.557  1.00  0.00     0.036 A 
HETATM   21  C   UNL     1     -32.868  38.729 -53.442  1.00  0.00     0.029 A 
HETATM   22  C   UNL     1     -32.391  38.092 -52.291  1.00  0.00     0.002 A 
HETATM   23  C   UNL     1     -31.862  38.839 -51.243  1.00  0.00     0.000 A 
HETATM   24  C   UNL     1     -31.807  40.226 -51.343  1.00  0.00     0.002 A 
HETATM   25  C   UNL     1     -32.279  40.863 -52.495  1.00  0.00     0.029 A 
ENDBRANCH  16  20
ENDBRANCH   1  14
TORSDOF 4
ENDMDL
