MODEL 1
REMARK VINA RESULT:      -7.5      0.000      0.000
REMARK  6 active torsions:
REMARK  status: ('A' for Active; 'I' for Inactive)
REMARK    1  A    between atoms: C_2  and  N_3 
REMARK    2  A    between atoms: C_2  and  C_11 
REMARK       I    between atoms: N_3  and  C_4 
REMARK    3  A    between atoms: C_4  and  C_5 
REMARK    4  A    between atoms: C_14  and  O_15 
REMARK    5  A    between atoms: O_15  and  C_16 
REMARK    6  A    between atoms: C_16  and  C_17 
ROOT
HETATM    1  C   UNL     1     -42.667  56.317 -56.569  1.00  0.00    -0.036 A 
HETATM    2  C   UNL     1     -43.017  54.958 -56.572  1.00  0.00     0.012 A 
HETATM    3  C   UNL     1     -42.793  54.152 -55.448  1.00  0.00     0.037 A 
HETATM    4  C   UNL     1     -42.214  54.695 -54.303  1.00  0.00     0.069 A 
HETATM    5  C   UNL     1     -41.906  56.056 -54.275  1.00  0.00     0.037 A 
HETATM    6  C   UNL     1     -42.132  56.862 -55.392  1.00  0.00     0.012 A 
ENDROOT
BRANCH   1   7
HETATM    7  C   UNL     1     -42.906  57.165 -57.809  1.00  0.00     0.113 C 
HETATM    8  C   UNL     1     -42.644  58.654 -57.551  1.00  0.00     0.037 C 
BRANCH   7   9
HETATM    9  N   UNL     1     -44.252  56.927 -58.305  1.00  0.00    -0.352 N 
HETATM   10  C   UNL     1     -44.488  56.494 -59.587  1.00  0.00     0.225 C 
HETATM   11  O   UNL     1     -43.609  56.300 -60.416  1.00  0.00    -0.273 OA
HETATM   12  H   UNL     1     -45.019  57.058 -57.662  1.00  0.00     0.163 HD
BRANCH  10  13
HETATM   13  C   UNL     1     -45.920  56.319 -59.922  1.00  0.00     0.119 A 
HETATM   14  C   UNL     1     -46.742  57.422 -60.535  1.00  0.00     0.126 A 
HETATM   15 CL   UNL     1     -46.082  59.011 -60.864  1.00  0.00    -0.101 Cl
HETATM   16 CL   UNL     1     -47.980  56.945 -61.706  1.00  0.00    -0.101 Cl
HETATM   17  C   UNL     1     -46.973  57.029 -59.102  1.00  0.00     0.060 A 
ENDBRANCH  10  13
ENDBRANCH   7   9
ENDBRANCH   1   7
BRANCH   4  18
HETATM   18  O   UNL     1     -41.914  54.019 -53.155  1.00  0.00    -0.347 OA
BRANCH  18  19
HETATM   19  C   UNL     1     -40.530  53.847 -52.850  1.00  0.00     0.215 C 
BRANCH  19  20
HETATM   20  C   UNL     1     -40.194  52.385 -52.956  1.00  0.00    -0.017 A 
HETATM   21  C   UNL     1     -39.769  51.658 -51.850  1.00  0.00     0.125 A 
HETATM   22  N   UNL     1     -39.488  50.335 -51.872  1.00  0.00    -0.272 NA
HETATM   23  C   UNL     1     -39.635  49.703 -53.056  1.00  0.00     0.116 A 
HETATM   24  C   UNL     1     -40.054  50.329 -54.216  1.00  0.00     0.020 A 
HETATM   25  C   UNL     1     -40.340  51.690 -54.161  1.00  0.00     0.012 A 
ENDBRANCH  19  20
ENDBRANCH  18  19
ENDBRANCH   4  18
TORSDOF 6
ENDMDL
MODEL 2
REMARK VINA RESULT:      -7.5      2.957      4.029
REMARK  6 active torsions:
REMARK  status: ('A' for Active; 'I' for Inactive)
REMARK    1  A    between atoms: C_2  and  N_3 
REMARK    2  A    between atoms: C_2  and  C_11 
REMARK       I    between atoms: N_3  and  C_4 
REMARK    3  A    between atoms: C_4  and  C_5 
REMARK    4  A    between atoms: C_14  and  O_15 
REMARK    5  A    between atoms: O_15  and  C_16 
REMARK    6  A    between atoms: C_16  and  C_17 
ROOT
HETATM    1  C   UNL     1     -42.504  56.776 -52.340  1.00  0.00    -0.036 A 
HETATM    2  C   UNL     1     -43.102  55.609 -52.843  1.00  0.00     0.012 A 
HETATM    3  C   UNL     1     -42.703  54.344 -52.395  1.00  0.00     0.037 A 
HETATM    4  C   UNL     1     -41.700  54.225 -51.435  1.00  0.00     0.069 A 
HETATM    5  C   UNL     1     -41.134  55.381 -50.896  1.00  0.00     0.037 A 
HETATM    6  C   UNL     1     -41.531  56.644 -51.339  1.00  0.00     0.012 A 
ENDROOT
BRANCH   1   7
HETATM    7  C   UNL     1     -42.945  58.137 -52.857  1.00  0.00     0.113 C 
HETATM    8  C   UNL     1     -44.116  58.712 -52.049  1.00  0.00     0.037 C 
BRANCH   7   9
HETATM    9  N   UNL     1     -43.257  58.039 -54.273  1.00  0.00    -0.352 N 
HETATM   10  C   UNL     1     -42.515  58.689 -55.229  1.00  0.00     0.225 C 
HETATM   11  O   UNL     1     -41.562  59.413 -54.977  1.00  0.00    -0.273 OA
HETATM   12  H   UNL     1     -44.027  57.443 -54.544  1.00  0.00     0.163 HD
BRANCH  10  13
HETATM   13  C   UNL     1     -42.988  58.485 -56.618  1.00  0.00     0.119 A 
HETATM   14  C   UNL     1     -43.019  57.125 -57.264  1.00  0.00     0.126 A 
HETATM   15 CL   UNL     1     -42.460  55.683 -56.439  1.00  0.00    -0.101 Cl
HETATM   16 CL   UNL     1     -44.351  56.796 -58.380  1.00  0.00    -0.101 Cl
HETATM   17  C   UNL     1     -41.996  58.135 -57.702  1.00  0.00     0.060 A 
ENDBRANCH  10  13
ENDBRANCH   7   9
ENDBRANCH   1   7
BRANCH   4  18
HETATM   18  O   UNL     1     -41.197  53.058 -50.937  1.00  0.00    -0.347 OA
BRANCH  18  19
HETATM   19  C   UNL     1     -39.827  52.772 -51.219  1.00  0.00     0.215 C 
BRANCH  19  20
HETATM   20  C   UNL     1     -39.770  51.679 -52.251  1.00  0.00    -0.017 A 
HETATM   21  C   UNL     1     -39.534  50.356 -51.891  1.00  0.00     0.125 A 
HETATM   22  N   UNL     1     -39.507  49.324 -52.766  1.00  0.00    -0.272 NA
HETATM   23  C   UNL     1     -39.723  49.623 -54.064  1.00  0.00     0.116 A 
HETATM   24  C   UNL     1     -39.969  50.903 -54.530  1.00  0.00     0.020 A 
HETATM   25  C   UNL     1     -39.995  51.944 -53.605  1.00  0.00     0.012 A 
ENDBRANCH  19  20
ENDBRANCH  18  19
ENDBRANCH   4  18
TORSDOF 6
ENDMDL
MODEL 3
REMARK VINA RESULT:      -7.5      4.959      5.682
REMARK  6 active torsions:
REMARK  status: ('A' for Active; 'I' for Inactive)
REMARK    1  A    between atoms: C_2  and  N_3 
REMARK    2  A    between atoms: C_2  and  C_11 
REMARK       I    between atoms: N_3  and  C_4 
REMARK    3  A    between atoms: C_4  and  C_5 
REMARK    4  A    between atoms: C_14  and  O_15 
REMARK    5  A    between atoms: O_15  and  C_16 
REMARK    6  A    between atoms: C_16  and  C_17 
ROOT
HETATM    1  C   UNL     1     -41.044  57.531 -51.467  1.00  0.00    -0.036 A 
HETATM    2  C   UNL     1     -41.255  56.764 -52.624  1.00  0.00     0.012 A 
HETATM    3  C   UNL     1     -41.303  55.365 -52.564  1.00  0.00     0.037 A 
HETATM    4  C   UNL     1     -41.142  54.712 -51.344  1.00  0.00     0.069 A 
HETATM    5  C   UNL     1     -40.980  55.468 -50.182  1.00  0.00     0.037 A 
HETATM    6  C   UNL     1     -40.934  56.862 -50.239  1.00  0.00     0.012 A 
ENDROOT
BRANCH   1   7
HETATM    7  C   UNL     1     -40.979  59.047 -51.563  1.00  0.00     0.113 C 
HETATM    8  C   UNL     1     -40.305  59.677 -50.338  1.00  0.00     0.037 C 
BRANCH   7   9
HETATM    9  N   UNL     1     -42.316  59.576 -51.780  1.00  0.00    -0.352 N 
HETATM   10  C   UNL     1     -42.690  60.142 -52.975  1.00  0.00     0.225 C 
HETATM   11  O   UNL     1     -41.940  60.272 -53.933  1.00  0.00    -0.273 OA
HETATM   12  H   UNL     1     -42.985  59.485 -51.028  1.00  0.00     0.163 HD
BRANCH  10  13
HETATM   13  C   UNL     1     -44.085  60.639 -53.009  1.00  0.00     0.119 A 
HETATM   14  C   UNL     1     -45.265  59.736 -52.764  1.00  0.00     0.126 A 
HETATM   15 CL   UNL     1     -45.084  58.020 -52.458  1.00  0.00    -0.101 Cl
HETATM   16 CL   UNL     1     -46.648  60.436 -51.911  1.00  0.00    -0.101 Cl
HETATM   17  C   UNL     1     -44.992  60.244 -54.152  1.00  0.00     0.060 A 
ENDBRANCH  10  13
ENDBRANCH   7   9
ENDBRANCH   1   7
BRANCH   4  18
HETATM   18  O   UNL     1     -41.137  53.360 -51.150  1.00  0.00    -0.347 OA
BRANCH  18  19
HETATM   19  C   UNL     1     -39.862  52.722 -51.088  1.00  0.00     0.215 C 
BRANCH  19  20
HETATM   20  C   UNL     1     -39.801  51.670 -52.162  1.00  0.00    -0.017 A 
HETATM   21  C   UNL     1     -39.565  50.334 -51.854  1.00  0.00     0.125 A 
HETATM   22  N   UNL     1     -39.536  49.338 -52.769  1.00  0.00    -0.272 NA
HETATM   23  C   UNL     1     -39.748  49.688 -54.055  1.00  0.00     0.116 A 
HETATM   24  C   UNL     1     -39.993  50.984 -54.470  1.00  0.00     0.020 A 
HETATM   25  C   UNL     1     -40.023  51.988 -53.506  1.00  0.00     0.012 A 
ENDBRANCH  19  20
ENDBRANCH  18  19
ENDBRANCH   4  18
TORSDOF 6
ENDMDL
MODEL 4
REMARK VINA RESULT:      -7.4      5.493      6.722
REMARK  6 active torsions:
REMARK  status: ('A' for Active; 'I' for Inactive)
REMARK    1  A    between atoms: C_2  and  N_3 
REMARK    2  A    between atoms: C_2  and  C_11 
REMARK       I    between atoms: N_3  and  C_4 
REMARK    3  A    between atoms: C_4  and  C_5 
REMARK    4  A    between atoms: C_14  and  O_15 
REMARK    5  A    between atoms: O_15  and  C_16 
REMARK    6  A    between atoms: C_16  and  C_17 
ROOT
HETATM    1  C   UNL     1     -40.865  58.003 -51.809  1.00  0.00    -0.036 A 
HETATM    2  C   UNL     1     -41.097  57.016 -50.838  1.00  0.00     0.012 A 
HETATM    3  C   UNL     1     -41.354  55.689 -51.205  1.00  0.00     0.037 A 
HETATM    4  C   UNL     1     -41.385  55.329 -52.550  1.00  0.00     0.069 A 
HETATM    5  C   UNL     1     -41.110  56.294 -53.520  1.00  0.00     0.037 A 
HETATM    6  C   UNL     1     -40.849  57.616 -53.157  1.00  0.00     0.012 A 
ENDROOT
BRANCH   1   7
HETATM    7  C   UNL     1     -40.605  59.440 -51.383  1.00  0.00     0.113 C 
HETATM    8  C   UNL     1     -39.348  59.566 -50.513  1.00  0.00     0.037 C 
BRANCH   7   9
HETATM    9  N   UNL     1     -41.784  59.968 -50.716  1.00  0.00    -0.352 N 
HETATM   10  C   UNL     1     -42.705  60.745 -51.374  1.00  0.00     0.225 C 
HETATM   11  O   UNL     1     -42.605  61.077 -52.547  1.00  0.00    -0.273 OA
HETATM   12  H   UNL     1     -41.928  59.717 -49.748  1.00  0.00     0.163 HD
BRANCH  10  13
HETATM   13  C   UNL     1     -43.834  61.205 -50.533  1.00  0.00     0.119 A 
HETATM   14  C   UNL     1     -44.977  60.299 -50.157  1.00  0.00     0.126 A 
HETATM   15 CL   UNL     1     -45.083  58.643 -50.719  1.00  0.00    -0.101 Cl
HETATM   16 CL   UNL     1     -45.680  60.518 -48.549  1.00  0.00    -0.101 Cl
HETATM   17  C   UNL     1     -45.198  61.404 -51.153  1.00  0.00     0.060 A 
ENDBRANCH  10  13
ENDBRANCH   7   9
ENDBRANCH   1   7
BRANCH   4  18
HETATM   18  O   UNL     1     -41.653  54.084 -53.045  1.00  0.00    -0.347 OA
BRANCH  18  19
HETATM   19  C   UNL     1     -40.730  53.554 -53.995  1.00  0.00     0.215 C 
BRANCH  19  20
HETATM   20  C   UNL     1     -40.275  52.203 -53.517  1.00  0.00    -0.017 A 
HETATM   21  C   UNL     1     -39.852  52.003 -52.207  1.00  0.00     0.125 A 
HETATM   22  N   UNL     1     -39.466  50.807 -51.707  1.00  0.00    -0.272 NA
HETATM   23  C   UNL     1     -39.500  49.756 -52.553  1.00  0.00     0.116 A 
HETATM   24  C   UNL     1     -39.906  49.842 -53.873  1.00  0.00     0.020 A 
HETATM   25  C   UNL     1     -40.302  51.085 -54.358  1.00  0.00     0.012 A 
ENDBRANCH  19  20
ENDBRANCH  18  19
ENDBRANCH   4  18
TORSDOF 6
ENDMDL
MODEL 5
REMARK VINA RESULT:      -7.3      1.976      2.520
REMARK  6 active torsions:
REMARK  status: ('A' for Active; 'I' for Inactive)
REMARK    1  A    between atoms: C_2  and  N_3 
REMARK    2  A    between atoms: C_2  and  C_11 
REMARK       I    between atoms: N_3  and  C_4 
REMARK    3  A    between atoms: C_4  and  C_5 
REMARK    4  A    between atoms: C_14  and  O_15 
REMARK    5  A    between atoms: O_15  and  C_16 
REMARK    6  A    between atoms: C_16  and  C_17 
ROOT
HETATM    1  C   UNL     1     -43.378  56.768 -54.391  1.00  0.00    -0.036 A 
HETATM    2  C   UNL     1     -42.456  57.086 -53.381  1.00  0.00     0.012 A 
HETATM    3  C   UNL     1     -41.856  56.082 -52.610  1.00  0.00     0.037 A 
HETATM    4  C   UNL     1     -42.169  54.744 -52.838  1.00  0.00     0.069 A 
HETATM    5  C   UNL     1     -43.048  54.416 -53.871  1.00  0.00     0.037 A 
HETATM    6  C   UNL     1     -43.646  55.414 -54.643  1.00  0.00     0.012 A 
ENDROOT
BRANCH   1   7
HETATM    7  C   UNL     1     -44.028  57.878 -55.202  1.00  0.00     0.113 C 
HETATM    8  C   UNL     1     -45.090  58.638 -54.397  1.00  0.00     0.037 C 
BRANCH   7   9
HETATM    9  N   UNL     1     -44.570  57.325 -56.433  1.00  0.00    -0.352 N 
HETATM   10  C   UNL     1     -43.992  57.566 -57.655  1.00  0.00     0.225 C 
HETATM   11  O   UNL     1     -43.007  58.272 -57.818  1.00  0.00    -0.273 OA
HETATM   12  H   UNL     1     -45.377  56.722 -56.360  1.00  0.00     0.163 HD
BRANCH  10  13
HETATM   13  C   UNL     1     -44.689  56.933 -58.799  1.00  0.00     0.119 A 
HETATM   14  C   UNL     1     -43.944  56.244 -59.912  1.00  0.00     0.126 A 
HETATM   15 CL   UNL     1     -42.194  56.173 -59.963  1.00  0.00    -0.101 Cl
HETATM   16 CL   UNL     1     -44.703  54.813 -60.622  1.00  0.00    -0.101 Cl
HETATM   17  C   UNL     1     -44.610  57.567 -60.168  1.00  0.00     0.060 A 
ENDBRANCH  10  13
ENDBRANCH   7   9
ENDBRANCH   1   7
BRANCH   4  18
HETATM   18  O   UNL     1     -41.683  53.674 -52.142  1.00  0.00    -0.347 OA
BRANCH  18  19
HETATM   19  C   UNL     1     -40.268  53.484 -52.156  1.00  0.00     0.215 C 
BRANCH  19  20
HETATM   20  C   UNL     1     -39.982  52.047 -52.493  1.00  0.00    -0.017 A 
HETATM   21  C   UNL     1     -39.714  51.110 -51.500  1.00  0.00     0.125 A 
HETATM   22  N   UNL     1     -39.487  49.797 -51.736  1.00  0.00    -0.272 NA
HETATM   23  C   UNL     1     -39.523  49.397 -53.024  1.00  0.00     0.116 A 
HETATM   24  C   UNL     1     -39.782  50.243 -54.087  1.00  0.00     0.020 A 
HETATM   25  C   UNL     1     -40.018  51.588 -53.814  1.00  0.00     0.012 A 
ENDBRANCH  19  20
ENDBRANCH  18  19
ENDBRANCH   4  18
TORSDOF 6
ENDMDL
MODEL 6
REMARK VINA RESULT:      -7.2     15.487     17.934
REMARK  6 active torsions:
REMARK  status: ('A' for Active; 'I' for Inactive)
REMARK    1  A    between atoms: C_2  and  N_3 
REMARK    2  A    between atoms: C_2  and  C_11 
REMARK       I    between atoms: N_3  and  C_4 
REMARK    3  A    between atoms: C_4  and  C_5 
REMARK    4  A    between atoms: C_14  and  O_15 
REMARK    5  A    between atoms: O_15  and  C_16 
REMARK    6  A    between atoms: C_16  and  C_17 
ROOT
HETATM    1  C   UNL     1     -36.984  41.345 -57.071  1.00  0.00    -0.036 A 
HETATM    2  C   UNL     1     -36.795  41.945 -58.327  1.00  0.00     0.012 A 
HETATM    3  C   UNL     1     -37.214  41.307 -59.501  1.00  0.00     0.037 A 
HETATM    4  C   UNL     1     -37.829  40.059 -59.438  1.00  0.00     0.069 A 
HETATM    5  C   UNL     1     -38.063  39.477 -58.192  1.00  0.00     0.037 A 
HETATM    6  C   UNL     1     -37.650  40.111 -57.019  1.00  0.00     0.012 A 
ENDROOT
BRANCH   1   7
HETATM    7  C   UNL     1     -36.504  42.052 -55.813  1.00  0.00     0.113 C 
HETATM    8  C   UNL     1     -35.047  42.516 -55.930  1.00  0.00     0.037 C 
BRANCH   7   9
HETATM    9  N   UNL     1     -36.709  41.185 -54.663  1.00  0.00    -0.352 N 
HETATM   10  C   UNL     1     -36.559  41.638 -53.375  1.00  0.00     0.225 C 
HETATM   11  O   UNL     1     -36.222  42.778 -53.087  1.00  0.00    -0.273 OA
HETATM   12  H   UNL     1     -37.001  40.234 -54.838  1.00  0.00     0.163 HD
BRANCH  10  13
HETATM   13  C   UNL     1     -36.793  40.612 -52.333  1.00  0.00     0.119 A 
HETATM   14  C   UNL     1     -35.897  40.468 -51.131  1.00  0.00     0.126 A 
HETATM   15 CL   UNL     1     -34.483  41.475 -50.892  1.00  0.00    -0.101 Cl
HETATM   16 CL   UNL     1     -36.665  40.001 -49.607  1.00  0.00    -0.101 Cl
HETATM   17  C   UNL     1     -35.857  39.432 -52.219  1.00  0.00     0.060 A 
ENDBRANCH  10  13
ENDBRANCH   7   9
ENDBRANCH   1   7
BRANCH   4  18
HETATM   18  O   UNL     1     -38.255  39.317 -60.503  1.00  0.00    -0.347 OA
BRANCH  18  19
HETATM   19  C   UNL     1     -39.041  38.162 -60.212  1.00  0.00     0.215 C 
BRANCH  19  20
HETATM   20  C   UNL     1     -40.088  38.013 -61.281  1.00  0.00    -0.017 A 
HETATM   21  C   UNL     1     -39.740  37.806 -62.611  1.00  0.00     0.125 A 
HETATM   22  N   UNL     1     -40.633  37.628 -63.612  1.00  0.00    -0.272 NA
HETATM   23  C   UNL     1     -41.938  37.661 -63.273  1.00  0.00     0.116 A 
HETATM   24  C   UNL     1     -42.395  37.858 -61.982  1.00  0.00     0.020 A 
HETATM   25  C   UNL     1     -41.452  38.033 -60.972  1.00  0.00     0.012 A 
ENDBRANCH  19  20
ENDBRANCH  18  19
ENDBRANCH   4  18
TORSDOF 6
ENDMDL
MODEL 7
REMARK VINA RESULT:      -7.1      7.020      8.560
REMARK  6 active torsions:
REMARK  status: ('A' for Active; 'I' for Inactive)
REMARK    1  A    between atoms: C_2  and  N_3 
REMARK    2  A    between atoms: C_2  and  C_11 
REMARK       I    between atoms: N_3  and  C_4 
REMARK    3  A    between atoms: C_4  and  C_5 
REMARK    4  A    between atoms: C_14  and  O_15 
REMARK    5  A    between atoms: O_15  and  C_16 
REMARK    6  A    between atoms: C_16  and  C_17 
ROOT
HETATM    1  C   UNL     1     -43.760  58.860 -51.112  1.00  0.00    -0.036 A 
HETATM    2  C   UNL     1     -44.688  57.820 -50.948  1.00  0.00     0.012 A 
HETATM    3  C   UNL     1     -44.298  56.479 -51.063  1.00  0.00     0.037 A 
HETATM    4  C   UNL     1     -42.972  56.159 -51.344  1.00  0.00     0.069 A 
HETATM    5  C   UNL     1     -42.033  57.185 -51.463  1.00  0.00     0.037 A 
HETATM    6  C   UNL     1     -42.418  58.521 -51.346  1.00  0.00     0.012 A 
ENDROOT
BRANCH   1   7
HETATM    7  C   UNL     1     -44.214  60.307 -50.999  1.00  0.00     0.113 C 
HETATM    8  C   UNL     1     -43.480  61.223 -51.987  1.00  0.00     0.037 C 
BRANCH   7   9
HETATM    9  N   UNL     1     -44.061  60.756 -49.625  1.00  0.00    -0.352 N 
HETATM   10  C   UNL     1     -45.135  61.141 -48.861  1.00  0.00     0.225 C 
HETATM   11  O   UNL     1     -46.289  61.166 -49.268  1.00  0.00    -0.273 OA
HETATM   12  H   UNL     1     -43.132  60.745 -49.228  1.00  0.00     0.163 HD
BRANCH  10  13
HETATM   13  C   UNL     1     -44.788  61.581 -47.490  1.00  0.00     0.119 A 
HETATM   14  C   UNL     1     -45.318  60.884 -46.265  1.00  0.00     0.126 A 
HETATM   15 CL   UNL     1     -46.418  59.523 -46.363  1.00  0.00    -0.101 Cl
HETATM   16 CL   UNL     1     -44.238  60.785 -44.867  1.00  0.00    -0.101 Cl
HETATM   17  C   UNL     1     -45.837  62.247 -46.629  1.00  0.00     0.060 A 
ENDBRANCH  10  13
ENDBRANCH   7   9
ENDBRANCH   1   7
BRANCH   4  18
HETATM   18  O   UNL     1     -42.466  54.901 -51.513  1.00  0.00    -0.347 OA
BRANCH  18  19
HETATM   19  C   UNL     1     -41.090  54.710 -51.185  1.00  0.00     0.215 C 
BRANCH  19  20
HETATM   20  C   UNL     1     -40.543  53.603 -52.045  1.00  0.00    -0.017 A 
HETATM   21  C   UNL     1     -39.868  52.522 -51.490  1.00  0.00     0.125 A 
HETATM   22  N   UNL     1     -39.386  51.479 -52.204  1.00  0.00    -0.272 NA
HETATM   23  C   UNL     1     -39.583  51.515 -53.539  1.00  0.00     0.116 A 
HETATM   24  C   UNL     1     -40.242  52.540 -54.193  1.00  0.00     0.020 A 
HETATM   25  C   UNL     1     -40.732  53.597 -53.431  1.00  0.00     0.012 A 
ENDBRANCH  19  20
ENDBRANCH  18  19
ENDBRANCH   4  18
TORSDOF 6
ENDMDL
MODEL 8
REMARK VINA RESULT:      -7.0      4.729      6.182
REMARK  6 active torsions:
REMARK  status: ('A' for Active; 'I' for Inactive)
REMARK    1  A    between atoms: C_2  and  N_3 
REMARK    2  A    between atoms: C_2  and  C_11 
REMARK       I    between atoms: N_3  and  C_4 
REMARK    3  A    between atoms: C_4  and  C_5 
REMARK    4  A    between atoms: C_14  and  O_15 
REMARK    5  A    between atoms: O_15  and  C_16 
REMARK    6  A    between atoms: C_16  and  C_17 
ROOT
HETATM    1  C   UNL     1     -43.638  56.734 -53.716  1.00  0.00    -0.036 A 
HETATM    2  C   UNL     1     -42.374  57.315 -53.526  1.00  0.00     0.012 A 
HETATM    3  C   UNL     1     -41.222  56.523 -53.437  1.00  0.00     0.037 A 
HETATM    4  C   UNL     1     -41.317  55.137 -53.537  1.00  0.00     0.069 A 
HETATM    5  C   UNL     1     -42.563  54.555 -53.773  1.00  0.00     0.037 A 
HETATM    6  C   UNL     1     -43.713  55.342 -53.865  1.00  0.00     0.012 A 
ENDROOT
BRANCH   1   7
HETATM    7  C   UNL     1     -44.875  57.617 -53.792  1.00  0.00     0.113 C 
HETATM    8  C   UNL     1     -45.299  57.895 -55.240  1.00  0.00     0.037 C 
BRANCH   7   9
HETATM    9  N   UNL     1     -44.640  58.844 -53.049  1.00  0.00    -0.352 N 
HETATM   10  C   UNL     1     -45.062  59.001 -51.751  1.00  0.00     0.225 C 
HETATM   11  O   UNL     1     -45.683  58.151 -51.128  1.00  0.00    -0.273 OA
HETATM   12  H   UNL     1     -44.120  59.579 -53.508  1.00  0.00     0.163 HD
BRANCH  10  13
HETATM   13  C   UNL     1     -44.748  60.321 -51.159  1.00  0.00     0.119 A 
HETATM   14  C   UNL     1     -43.370  60.670 -50.660  1.00  0.00     0.126 A 
HETATM   15 CL   UNL     1     -42.041  59.529 -50.705  1.00  0.00    -0.101 Cl
HETATM   16 CL   UNL     1     -42.837  62.343 -50.877  1.00  0.00    -0.101 Cl
HETATM   17  C   UNL     1     -44.480  60.431 -49.675  1.00  0.00     0.060 A 
ENDBRANCH  10  13
ENDBRANCH   7   9
ENDBRANCH   1   7
BRANCH   4  18
HETATM   18  O   UNL     1     -40.283  54.250 -53.437  1.00  0.00    -0.347 OA
BRANCH  18  19
HETATM   19  C   UNL     1     -40.257  53.180 -54.381  1.00  0.00     0.215 C 
BRANCH  19  20
HETATM   20  C   UNL     1     -40.025  51.893 -53.639  1.00  0.00    -0.017 A 
HETATM   21  C   UNL     1     -40.019  50.668 -54.299  1.00  0.00     0.125 A 
HETATM   22  N   UNL     1     -39.780  49.482 -53.696  1.00  0.00    -0.272 NA
HETATM   23  C   UNL     1     -39.539  49.513 -52.368  1.00  0.00     0.116 A 
HETATM   24  C   UNL     1     -39.519  50.674 -51.616  1.00  0.00     0.020 A 
HETATM   25  C   UNL     1     -39.763  51.881 -52.266  1.00  0.00     0.012 A 
ENDBRANCH  19  20
ENDBRANCH  18  19
ENDBRANCH   4  18
TORSDOF 6
ENDMDL
MODEL 9
REMARK VINA RESULT:      -7.0      2.472      3.112
REMARK  6 active torsions:
REMARK  status: ('A' for Active; 'I' for Inactive)
REMARK    1  A    between atoms: C_2  and  N_3 
REMARK    2  A    between atoms: C_2  and  C_11 
REMARK       I    between atoms: N_3  and  C_4 
REMARK    3  A    between atoms: C_4  and  C_5 
REMARK    4  A    between atoms: C_14  and  O_15 
REMARK    5  A    between atoms: O_15  and  C_16 
REMARK    6  A    between atoms: C_16  and  C_17 
ROOT
HETATM    1  C   UNL     1     -43.145  58.154 -54.376  1.00  0.00    -0.036 A 
HETATM    2  C   UNL     1     -43.918  57.286 -53.588  1.00  0.00     0.012 A 
HETATM    3  C   UNL     1     -43.322  56.458 -52.628  1.00  0.00     0.037 A 
HETATM    4  C   UNL     1     -41.942  56.486 -52.441  1.00  0.00     0.069 A 
HETATM    5  C   UNL     1     -41.171  57.379 -53.187  1.00  0.00     0.037 A 
HETATM    6  C   UNL     1     -41.763  58.208 -54.142  1.00  0.00     0.012 A 
ENDROOT
BRANCH   1   7
HETATM    7  C   UNL     1     -43.817  59.030 -55.422  1.00  0.00     0.113 C 
HETATM    8  C   UNL     1     -45.123  59.648 -54.908  1.00  0.00     0.037 C 
BRANCH   7   9
HETATM    9  N   UNL     1     -44.021  58.260 -56.639  1.00  0.00    -0.352 N 
HETATM   10  C   UNL     1     -43.108  58.267 -57.665  1.00  0.00     0.225 C 
HETATM   11  O   UNL     1     -42.078  58.926 -57.659  1.00  0.00    -0.273 OA
HETATM   12  H   UNL     1     -44.849  57.684 -56.696  1.00  0.00     0.163 HD
BRANCH  10  13
HETATM   13  C   UNL     1     -43.489  57.435 -58.830  1.00  0.00     0.119 A 
HETATM   14  C   UNL     1     -43.488  55.930 -58.778  1.00  0.00     0.126 A 
HETATM   15 CL   UNL     1     -42.997  55.043 -57.348  1.00  0.00    -0.101 Cl
HETATM   16 CL   UNL     1     -44.745  55.093 -59.698  1.00  0.00    -0.101 Cl
HETATM   17  C   UNL     1     -42.430  56.649 -59.567  1.00  0.00     0.060 A 
ENDBRANCH  10  13
ENDBRANCH   7   9
ENDBRANCH   1   7
BRANCH   4  18
HETATM   18  O   UNL     1     -41.233  55.713 -51.567  1.00  0.00    -0.347 OA
BRANCH  18  19
HETATM   19  C   UNL     1     -41.751  54.412 -51.289  1.00  0.00     0.215 C 
BRANCH  19  20
HETATM   20  C   UNL     1     -40.981  53.407 -52.101  1.00  0.00    -0.017 A 
HETATM   21  C   UNL     1     -39.966  52.643 -51.534  1.00  0.00     0.125 A 
HETATM   22  N   UNL     1     -39.263  51.699 -52.200  1.00  0.00    -0.272 NA
HETATM   23  C   UNL     1     -39.583  51.506 -53.497  1.00  0.00     0.116 A 
HETATM   24  C   UNL     1     -40.575  52.207 -54.158  1.00  0.00     0.020 A 
HETATM   25  C   UNL     1     -41.285  53.170 -53.445  1.00  0.00     0.012 A 
ENDBRANCH  19  20
ENDBRANCH  18  19
ENDBRANCH   4  18
TORSDOF 6
ENDMDL
MODEL 10
REMARK VINA RESULT:      -6.7     15.946     18.807
REMARK  6 active torsions:
REMARK  status: ('A' for Active; 'I' for Inactive)
REMARK    1  A    between atoms: C_2  and  N_3 
REMARK    2  A    between atoms: C_2  and  C_11 
REMARK       I    between atoms: N_3  and  C_4 
REMARK    3  A    between atoms: C_4  and  C_5 
REMARK    4  A    between atoms: C_14  and  O_15 
REMARK    5  A    between atoms: O_15  and  C_16 
REMARK    6  A    between atoms: C_16  and  C_17 
ROOT
HETATM    1  C   UNL     1     -35.092  40.073 -50.703  1.00  0.00    -0.036 A 
HETATM    2  C   UNL     1     -35.156  39.004 -49.795  1.00  0.00     0.012 A 
HETATM    3  C   UNL     1     -34.017  38.579 -49.099  1.00  0.00     0.037 A 
HETATM    4  C   UNL     1     -32.796  39.217 -49.301  1.00  0.00     0.069 A 
HETATM    5  C   UNL     1     -32.733  40.310 -50.167  1.00  0.00     0.037 A 
HETATM    6  C   UNL     1     -33.867  40.738 -50.860  1.00  0.00     0.012 A 
ENDROOT
BRANCH   1   7
HETATM    7  C   UNL     1     -36.341  40.502 -51.458  1.00  0.00     0.113 C 
HETATM    8  C   UNL     1     -37.566  39.662 -51.076  1.00  0.00     0.037 C 
BRANCH   7   9
HETATM    9  N   UNL     1     -36.079  40.465 -52.888  1.00  0.00    -0.352 N 
HETATM   10  C   UNL     1     -35.987  41.609 -53.641  1.00  0.00     0.225 C 
HETATM   11  O   UNL     1     -36.140  42.737 -53.192  1.00  0.00    -0.273 OA
HETATM   12  H   UNL     1     -35.930  39.561 -53.314  1.00  0.00     0.163 HD
BRANCH  10  13
HETATM   13  C   UNL     1     -35.730  41.378 -55.081  1.00  0.00     0.119 A 
HETATM   14  C   UNL     1     -34.395  40.903 -55.592  1.00  0.00     0.126 A 
HETATM   15 CL   UNL     1     -33.029  40.627 -54.530  1.00  0.00    -0.101 Cl
HETATM   16 CL   UNL     1     -34.410  39.805 -56.979  1.00  0.00    -0.101 Cl
HETATM   17  C   UNL     1     -34.827  42.321 -55.842  1.00  0.00     0.060 A 
ENDBRANCH  10  13
ENDBRANCH   7   9
ENDBRANCH   1   7
BRANCH   4  18
HETATM   18  O   UNL     1     -31.608  38.886 -48.715  1.00  0.00    -0.347 OA
BRANCH  18  19
HETATM   19  C   UNL     1     -31.674  38.176 -47.478  1.00  0.00     0.215 C 
BRANCH  19  20
HETATM   20  C   UNL     1     -31.103  39.049 -46.394  1.00  0.00    -0.017 A 
HETATM   21  C   UNL     1     -31.295  38.752 -45.049  1.00  0.00     0.125 A 
HETATM   22  N   UNL     1     -30.778  39.475 -44.030  1.00  0.00    -0.272 NA
HETATM   23  C   UNL     1     -30.034  40.550 -44.365  1.00  0.00     0.116 A 
HETATM   24  C   UNL     1     -29.779  40.934 -45.669  1.00  0.00     0.020 A 
HETATM   25  C   UNL     1     -30.320  40.168 -46.697  1.00  0.00     0.012 A 
ENDBRANCH  19  20
ENDBRANCH  18  19
ENDBRANCH   4  18
TORSDOF 6
ENDMDL
