MODEL 1
REMARK VINA RESULT:      -7.9      0.000      0.000
REMARK  7 active torsions:
REMARK  status: ('A' for Active; 'I' for Inactive)
REMARK    1  A    between atoms: C_2  and  N_3 
REMARK    2  A    between atoms: C_2  and  C_12 
REMARK       I    between atoms: N_3  and  C_4 
REMARK    3  A    between atoms: C_4  and  C_5 
REMARK    4  A    between atoms: N_17  and  C_19 
REMARK    5  A    between atoms: C_19  and  C_20 
REMARK    6  A    between atoms: C_22  and  C_23 
REMARK    7  A    between atoms: C_23  and  N_24 
ROOT
HETATM    1  C   UNL     1     -42.750  58.238 -51.200  1.00  0.00     0.152 A 
HETATM    2  N   UNL     1     -42.443  56.902 -51.035  1.00  0.00    -0.317 N 
HETATM    3  C   UNL     1     -43.646  56.259 -50.872  1.00  0.00     0.131 A 
HETATM    4  C   UNL     1     -43.853  54.795 -50.759  1.00  0.00     0.108 C 
HETATM    5  C   UNL     1     -43.154  54.068 -51.898  1.00  0.00     0.243 C 
HETATM    6  N   UNL     1     -41.664  53.848 -51.643  1.00  0.00    -0.065 N 
HETATM    7  H   UNL     1     -41.603  52.954 -51.136  1.00  0.00     0.280 HD
HETATM    8  C   UNL     1     -40.978  54.853 -50.719  1.00  0.00     0.255 C 
HETATM    9  C   UNL     1     -41.128  56.313 -51.149  1.00  0.00     0.159 C 
HETATM   10  N   UNL     1     -44.613  57.143 -50.930  1.00  0.00    -0.135 NA
HETATM   11  N   UNL     1     -44.060  58.371 -51.142  1.00  0.00    -0.133 NA
ENDROOT
BRANCH   6  12
HETATM   12  C   UNL     1     -40.895  53.615 -52.943  1.00  0.00     0.280 C 
BRANCH  12  13
HETATM   13  C   UNL     1     -41.657  54.057 -54.165  1.00  0.00     0.009 A 
HETATM   14  S   UNL     1     -41.328  55.578 -54.892  1.00  0.00    -0.096 SA
HETATM   15  C   UNL     1     -42.550  55.372 -56.076  1.00  0.00     0.009 A 
HETATM   16  C   UNL     1     -43.173  54.146 -55.939  1.00  0.00     0.017 A 
HETATM   17  C   UNL     1     -42.650  53.384 -54.851  1.00  0.00     0.017 A 
BRANCH  15  18
HETATM   18  C   UNL     1     -42.844  56.460 -57.072  1.00  0.00     0.280 C 
BRANCH  18  19
HETATM   19  N   UNL     1     -43.930  56.114 -58.071  1.00  0.00    -0.067 N 
HETATM   20  H   UNL     1     -44.536  55.421 -57.613  1.00  0.00     0.280 HD
HETATM   21  C   UNL     1     -44.786  57.303 -58.444  1.00  0.00     0.235 C 
HETATM   22  C   UNL     1     -45.897  56.864 -59.388  1.00  0.00     0.028 C 
HETATM   23  C   UNL     1     -45.343  56.171 -60.626  1.00  0.00     0.003 C 
HETATM   24  C   UNL     1     -44.440  55.008 -60.239  1.00  0.00     0.028 C 
HETATM   25  C   UNL     1     -43.332  55.446 -59.294  1.00  0.00     0.235 C 
ENDBRANCH  18  19
ENDBRANCH  15  18
ENDBRANCH  12  13
ENDBRANCH   6  12
BRANCH   1  26
HETATM   26  C   UNL     1     -41.778  59.348 -51.488  1.00  0.00     0.152 C 
HETATM   27  C   UNL     1     -41.217  59.937 -50.198  1.00  0.00     0.040 C 
BRANCH  26  28
HETATM   28  N   UNL     1     -42.498  60.361 -52.244  1.00  0.00    -0.349 N 
HETATM   29  C   UNL     1     -42.273  60.563 -53.583  1.00  0.00     0.222 C 
HETATM   30  O   UNL     1     -41.351  60.014 -54.182  1.00  0.00    -0.273 OA
HETATM   31  H   UNL     1     -43.358  60.704 -51.830  1.00  0.00     0.163 HD
BRANCH  29  32
HETATM   32  C   UNL     1     -43.292  61.471 -54.273  1.00  0.00     0.082 C 
HETATM   33  C   UNL     1     -43.163  61.400 -55.798  1.00  0.00     0.040 C 
HETATM   34  C   UNL     1     -43.688  60.083 -56.361  1.00  0.00     0.168 C 
HETATM   35  O   UNL     1     -45.011  59.790 -55.910  1.00  0.00    -0.391 OA
HETATM   36  C   UNL     1     -45.128  59.762 -54.489  1.00  0.00     0.168 C 
HETATM   37  C   UNL     1     -44.721  61.094 -53.870  1.00  0.00     0.040 C 
ENDBRANCH  29  32
ENDBRANCH  26  28
ENDBRANCH   1  26
TORSDOF 7
ENDMDL
MODEL 2
REMARK VINA RESULT:      -7.6      2.504      6.195
REMARK  7 active torsions:
REMARK  status: ('A' for Active; 'I' for Inactive)
REMARK    1  A    between atoms: C_2  and  N_3 
REMARK    2  A    between atoms: C_2  and  C_12 
REMARK       I    between atoms: N_3  and  C_4 
REMARK    3  A    between atoms: C_4  and  C_5 
REMARK    4  A    between atoms: N_17  and  C_19 
REMARK    5  A    between atoms: C_19  and  C_20 
REMARK    6  A    between atoms: C_22  and  C_23 
REMARK    7  A    between atoms: C_23  and  N_24 
ROOT
HETATM    1  C   UNL     1     -43.959  60.131 -54.700  1.00  0.00     0.152 A 
HETATM    2  N   UNL     1     -43.839  59.615 -53.425  1.00  0.00    -0.317 N 
HETATM    3  C   UNL     1     -44.944  60.056 -52.737  1.00  0.00     0.131 A 
HETATM    4  C   UNL     1     -45.323  59.687 -51.352  1.00  0.00     0.108 C 
HETATM    5  C   UNL     1     -45.314  58.175 -51.181  1.00  0.00     0.243 C 
HETATM    6  N   UNL     1     -43.919  57.611 -50.918  1.00  0.00    -0.065 N 
HETATM    7  H   UNL     1     -43.797  57.650 -49.898  1.00  0.00     0.280 HD
HETATM    8  C   UNL     1     -42.745  58.418 -51.472  1.00  0.00     0.255 C 
HETATM    9  C   UNL     1     -42.820  58.695 -52.973  1.00  0.00     0.159 C 
HETATM   10  N   UNL     1     -45.680  60.790 -53.537  1.00  0.00    -0.135 NA
HETATM   11  N   UNL     1     -45.074  60.831 -54.758  1.00  0.00    -0.133 NA
ENDROOT
BRANCH   6  12
HETATM   12  C   UNL     1     -43.835  56.124 -51.266  1.00  0.00     0.280 C 
BRANCH  12  13
HETATM   13  C   UNL     1     -42.510  55.509 -50.898  1.00  0.00     0.009 A 
HETATM   14  S   UNL     1     -41.868  54.210 -51.821  1.00  0.00    -0.096 SA
HETATM   15  C   UNL     1     -40.496  54.055 -50.806  1.00  0.00     0.009 A 
HETATM   16  C   UNL     1     -40.512  55.003 -49.801  1.00  0.00     0.017 A 
HETATM   17  C   UNL     1     -41.661  55.848 -49.862  1.00  0.00     0.017 A 
BRANCH  15  18
HETATM   18  C   UNL     1     -39.480  52.973 -51.050  1.00  0.00     0.280 C 
BRANCH  18  19
HETATM   19  N   UNL     1     -39.935  51.895 -52.011  1.00  0.00    -0.067 N 
HETATM   20  H   UNL     1     -40.948  51.788 -51.870  1.00  0.00     0.280 HD
HETATM   21  C   UNL     1     -39.707  52.263 -53.460  1.00  0.00     0.235 C 
HETATM   22  C   UNL     1     -40.256  51.169 -54.364  1.00  0.00     0.028 C 
HETATM   23  C   UNL     1     -39.650  49.811 -54.038  1.00  0.00     0.003 C 
HETATM   24  C   UNL     1     -39.839  49.472 -52.566  1.00  0.00     0.028 C 
HETATM   25  C   UNL     1     -39.292  50.567 -51.662  1.00  0.00     0.235 C 
ENDBRANCH  18  19
ENDBRANCH  15  18
ENDBRANCH  12  13
ENDBRANCH   6  12
BRANCH   1  26
HETATM   26  C   UNL     1     -43.035  59.874 -55.856  1.00  0.00     0.152 C 
HETATM   27  C   UNL     1     -42.644  61.175 -56.549  1.00  0.00     0.040 C 
BRANCH  26  28
HETATM   28  N   UNL     1     -43.738  58.994 -56.777  1.00  0.00    -0.349 N 
HETATM   29  C   UNL     1     -43.240  57.764 -57.129  1.00  0.00     0.222 C 
HETATM   30  O   UNL     1     -42.109  57.402 -56.814  1.00  0.00    -0.273 OA
HETATM   31  H   UNL     1     -44.725  59.186 -56.918  1.00  0.00     0.163 HD
BRANCH  29  32
HETATM   32  C   UNL     1     -44.222  56.869 -57.886  1.00  0.00     0.082 C 
HETATM   33  C   UNL     1     -44.934  57.637 -59.005  1.00  0.00     0.040 C 
HETATM   34  C   UNL     1     -44.009  57.925 -60.185  1.00  0.00     0.168 C 
HETATM   35  O   UNL     1     -43.354  56.748 -60.660  1.00  0.00    -0.391 OA
HETATM   36  C   UNL     1     -42.612  56.070 -59.648  1.00  0.00     0.168 C 
HETATM   37  C   UNL     1     -43.504  55.655 -58.485  1.00  0.00     0.040 C 
ENDBRANCH  29  32
ENDBRANCH  26  28
ENDBRANCH   1  26
TORSDOF 7
ENDMDL
MODEL 3
REMARK VINA RESULT:      -7.4      3.562      6.184
REMARK  7 active torsions:
REMARK  status: ('A' for Active; 'I' for Inactive)
REMARK    1  A    between atoms: C_2  and  N_3 
REMARK    2  A    between atoms: C_2  and  C_12 
REMARK       I    between atoms: N_3  and  C_4 
REMARK    3  A    between atoms: C_4  and  C_5 
REMARK    4  A    between atoms: N_17  and  C_19 
REMARK    5  A    between atoms: C_19  and  C_20 
REMARK    6  A    between atoms: C_22  and  C_23 
REMARK    7  A    between atoms: C_23  and  N_24 
ROOT
HETATM    1  C   UNL     1     -41.614  57.451 -51.335  1.00  0.00     0.152 A 
HETATM    2  N   UNL     1     -42.425  58.173 -52.188  1.00  0.00    -0.317 N 
HETATM    3  C   UNL     1     -41.747  59.339 -52.451  1.00  0.00     0.131 A 
HETATM    4  C   UNL     1     -42.160  60.403 -53.397  1.00  0.00     0.108 C 
HETATM    5  C   UNL     1     -42.491  59.809 -54.758  1.00  0.00     0.243 C 
HETATM    6  N   UNL     1     -43.904  59.233 -54.833  1.00  0.00    -0.065 N 
HETATM    7  H   UNL     1     -44.504  60.020 -55.115  1.00  0.00     0.280 HD
HETATM    8  C   UNL     1     -44.510  58.750 -53.516  1.00  0.00     0.255 C 
HETATM    9  C   UNL     1     -43.665  57.715 -52.772  1.00  0.00     0.159 C 
HETATM   10  N   UNL     1     -40.608  59.326 -51.802  1.00  0.00    -0.135 NA
HETATM   11  N   UNL     1     -40.519  58.151 -51.115  1.00  0.00    -0.133 NA
ENDROOT
BRANCH   6  12
HETATM   12  C   UNL     1     -44.040  58.210 -55.961  1.00  0.00     0.280 C 
BRANCH  12  13
HETATM   13  C   UNL     1     -43.349  58.638 -57.229  1.00  0.00     0.009 A 
HETATM   14  S   UNL     1     -43.854  60.056 -58.058  1.00  0.00    -0.096 SA
HETATM   15  C   UNL     1     -42.713  59.828 -59.317  1.00  0.00     0.009 A 
HETATM   16  C   UNL     1     -41.938  58.708 -59.088  1.00  0.00     0.017 A 
HETATM   17  C   UNL     1     -42.292  58.033 -57.881  1.00  0.00     0.017 A 
BRANCH  15  18
HETATM   18  C   UNL     1     -42.666  60.770 -60.489  1.00  0.00     0.280 C 
BRANCH  18  19
HETATM   19  N   UNL     1     -41.327  61.448 -60.691  1.00  0.00    -0.067 N 
HETATM   20  H   UNL     1     -40.634  60.696 -60.799  1.00  0.00     0.280 HD
HETATM   21  C   UNL     1     -41.281  62.301 -61.938  1.00  0.00     0.235 C 
HETATM   22  C   UNL     1     -39.887  62.886 -62.114  1.00  0.00     0.028 C 
HETATM   23  C   UNL     1     -39.449  63.676 -60.889  1.00  0.00     0.003 C 
HETATM   24  C   UNL     1     -39.548  62.825 -59.630  1.00  0.00     0.028 C 
HETATM   25  C   UNL     1     -40.941  62.238 -59.456  1.00  0.00     0.235 C 
ENDBRANCH  18  19
ENDBRANCH  15  18
ENDBRANCH  12  13
ENDBRANCH   6  12
BRANCH   1  26
HETATM   26  C   UNL     1     -41.878  56.067 -50.813  1.00  0.00     0.152 C 
HETATM   27  C   UNL     1     -41.201  55.848 -49.464  1.00  0.00     0.040 C 
BRANCH  26  28
HETATM   28  N   UNL     1     -41.364  55.132 -51.802  1.00  0.00    -0.349 N 
HETATM   29  C   UNL     1     -42.184  54.258 -52.470  1.00  0.00     0.222 C 
HETATM   30  O   UNL     1     -43.365  54.106 -52.164  1.00  0.00    -0.273 OA
HETATM   31  H   UNL     1     -40.449  55.343 -52.187  1.00  0.00     0.163 HD
BRANCH  29  32
HETATM   32  C   UNL     1     -41.530  53.542 -53.652  1.00  0.00     0.082 C 
HETATM   33  C   UNL     1     -42.560  53.177 -54.727  1.00  0.00     0.040 C 
HETATM   34  C   UNL     1     -43.041  54.400 -55.503  1.00  0.00     0.168 C 
HETATM   35  O   UNL     1     -41.959  55.173 -56.023  1.00  0.00    -0.391 OA
HETATM   36  C   UNL     1     -41.038  55.597 -55.020  1.00  0.00     0.168 C 
HETATM   37  C   UNL     1     -40.435  54.411 -54.278  1.00  0.00     0.040 C 
ENDBRANCH  29  32
ENDBRANCH  26  28
ENDBRANCH   1  26
TORSDOF 7
ENDMDL
MODEL 4
REMARK VINA RESULT:      -7.3      2.395      5.761
REMARK  7 active torsions:
REMARK  status: ('A' for Active; 'I' for Inactive)
REMARK    1  A    between atoms: C_2  and  N_3 
REMARK    2  A    between atoms: C_2  and  C_12 
REMARK       I    between atoms: N_3  and  C_4 
REMARK    3  A    between atoms: C_4  and  C_5 
REMARK    4  A    between atoms: N_17  and  C_19 
REMARK    5  A    between atoms: C_19  and  C_20 
REMARK    6  A    between atoms: C_22  and  C_23 
REMARK    7  A    between atoms: C_23  and  N_24 
ROOT
HETATM    1  C   UNL     1     -44.120  61.914 -53.483  1.00  0.00     0.152 A 
HETATM    2  N   UNL     1     -43.958  60.929 -52.530  1.00  0.00    -0.317 N 
HETATM    3  C   UNL     1     -44.995  61.092 -51.644  1.00  0.00     0.131 A 
HETATM    4  C   UNL     1     -45.317  60.212 -50.494  1.00  0.00     0.108 C 
HETATM    5  C   UNL     1     -45.383  58.758 -50.936  1.00  0.00     0.243 C 
HETATM    6  N   UNL     1     -44.010  58.095 -51.023  1.00  0.00    -0.065 N 
HETATM    7  H   UNL     1     -43.828  57.721 -50.082  1.00  0.00     0.280 HD
HETATM    8  C   UNL     1     -42.825  59.021 -51.297  1.00  0.00     0.255 C 
HETATM    9  C   UNL     1     -42.968  59.876 -52.556  1.00  0.00     0.159 C 
HETATM   10  N   UNL     1     -45.733  62.104 -52.031  1.00  0.00    -0.135 NA
HETATM   11  N   UNL     1     -45.196  62.611 -53.178  1.00  0.00    -0.133 NA
ENDROOT
BRANCH   6  12
HETATM   12  C   UNL     1     -44.029  56.869 -51.936  1.00  0.00     0.280 C 
BRANCH  12  13
HETATM   13  C   UNL     1     -43.087  55.784 -51.483  1.00  0.00     0.009 A 
HETATM   14  S   UNL     1     -41.626  55.490 -52.338  1.00  0.00    -0.096 SA
HETATM   15  C   UNL     1     -41.195  54.180 -51.320  1.00  0.00     0.009 A 
HETATM   16  C   UNL     1     -42.134  53.995 -50.324  1.00  0.00     0.017 A 
HETATM   17  C   UNL     1     -43.213  54.926 -50.408  1.00  0.00     0.017 A 
BRANCH  15  18
HETATM   18  C   UNL     1     -39.948  53.382 -51.583  1.00  0.00     0.280 C 
BRANCH  18  19
HETATM   19  N   UNL     1     -40.190  52.054 -52.272  1.00  0.00    -0.067 N 
HETATM   20  H   UNL     1     -41.176  51.816 -52.104  1.00  0.00     0.280 HD
HETATM   21  C   UNL     1     -39.978  52.119 -53.768  1.00  0.00     0.235 C 
HETATM   22  C   UNL     1     -40.312  50.774 -54.396  1.00  0.00     0.028 C 
HETATM   23  C   UNL     1     -39.504  49.644 -53.773  1.00  0.00     0.003 C 
HETATM   24  C   UNL     1     -39.683  49.619 -52.261  1.00  0.00     0.028 C 
HETATM   25  C   UNL     1     -39.351  50.965 -51.633  1.00  0.00     0.235 C 
ENDBRANCH  18  19
ENDBRANCH  15  18
ENDBRANCH  12  13
ENDBRANCH   6  12
BRANCH   1  26
HETATM   26  C   UNL     1     -43.278  62.112 -54.713  1.00  0.00     0.152 C 
HETATM   27  C   UNL     1     -43.317  63.563 -55.179  1.00  0.00     0.040 C 
BRANCH  26  28
HETATM   28  N   UNL     1     -43.809  61.229 -55.741  1.00  0.00    -0.349 N 
HETATM   29  C   UNL     1     -43.002  60.379 -56.454  1.00  0.00     0.222 C 
HETATM   30  O   UNL     1     -41.776  60.424 -56.379  1.00  0.00    -0.273 OA
HETATM   31  H   UNL     1     -44.808  61.052 -55.709  1.00  0.00     0.163 HD
BRANCH  29  32
HETATM   32  C   UNL     1     -43.748  59.343 -57.296  1.00  0.00     0.082 C 
HETATM   33  C   UNL     1     -42.832  58.184 -57.700  1.00  0.00     0.040 C 
HETATM   34  C   UNL     1     -42.515  57.263 -56.524  1.00  0.00     0.168 C 
HETATM   35  O   UNL     1     -43.692  56.820 -55.849  1.00  0.00    -0.391 OA
HETATM   36  C   UNL     1     -44.512  57.891 -55.386  1.00  0.00     0.168 C 
HETATM   37  C   UNL     1     -44.957  58.790 -56.534  1.00  0.00     0.040 C 
ENDBRANCH  29  32
ENDBRANCH  26  28
ENDBRANCH   1  26
TORSDOF 7
ENDMDL
MODEL 5
REMARK VINA RESULT:      -7.3      3.890      6.792
REMARK  7 active torsions:
REMARK  status: ('A' for Active; 'I' for Inactive)
REMARK    1  A    between atoms: C_2  and  N_3 
REMARK    2  A    between atoms: C_2  and  C_12 
REMARK       I    between atoms: N_3  and  C_4 
REMARK    3  A    between atoms: C_4  and  C_5 
REMARK    4  A    between atoms: N_17  and  C_19 
REMARK    5  A    between atoms: C_19  and  C_20 
REMARK    6  A    between atoms: C_22  and  C_23 
REMARK    7  A    between atoms: C_23  and  N_24 
ROOT
HETATM    1  C   UNL     1     -44.285  60.658 -51.978  1.00  0.00     0.152 A 
HETATM    2  N   UNL     1     -44.025  59.932 -53.123  1.00  0.00    -0.317 N 
HETATM    3  C   UNL     1     -42.688  60.107 -53.382  1.00  0.00     0.131 A 
HETATM    4  C   UNL     1     -41.905  59.446 -54.454  1.00  0.00     0.108 C 
HETATM    5  C   UNL     1     -42.118  57.940 -54.420  1.00  0.00     0.243 C 
HETATM    6  N   UNL     1     -43.400  57.501 -55.124  1.00  0.00    -0.065 N 
HETATM    7  H   UNL     1     -43.136  57.364 -56.109  1.00  0.00     0.280 HD
HETATM    8  C   UNL     1     -44.532  58.526 -55.175  1.00  0.00     0.255 C 
HETATM    9  C   UNL     1     -44.958  59.067 -53.810  1.00  0.00     0.159 C 
HETATM   10  N   UNL     1     -42.174  60.887 -52.462  1.00  0.00    -0.135 NA
HETATM   11  N   UNL     1     -43.161  61.224 -51.585  1.00  0.00    -0.133 NA
ENDROOT
BRANCH   6  12
HETATM   12  C   UNL     1     -43.866  56.124 -54.648  1.00  0.00     0.280 C 
BRANCH  12  13
HETATM   13  C   UNL     1     -42.991  55.551 -53.564  1.00  0.00     0.009 A 
HETATM   14  S   UNL     1     -41.624  54.591 -53.966  1.00  0.00    -0.096 SA
HETATM   15  C   UNL     1     -41.238  54.300 -52.322  1.00  0.00     0.009 A 
HETATM   16  C   UNL     1     -42.118  54.955 -51.482  1.00  0.00     0.017 A 
HETATM   17  C   UNL     1     -43.116  55.686 -52.195  1.00  0.00     0.017 A 
BRANCH  15  18
HETATM   18  C   UNL     1     -40.086  53.408 -51.951  1.00  0.00     0.280 C 
BRANCH  18  19
HETATM   19  N   UNL     1     -40.233  51.973 -52.415  1.00  0.00    -0.067 N 
HETATM   20  H   UNL     1     -41.233  51.747 -52.347  1.00  0.00     0.280 HD
HETATM   21  C   UNL     1     -39.811  51.774 -53.854  1.00  0.00     0.235 C 
HETATM   22  C   UNL     1     -40.058  50.331 -54.269  1.00  0.00     0.028 C 
HETATM   23  C   UNL     1     -39.350  49.349 -53.346  1.00  0.00     0.003 C 
HETATM   24  C   UNL     1     -39.740  49.592 -51.894  1.00  0.00     0.028 C 
HETATM   25  C   UNL     1     -39.496  51.035 -51.479  1.00  0.00     0.235 C 
ENDBRANCH  18  19
ENDBRANCH  15  18
ENDBRANCH  12  13
ENDBRANCH   6  12
BRANCH   1  26
HETATM   26  C   UNL     1     -45.595  60.728 -51.244  1.00  0.00     0.152 C 
HETATM   27  C   UNL     1     -46.612  61.565 -52.012  1.00  0.00     0.040 C 
BRANCH  26  28
HETATM   28  N   UNL     1     -45.324  61.318 -49.942  1.00  0.00    -0.349 N 
HETATM   29  C   UNL     1     -45.500  60.615 -48.776  1.00  0.00     0.222 C 
HETATM   30  O   UNL     1     -46.040  59.511 -48.753  1.00  0.00    -0.273 OA
HETATM   31  H   UNL     1     -44.735  62.144 -49.937  1.00  0.00     0.163 HD
BRANCH  29  32
HETATM   32  C   UNL     1     -44.921  61.287 -47.531  1.00  0.00     0.082 C 
HETATM   33  C   UNL     1     -45.077  62.810 -47.591  1.00  0.00     0.040 C 
HETATM   34  C   UNL     1     -46.522  63.250 -47.375  1.00  0.00     0.168 C 
HETATM   35  O   UNL     1     -47.089  62.689 -46.191  1.00  0.00    -0.391 OA
HETATM   36  C   UNL     1     -47.033  61.264 -46.161  1.00  0.00     0.168 C 
HETATM   37  C   UNL     1     -45.598  60.760 -46.261  1.00  0.00     0.040 C 
ENDBRANCH  29  32
ENDBRANCH  26  28
ENDBRANCH   1  26
TORSDOF 7
ENDMDL
MODEL 6
REMARK VINA RESULT:      -7.2      2.896      7.536
REMARK  7 active torsions:
REMARK  status: ('A' for Active; 'I' for Inactive)
REMARK    1  A    between atoms: C_2  and  N_3 
REMARK    2  A    between atoms: C_2  and  C_12 
REMARK       I    between atoms: N_3  and  C_4 
REMARK    3  A    between atoms: C_4  and  C_5 
REMARK    4  A    between atoms: N_17  and  C_19 
REMARK    5  A    between atoms: C_19  and  C_20 
REMARK    6  A    between atoms: C_22  and  C_23 
REMARK    7  A    between atoms: C_23  and  N_24 
ROOT
HETATM    1  C   UNL     1     -42.614  60.449 -58.863  1.00  0.00     0.152 A 
HETATM    2  N   UNL     1     -42.566  60.488 -57.484  1.00  0.00    -0.317 N 
HETATM    3  C   UNL     1     -42.969  61.754 -57.132  1.00  0.00     0.131 A 
HETATM    4  C   UNL     1     -43.180  62.259 -55.753  1.00  0.00     0.108 C 
HETATM    5  C   UNL     1     -44.078  61.313 -54.970  1.00  0.00     0.243 C 
HETATM    6  N   UNL     1     -43.326  60.118 -54.387  1.00  0.00    -0.065 N 
HETATM    7  H   UNL     1     -42.986  60.433 -53.469  1.00  0.00     0.280 HD
HETATM    8  C   UNL     1     -42.064  59.683 -55.130  1.00  0.00     0.255 C 
HETATM    9  C   UNL     1     -42.276  59.373 -56.611  1.00  0.00     0.159 C 
HETATM   10  N   UNL     1     -43.239  62.434 -58.220  1.00  0.00    -0.135 NA
HETATM   11  N   UNL     1     -43.027  61.623 -59.295  1.00  0.00    -0.133 NA
ENDROOT
BRANCH   6  12
HETATM   12  C   UNL     1     -44.266  58.952 -54.079  1.00  0.00     0.280 C 
BRANCH  12  13
HETATM   13  C   UNL     1     -43.646  57.921 -53.172  1.00  0.00     0.009 A 
HETATM   14  S   UNL     1     -43.739  56.251 -53.564  1.00  0.00    -0.096 SA
HETATM   15  C   UNL     1     -42.924  55.782 -52.131  1.00  0.00     0.009 A 
HETATM   16  C   UNL     1     -42.557  56.886 -51.385  1.00  0.00     0.017 A 
HETATM   17  C   UNL     1     -42.958  58.115 -51.990  1.00  0.00     0.017 A 
BRANCH  15  18
HETATM   18  C   UNL     1     -42.714  54.329 -51.809  1.00  0.00     0.280 C 
BRANCH  18  19
HETATM   19  N   UNL     1     -41.412  53.756 -52.332  1.00  0.00    -0.067 N 
HETATM   20  H   UNL     1     -40.764  54.548 -52.427  1.00  0.00     0.280 HD
HETATM   21  C   UNL     1     -40.786  52.757 -51.385  1.00  0.00     0.235 C 
HETATM   22  C   UNL     1     -39.451  52.284 -51.942  1.00  0.00     0.028 C 
HETATM   23  C   UNL     1     -39.597  51.702 -53.341  1.00  0.00     0.003 C 
HETATM   24  C   UNL     1     -40.276  52.696 -54.274  1.00  0.00     0.028 C 
HETATM   25  C   UNL     1     -41.610  53.170 -53.717  1.00  0.00     0.235 C 
ENDBRANCH  18  19
ENDBRANCH  15  18
ENDBRANCH  12  13
ENDBRANCH   6  12
BRANCH   1  26
HETATM   26  C   UNL     1     -42.335  59.254 -59.731  1.00  0.00     0.152 C 
HETATM   27  C   UNL     1     -42.271  59.645 -61.203  1.00  0.00     0.040 C 
BRANCH  26  28
HETATM   28  N   UNL     1     -43.409  58.299 -59.501  1.00  0.00    -0.349 N 
HETATM   29  C   UNL     1     -43.241  56.953 -59.712  1.00  0.00     0.222 C 
HETATM   30  O   UNL     1     -42.234  56.496 -60.250  1.00  0.00    -0.273 OA
HETATM   31  H   UNL     1     -44.173  58.615 -58.913  1.00  0.00     0.163 HD
BRANCH  29  32
HETATM   32  C   UNL     1     -44.370  56.075 -59.172  1.00  0.00     0.082 C 
HETATM   33  C   UNL     1     -45.722  56.792 -59.244  1.00  0.00     0.040 C 
HETATM   34  C   UNL     1     -46.244  56.895 -60.675  1.00  0.00     0.168 C 
HETATM   35  O   UNL     1     -46.260  55.630 -61.338  1.00  0.00    -0.391 OA
HETATM   36  C   UNL     1     -44.985  54.990 -61.358  1.00  0.00     0.168 C 
HETATM   37  C   UNL     1     -44.455  54.757 -59.949  1.00  0.00     0.040 C 
ENDBRANCH  29  32
ENDBRANCH  26  28
ENDBRANCH   1  26
TORSDOF 7
ENDMDL
MODEL 7
REMARK VINA RESULT:      -7.1      2.608      5.846
REMARK  7 active torsions:
REMARK  status: ('A' for Active; 'I' for Inactive)
REMARK    1  A    between atoms: C_2  and  N_3 
REMARK    2  A    between atoms: C_2  and  C_12 
REMARK       I    between atoms: N_3  and  C_4 
REMARK    3  A    between atoms: C_4  and  C_5 
REMARK    4  A    between atoms: N_17  and  C_19 
REMARK    5  A    between atoms: C_19  and  C_20 
REMARK    6  A    between atoms: C_22  and  C_23 
REMARK    7  A    between atoms: C_23  and  N_24 
ROOT
HETATM    1  C   UNL     1     -41.982  59.005 -52.758  1.00  0.00     0.152 A 
HETATM    2  N   UNL     1     -42.815  58.450 -53.708  1.00  0.00    -0.317 N 
HETATM    3  C   UNL     1     -42.409  58.974 -54.912  1.00  0.00     0.131 A 
HETATM    4  C   UNL     1     -42.931  58.608 -56.252  1.00  0.00     0.108 C 
HETATM    5  C   UNL     1     -42.913  57.098 -56.437  1.00  0.00     0.243 C 
HETATM    6  N   UNL     1     -44.119  56.403 -55.809  1.00  0.00    -0.065 N 
HETATM    7  H   UNL     1     -44.846  56.407 -56.537  1.00  0.00     0.280 HD
HETATM    8  C   UNL     1     -44.769  57.113 -54.622  1.00  0.00     0.255 C 
HETATM    9  C   UNL     1     -43.812  57.431 -53.473  1.00  0.00     0.159 C 
HETATM   10  N   UNL     1     -41.404  59.789 -54.706  1.00  0.00    -0.135 NA
HETATM   11  N   UNL     1     -41.131  59.805 -53.370  1.00  0.00    -0.133 NA
ENDROOT
BRANCH   6  12
HETATM   12  C   UNL     1     -43.844  54.923 -55.538  1.00  0.00     0.280 C 
BRANCH  12  13
HETATM   13  C   UNL     1     -42.554  54.692 -54.795  1.00  0.00     0.009 A 
HETATM   14  S   UNL     1     -42.558  53.890 -53.276  1.00  0.00    -0.096 SA
HETATM   15  C   UNL     1     -40.865  54.067 -53.082  1.00  0.00     0.009 A 
HETATM   16  C   UNL     1     -40.303  54.696 -54.176  1.00  0.00     0.017 A 
HETATM   17  C   UNL     1     -41.271  55.042 -55.167  1.00  0.00     0.017 A 
BRANCH  15  18
HETATM   18  C   UNL     1     -40.181  53.589 -51.830  1.00  0.00     0.280 C 
BRANCH  18  19
HETATM   19  N   UNL     1     -39.630  52.181 -51.919  1.00  0.00    -0.067 N 
HETATM   20  H   UNL     1     -38.608  52.264 -51.855  1.00  0.00     0.280 HD
HETATM   21  C   UNL     1     -40.094  51.295 -50.785  1.00  0.00     0.235 C 
HETATM   22  C   UNL     1     -39.441  49.924 -50.899  1.00  0.00     0.028 C 
HETATM   23  C   UNL     1     -39.717  49.280 -52.251  1.00  0.00     0.003 C 
HETATM   24  C   UNL     1     -39.296  50.201 -53.387  1.00  0.00     0.028 C 
HETATM   25  C   UNL     1     -39.946  51.572 -53.272  1.00  0.00     0.235 C 
ENDBRANCH  18  19
ENDBRANCH  15  18
ENDBRANCH  12  13
ENDBRANCH   6  12
BRANCH   1  26
HETATM   26  C   UNL     1     -41.974  58.692 -51.288  1.00  0.00     0.152 C 
HETATM   27  C   UNL     1     -41.621  57.230 -51.038  1.00  0.00     0.040 C 
BRANCH  26  28
HETATM   28  N   UNL     1     -43.304  58.993 -50.779  1.00  0.00    -0.349 N 
HETATM   29  C   UNL     1     -43.678  60.268 -50.437  1.00  0.00     0.222 C 
HETATM   30  O   UNL     1     -42.873  61.196 -50.391  1.00  0.00    -0.273 OA
HETATM   31  H   UNL     1     -44.021  58.299 -50.960  1.00  0.00     0.163 HD
BRANCH  29  32
HETATM   32  C   UNL     1     -45.174  60.448 -50.178  1.00  0.00     0.082 C 
HETATM   33  C   UNL     1     -45.579  61.925 -50.235  1.00  0.00     0.040 C 
HETATM   34  C   UNL     1     -45.578  62.468 -51.662  1.00  0.00     0.168 C 
HETATM   35  O   UNL     1     -46.344  61.657 -52.552  1.00  0.00    -0.391 OA
HETATM   36  C   UNL     1     -45.920  60.295 -52.578  1.00  0.00     0.168 C 
HETATM   37  C   UNL     1     -46.003  59.658 -51.196  1.00  0.00     0.040 C 
ENDBRANCH  29  32
ENDBRANCH  26  28
ENDBRANCH   1  26
TORSDOF 7
ENDMDL
MODEL 8
REMARK VINA RESULT:      -7.0      2.754      4.227
REMARK  7 active torsions:
REMARK  status: ('A' for Active; 'I' for Inactive)
REMARK    1  A    between atoms: C_2  and  N_3 
REMARK    2  A    between atoms: C_2  and  C_12 
REMARK       I    between atoms: N_3  and  C_4 
REMARK    3  A    between atoms: C_4  and  C_5 
REMARK    4  A    between atoms: N_17  and  C_19 
REMARK    5  A    between atoms: C_19  and  C_20 
REMARK    6  A    between atoms: C_22  and  C_23 
REMARK    7  A    between atoms: C_23  and  N_24 
ROOT
HETATM    1  C   UNL     1     -41.292  57.213 -51.128  1.00  0.00     0.152 A 
HETATM    2  N   UNL     1     -41.226  56.446 -52.273  1.00  0.00    -0.317 N 
HETATM    3  C   UNL     1     -41.041  55.153 -51.847  1.00  0.00     0.131 A 
HETATM    4  C   UNL     1     -41.007  53.941 -52.701  1.00  0.00     0.108 C 
HETATM    5  C   UNL     1     -42.223  53.898 -53.614  1.00  0.00     0.243 C 
HETATM    6  N   UNL     1     -42.060  54.752 -54.870  1.00  0.00    -0.065 N 
HETATM    7  H   UNL     1     -41.613  54.136 -55.562  1.00  0.00     0.280 HD
HETATM    8  C   UNL     1     -41.113  55.946 -54.759  1.00  0.00     0.255 C 
HETATM    9  C   UNL     1     -41.444  56.914 -53.623  1.00  0.00     0.159 C 
HETATM   10  N   UNL     1     -40.995  55.138 -50.537  1.00  0.00    -0.135 NA
HETATM   11  N   UNL     1     -41.158  56.415 -50.088  1.00  0.00    -0.133 NA
ENDROOT
BRANCH   6  12
HETATM   12  C   UNL     1     -43.410  55.120 -55.485  1.00  0.00     0.280 C 
BRANCH  12  13
HETATM   13  C   UNL     1     -43.285  56.039 -56.672  1.00  0.00     0.009 A 
HETATM   14  S   UNL     1     -43.782  57.679 -56.558  1.00  0.00    -0.096 SA
HETATM   15  C   UNL     1     -43.406  57.996 -58.200  1.00  0.00     0.009 A 
HETATM   16  C   UNL     1     -42.876  56.877 -58.813  1.00  0.00     0.017 A 
HETATM   17  C   UNL     1     -42.793  55.757 -57.932  1.00  0.00     0.017 A 
BRANCH  15  18
HETATM   18  C   UNL     1     -43.683  59.345 -58.804  1.00  0.00     0.280 C 
BRANCH  18  19
HETATM   19  N   UNL     1     -42.441  60.124 -59.187  1.00  0.00    -0.067 N 
HETATM   20  H   UNL     1     -41.692  59.431 -59.317  1.00  0.00     0.280 HD
HETATM   21  C   UNL     1     -42.599  60.881 -60.487  1.00  0.00     0.235 C 
HETATM   22  C   UNL     1     -41.292  61.574 -60.843  1.00  0.00     0.028 C 
HETATM   23  C   UNL     1     -40.816  62.491 -59.724  1.00  0.00     0.003 C 
HETATM   24  C   UNL     1     -40.710  61.731 -58.409  1.00  0.00     0.028 C 
HETATM   25  C   UNL     1     -42.016  61.037 -58.053  1.00  0.00     0.235 C 
ENDBRANCH  18  19
ENDBRANCH  15  18
ENDBRANCH  12  13
ENDBRANCH   6  12
BRANCH   1  26
HETATM   26  C   UNL     1     -41.561  58.690 -51.059  1.00  0.00     0.152 C 
HETATM   27  C   UNL     1     -40.844  59.326 -49.872  1.00  0.00     0.040 C 
BRANCH  26  28
HETATM   28  N   UNL     1     -43.001  58.857 -50.937  1.00  0.00    -0.349 N 
HETATM   29  C   UNL     1     -43.750  59.439 -51.929  1.00  0.00     0.222 C 
HETATM   30  O   UNL     1     -43.236  59.988 -52.901  1.00  0.00    -0.273 OA
HETATM   31  H   UNL     1     -43.463  58.279 -50.243  1.00  0.00     0.163 HD
BRANCH  29  32
HETATM   32  C   UNL     1     -45.263  59.294 -51.757  1.00  0.00     0.082 C 
HETATM   33  C   UNL     1     -45.674  59.414 -50.286  1.00  0.00     0.040 C 
HETATM   34  C   UNL     1     -45.572  60.849 -49.774  1.00  0.00     0.168 C 
HETATM   35  O   UNL     1     -46.265  61.774 -50.612  1.00  0.00    -0.391 OA
HETATM   36  C   UNL     1     -45.830  61.738 -51.970  1.00  0.00     0.168 C 
HETATM   37  C   UNL     1     -46.009  60.352 -52.577  1.00  0.00     0.040 C 
ENDBRANCH  29  32
ENDBRANCH  26  28
ENDBRANCH   1  26
TORSDOF 7
ENDMDL
MODEL 9
REMARK VINA RESULT:      -6.9     17.509     20.145
REMARK  7 active torsions:
REMARK  status: ('A' for Active; 'I' for Inactive)
REMARK    1  A    between atoms: C_2  and  N_3 
REMARK    2  A    between atoms: C_2  and  C_12 
REMARK       I    between atoms: N_3  and  C_4 
REMARK    3  A    between atoms: C_4  and  C_5 
REMARK    4  A    between atoms: N_17  and  C_19 
REMARK    5  A    between atoms: C_19  and  C_20 
REMARK    6  A    between atoms: C_22  and  C_23 
REMARK    7  A    between atoms: C_23  and  N_24 
ROOT
HETATM    1  C   UNL     1     -33.828  40.027 -52.291  1.00  0.00     0.152 A 
HETATM    2  N   UNL     1     -34.832  40.213 -53.220  1.00  0.00    -0.317 N 
HETATM    3  C   UNL     1     -35.552  41.298 -52.781  1.00  0.00     0.131 A 
HETATM    4  C   UNL     1     -36.676  41.955 -53.492  1.00  0.00     0.108 C 
HETATM    5  C   UNL     1     -36.284  42.280 -54.925  1.00  0.00     0.243 C 
HETATM    6  N   UNL     1     -36.422  41.087 -55.869  1.00  0.00    -0.065 N 
HETATM    7  H   UNL     1     -37.393  41.118 -56.208  1.00  0.00     0.280 HD
HETATM    8  C   UNL     1     -36.287  39.702 -55.236  1.00  0.00     0.255 C 
HETATM    9  C   UNL     1     -34.989  39.485 -54.459  1.00  0.00     0.159 C 
HETATM   10  N   UNL     1     -35.024  41.737 -51.664  1.00  0.00    -0.135 NA
HETATM   11  N   UNL     1     -33.949  40.954 -51.362  1.00  0.00    -0.133 NA
ENDROOT
BRANCH   6  12
HETATM   12  C   UNL     1     -35.563  41.253 -57.123  1.00  0.00     0.280 C 
BRANCH  12  13
HETATM   13  C   UNL     1     -36.230  40.727 -58.367  1.00  0.00     0.009 A 
HETATM   14  S   UNL     1     -36.055  39.078 -58.816  1.00  0.00    -0.096 SA
HETATM   15  C   UNL     1     -36.979  39.281 -60.246  1.00  0.00     0.009 A 
HETATM   16  C   UNL     1     -37.441  40.579 -60.357  1.00  0.00     0.017 A 
HETATM   17  C   UNL     1     -37.024  41.405 -59.271  1.00  0.00     0.017 A 
BRANCH  15  18
HETATM   18  C   UNL     1     -37.175  38.137 -61.201  1.00  0.00     0.280 C 
BRANCH  18  19
HETATM   19  N   UNL     1     -38.612  37.678 -61.337  1.00  0.00    -0.067 N 
HETATM   20  H   UNL     1     -38.586  36.650 -61.377  1.00  0.00     0.280 HD
HETATM   21  C   UNL     1     -39.471  38.072 -60.156  1.00  0.00     0.235 C 
HETATM   22  C   UNL     1     -40.876  37.512 -60.329  1.00  0.00     0.028 C 
HETATM   23  C   UNL     1     -41.504  37.960 -61.642  1.00  0.00     0.003 C 
HETATM   24  C   UNL     1     -40.607  37.605 -62.820  1.00  0.00     0.028 C 
HETATM   25  C   UNL     1     -39.203  38.162 -62.647  1.00  0.00     0.235 C 
ENDBRANCH  18  19
ENDBRANCH  15  18
ENDBRANCH  12  13
ENDBRANCH   6  12
BRANCH   1  26
HETATM   26  C   UNL     1     -32.727  39.007 -52.360  1.00  0.00     0.152 C 
HETATM   27  C   UNL     1     -31.974  38.918 -51.037  1.00  0.00     0.040 C 
BRANCH  26  28
HETATM   28  N   UNL     1     -31.833  39.416 -53.433  1.00  0.00    -0.349 N 
HETATM   29  C   UNL     1     -31.316  38.515 -54.330  1.00  0.00     0.222 C 
HETATM   30  O   UNL     1     -31.450  37.301 -54.189  1.00  0.00    -0.273 OA
HETATM   31  H   UNL     1     -31.838  40.402 -53.670  1.00  0.00     0.163 HD
BRANCH  29  32
HETATM   32  C   UNL     1     -30.619  39.143 -55.537  1.00  0.00     0.082 C 
HETATM   33  C   UNL     1     -29.912  38.083 -56.390  1.00  0.00     0.040 C 
HETATM   34  C   UNL     1     -30.899  37.227 -57.179  1.00  0.00     0.168 C 
HETATM   35  O   UNL     1     -31.817  38.015 -57.937  1.00  0.00    -0.391 OA
HETATM   36  C   UNL     1     -32.549  38.946 -57.142  1.00  0.00     0.168 C 
HETATM   37  C   UNL     1     -31.620  39.907 -56.410  1.00  0.00     0.040 C 
ENDBRANCH  29  32
ENDBRANCH  26  28
ENDBRANCH   1  26
TORSDOF 7
ENDMDL
MODEL 10
REMARK VINA RESULT:      -6.9      2.386      6.177
REMARK  7 active torsions:
REMARK  status: ('A' for Active; 'I' for Inactive)
REMARK    1  A    between atoms: C_2  and  N_3 
REMARK    2  A    between atoms: C_2  and  C_12 
REMARK       I    between atoms: N_3  and  C_4 
REMARK    3  A    between atoms: C_4  and  C_5 
REMARK    4  A    between atoms: N_17  and  C_19 
REMARK    5  A    between atoms: C_19  and  C_20 
REMARK    6  A    between atoms: C_22  and  C_23 
REMARK    7  A    between atoms: C_23  and  N_24 
ROOT
HETATM    1  C   UNL     1     -43.841  57.151 -55.674  1.00  0.00     0.152 A 
HETATM    2  N   UNL     1     -43.363  58.206 -54.924  1.00  0.00    -0.317 N 
HETATM    3  C   UNL     1     -44.390  58.565 -54.085  1.00  0.00     0.131 A 
HETATM    4  C   UNL     1     -44.335  59.588 -53.013  1.00  0.00     0.108 C 
HETATM    5  C   UNL     1     -43.136  59.347 -52.108  1.00  0.00     0.243 C 
HETATM    6  N   UNL     1     -41.834  59.912 -52.674  1.00  0.00    -0.065 N 
HETATM    7  H   UNL     1     -41.792  60.885 -52.343  1.00  0.00     0.280 HD
HETATM    8  C   UNL     1     -41.750  60.026 -54.196  1.00  0.00     0.255 C 
HETATM    9  C   UNL     1     -42.012  58.719 -54.944  1.00  0.00     0.159 C 
HETATM   10  N   UNL     1     -45.419  57.785 -54.313  1.00  0.00    -0.135 NA
HETATM   11  N   UNL     1     -45.078  56.901 -55.294  1.00  0.00    -0.133 NA
ENDROOT
BRANCH   6  12
HETATM   12  C   UNL     1     -40.608  59.235 -52.061  1.00  0.00     0.280 C 
BRANCH  12  13
HETATM   13  C   UNL     1     -40.917  57.886 -51.465  1.00  0.00     0.009 A 
HETATM   14  S   UNL     1     -41.099  56.511 -52.478  1.00  0.00    -0.096 SA
HETATM   15  C   UNL     1     -41.467  55.482 -51.157  1.00  0.00     0.009 A 
HETATM   16  C   UNL     1     -41.416  56.172 -49.961  1.00  0.00     0.017 A 
HETATM   17  C   UNL     1     -41.085  57.549 -50.136  1.00  0.00     0.017 A 
BRANCH  15  18
HETATM   18  C   UNL     1     -41.815  54.037 -51.384  1.00  0.00     0.280 C 
BRANCH  18  19
HETATM   19  N   UNL     1     -40.767  53.256 -52.152  1.00  0.00    -0.067 N 
HETATM   20  H   UNL     1     -39.983  53.902 -52.312  1.00  0.00     0.280 HD
HETATM   21  C   UNL     1     -40.237  52.068 -51.382  1.00  0.00     0.235 C 
HETATM   22  C   UNL     1     -39.139  51.381 -52.182  1.00  0.00     0.028 C 
HETATM   23  C   UNL     1     -39.624  50.970 -53.566  1.00  0.00     0.003 C 
HETATM   24  C   UNL     1     -40.204  52.163 -54.314  1.00  0.00     0.028 C 
HETATM   25  C   UNL     1     -41.299  52.851 -53.513  1.00  0.00     0.235 C 
ENDBRANCH  18  19
ENDBRANCH  15  18
ENDBRANCH  12  13
ENDBRANCH   6  12
BRANCH   1  26
HETATM   26  C   UNL     1     -43.068  56.355 -56.688  1.00  0.00     0.152 C 
HETATM   27  C   UNL     1     -42.120  55.372 -56.011  1.00  0.00     0.040 C 
BRANCH  26  28
HETATM   28  N   UNL     1     -42.326  57.306 -57.502  1.00  0.00    -0.349 N 
HETATM   29  C   UNL     1     -42.686  57.592 -58.794  1.00  0.00     0.222 C 
HETATM   30  O   UNL     1     -43.553  56.955 -59.388  1.00  0.00    -0.273 OA
HETATM   31  H   UNL     1     -41.726  57.954 -57.000  1.00  0.00     0.163 HD
BRANCH  29  32
HETATM   32  C   UNL     1     -41.969  58.796 -59.407  1.00  0.00     0.082 C 
HETATM   33  C   UNL     1     -42.707  59.317 -60.645  1.00  0.00     0.040 C 
HETATM   34  C   UNL     1     -43.999  60.045 -60.282  1.00  0.00     0.168 C 
HETATM   35  O   UNL     1     -43.792  61.061 -59.301  1.00  0.00    -0.391 OA
HETATM   36  C   UNL     1     -43.187  60.573 -58.105  1.00  0.00     0.168 C 
HETATM   37  C   UNL     1     -41.835  59.930 -58.385  1.00  0.00     0.040 C 
ENDBRANCH  29  32
ENDBRANCH  26  28
ENDBRANCH   1  26
TORSDOF 7
ENDMDL
