MODEL 1
REMARK VINA RESULT:      -8.0      0.000      0.000
REMARK  8 active torsions:
REMARK  status: ('A' for Active; 'I' for Inactive)
REMARK    1  A    between atoms: C_2  and  C_3 
REMARK    2  A    between atoms: C_3  and  O_4 
REMARK    3  A    between atoms: O_4  and  C_5 
REMARK    4  A    between atoms: C_6  and  C_7 
REMARK    5  A    between atoms: C_11  and  C_12 
REMARK       I    between atoms: C_12  and  N_13 
REMARK    6  A    between atoms: N_13  and  N_14 
REMARK    7  A    between atoms: C_15  and  C_16 
REMARK    8  A    between atoms: C_17  and  O_18 
ROOT
HETATM    1  C   UNL     1     -40.717  53.357 -54.372  1.00  0.00     0.092 A 
HETATM    2  N   UNL     1     -39.835  54.201 -54.925  1.00  0.00    -0.174 NA
HETATM    3  N   UNL     1     -40.584  55.167 -55.475  1.00  0.00    -0.272 N 
HETATM    4  H   UNL     1     -40.121  55.938 -55.949  1.00  0.00     0.189 HD
HETATM    5  C   UNL     1     -41.931  54.969 -55.353  1.00  0.00     0.121 A 
HETATM    6  C   UNL     1     -42.048  53.807 -54.618  1.00  0.00     0.071 A 
ENDROOT
BRANCH   5   7
HETATM    7  C   UNL     1     -42.878  55.883 -55.941  1.00  0.00     0.289 C 
HETATM    8  N   UNL     1     -42.674  56.140 -57.289  1.00  0.00    -0.242 N 
HETATM    9  H   UNL     1     -41.883  55.733 -57.772  1.00  0.00     0.192 HD
HETATM   10  O   UNL     1     -43.764  56.406 -55.271  1.00  0.00    -0.264 OA
BRANCH   8  11
HETATM   11  N   UNL     1     -43.446  57.065 -57.928  1.00  0.00    -0.183 NA
HETATM   12  C   UNL     1     -44.282  56.597 -58.800  1.00  0.00     0.153 C 
BRANCH  12  13
HETATM   13  C   UNL     1     -45.154  57.498 -59.577  1.00  0.00     0.016 A 
HETATM   14  C   UNL     1     -46.451  57.134 -59.961  1.00  0.00     0.077 A 
HETATM   15  C   UNL     1     -47.240  58.024 -60.686  1.00  0.00     0.037 A 
HETATM   16  C   UNL     1     -46.743  59.282 -61.026  1.00  0.00     0.003 A 
HETATM   17  C   UNL     1     -45.452  59.650 -60.645  1.00  0.00     0.001 A 
HETATM   18  C   UNL     1     -44.654  58.760 -59.922  1.00  0.00     0.016 A 
BRANCH  14  19
HETATM   19  O   UNL     1     -47.014  55.925 -59.662  1.00  0.00    -0.360 OA
HETATM   20  H   UNL     1     -46.436  55.214 -60.020  1.00  0.00     0.217 HD
ENDBRANCH  14  19
ENDBRANCH  12  13
ENDBRANCH   8  11
ENDBRANCH   5   7
BRANCH   1  21
HETATM   21  C   UNL     1     -40.314  52.135 -53.673  1.00  0.00     0.028 A 
HETATM   22  C   UNL     1     -39.906  52.096 -52.328  1.00  0.00     0.081 A 
HETATM   23  C   UNL     1     -39.455  50.895 -51.763  1.00  0.00     0.038 A 
HETATM   24  C   UNL     1     -39.452  49.715 -52.505  1.00  0.00     0.003 A 
HETATM   25  C   UNL     1     -39.883  49.730 -53.826  1.00  0.00     0.001 A 
HETATM   26  C   UNL     1     -40.305  50.930 -54.406  1.00  0.00     0.017 A 
BRANCH  22  27
HETATM   27  O   UNL     1     -39.851  53.170 -51.477  1.00  0.00    -0.350 OA
BRANCH  27  28
HETATM   28  C   UNL     1     -40.889  53.175 -50.492  1.00  0.00     0.175 C 
BRANCH  28  29
HETATM   29  C   UNL     1     -41.935  54.220 -50.878  1.00  0.00     0.022 C 
HETATM   30  C   UNL     1     -41.304  55.511 -51.381  1.00  0.00     0.007 C 
ENDBRANCH  28  29
ENDBRANCH  27  28
ENDBRANCH  22  27
ENDBRANCH   1  21
TORSDOF 8
ENDMDL
MODEL 2
REMARK VINA RESULT:      -7.8      4.481      6.121
REMARK  8 active torsions:
REMARK  status: ('A' for Active; 'I' for Inactive)
REMARK    1  A    between atoms: C_2  and  C_3 
REMARK    2  A    between atoms: C_3  and  O_4 
REMARK    3  A    between atoms: O_4  and  C_5 
REMARK    4  A    between atoms: C_6  and  C_7 
REMARK    5  A    between atoms: C_11  and  C_12 
REMARK       I    between atoms: C_12  and  N_13 
REMARK    6  A    between atoms: N_13  and  N_14 
REMARK    7  A    between atoms: C_15  and  C_16 
REMARK    8  A    between atoms: C_17  and  O_18 
ROOT
HETATM    1  C   UNL     1     -40.761  53.920 -53.547  1.00  0.00     0.092 A 
HETATM    2  N   UNL     1     -40.231  54.667 -54.525  1.00  0.00    -0.174 NA
HETATM    3  N   UNL     1     -40.832  55.860 -54.409  1.00  0.00    -0.272 N 
HETATM    4  H   UNL     1     -40.574  56.605 -55.051  1.00  0.00     0.189 HD
HETATM    5  C   UNL     1     -41.777  55.917 -53.423  1.00  0.00     0.121 A 
HETATM    6  C   UNL     1     -41.737  54.672 -52.828  1.00  0.00     0.071 A 
ENDROOT
BRANCH   5   7
HETATM    7  C   UNL     1     -42.558  57.108 -53.203  1.00  0.00     0.289 C 
HETATM    8  N   UNL     1     -42.841  57.376 -51.871  1.00  0.00    -0.242 N 
HETATM    9  H   UNL     1     -42.544  56.736 -51.147  1.00  0.00     0.192 HD
HETATM   10  O   UNL     1     -42.958  57.794 -54.139  1.00  0.00    -0.264 OA
BRANCH   8  11
HETATM   11  N   UNL     1     -43.656  58.421 -51.548  1.00  0.00    -0.183 NA
HETATM   12  C   UNL     1     -43.099  59.389 -50.891  1.00  0.00     0.153 C 
BRANCH  12  13
HETATM   13  C   UNL     1     -43.882  60.564 -50.460  1.00  0.00     0.016 A 
HETATM   14  C   UNL     1     -45.129  60.442 -49.836  1.00  0.00     0.077 A 
HETATM   15  C   UNL     1     -45.825  61.581 -49.437  1.00  0.00     0.037 A 
HETATM   16  C   UNL     1     -45.278  62.846 -49.654  1.00  0.00     0.003 A 
HETATM   17  C   UNL     1     -44.034  62.973 -50.275  1.00  0.00     0.001 A 
HETATM   18  C   UNL     1     -43.334  61.834 -50.680  1.00  0.00     0.016 A 
BRANCH  14  19
HETATM   19  O   UNL     1     -45.731  59.241 -49.581  1.00  0.00    -0.360 OA
HETATM   20  H   UNL     1     -45.923  59.186 -48.618  1.00  0.00     0.217 HD
ENDBRANCH  14  19
ENDBRANCH  12  13
ENDBRANCH   8  11
ENDBRANCH   5   7
BRANCH   1  21
HETATM   21  C   UNL     1     -40.390  52.520 -53.329  1.00  0.00     0.028 A 
HETATM   22  C   UNL     1     -39.775  52.044 -52.157  1.00  0.00     0.081 A 
HETATM   23  C   UNL     1     -39.375  50.703 -52.068  1.00  0.00     0.038 A 
HETATM   24  C   UNL     1     -39.626  49.812 -53.110  1.00  0.00     0.003 A 
HETATM   25  C   UNL     1     -40.263  50.261 -54.261  1.00  0.00     0.001 A 
HETATM   26  C   UNL     1     -40.635  51.604 -54.371  1.00  0.00     0.017 A 
BRANCH  22  27
HETATM   27  O   UNL     1     -39.461  52.796 -51.054  1.00  0.00    -0.350 OA
BRANCH  27  28
HETATM   28  C   UNL     1     -40.452  52.744 -50.024  1.00  0.00     0.175 C 
BRANCH  28  29
HETATM   29  C   UNL     1     -40.179  53.860 -49.016  1.00  0.00     0.022 C 
HETATM   30  C   UNL     1     -41.194  54.990 -49.117  1.00  0.00     0.007 C 
ENDBRANCH  28  29
ENDBRANCH  27  28
ENDBRANCH  22  27
ENDBRANCH   1  21
TORSDOF 8
ENDMDL
MODEL 3
REMARK VINA RESULT:      -7.6      2.706      3.567
REMARK  8 active torsions:
REMARK  status: ('A' for Active; 'I' for Inactive)
REMARK    1  A    between atoms: C_2  and  C_3 
REMARK    2  A    between atoms: C_3  and  O_4 
REMARK    3  A    between atoms: O_4  and  C_5 
REMARK    4  A    between atoms: C_6  and  C_7 
REMARK    5  A    between atoms: C_11  and  C_12 
REMARK       I    between atoms: C_12  and  N_13 
REMARK    6  A    between atoms: N_13  and  N_14 
REMARK    7  A    between atoms: C_15  and  C_16 
REMARK    8  A    between atoms: C_17  and  O_18 
ROOT
HETATM    1  C   UNL     1     -42.125  54.189 -54.371  1.00  0.00     0.092 A 
HETATM    2  N   UNL     1     -43.419  54.371 -54.075  1.00  0.00    -0.174 NA
HETATM    3  N   UNL     1     -43.853  55.267 -54.972  1.00  0.00    -0.272 N 
HETATM    4  H   UNL     1     -44.828  55.554 -54.948  1.00  0.00     0.189 HD
HETATM    5  C   UNL     1     -42.883  55.725 -55.820  1.00  0.00     0.121 A 
HETATM    6  C   UNL     1     -41.750  55.022 -55.467  1.00  0.00     0.071 A 
ENDROOT
BRANCH   5   7
HETATM    7  C   UNL     1     -43.169  56.736 -56.807  1.00  0.00     0.289 C 
HETATM    8  N   UNL     1     -42.159  56.938 -57.737  1.00  0.00    -0.242 N 
HETATM    9  H   UNL     1     -41.288  56.428 -57.664  1.00  0.00     0.192 HD
HETATM   10  O   UNL     1     -44.216  57.377 -56.783  1.00  0.00    -0.264 OA
BRANCH   8  11
HETATM   11  N   UNL     1     -42.275  57.938 -58.658  1.00  0.00    -0.183 NA
HETATM   12  C   UNL     1     -41.738  59.071 -58.332  1.00  0.00     0.153 C 
BRANCH  12  13
HETATM   13  C   UNL     1     -41.819  60.238 -59.232  1.00  0.00     0.016 A 
HETATM   14  C   UNL     1     -41.277  61.482 -58.891  1.00  0.00     0.077 A 
HETATM   15  C   UNL     1     -41.369  62.552 -59.778  1.00  0.00     0.037 A 
HETATM   16  C   UNL     1     -41.998  62.383 -61.012  1.00  0.00     0.003 A 
HETATM   17  C   UNL     1     -42.539  61.144 -61.358  1.00  0.00     0.001 A 
HETATM   18  C   UNL     1     -42.452  60.069 -60.469  1.00  0.00     0.016 A 
BRANCH  14  19
HETATM   19  O   UNL     1     -40.640  61.729 -57.705  1.00  0.00    -0.360 OA
HETATM   20  H   UNL     1     -40.010  62.472 -57.839  1.00  0.00     0.217 HD
ENDBRANCH  14  19
ENDBRANCH  12  13
ENDBRANCH   8  11
ENDBRANCH   5   7
BRANCH   1  21
HETATM   21  C   UNL     1     -41.256  53.289 -53.610  1.00  0.00     0.028 A 
HETATM   22  C   UNL     1     -41.093  53.346 -52.214  1.00  0.00     0.081 A 
HETATM   23  C   UNL     1     -40.175  52.500 -51.577  1.00  0.00     0.038 A 
HETATM   24  C   UNL     1     -39.450  51.558 -52.303  1.00  0.00     0.003 A 
HETATM   25  C   UNL     1     -39.624  51.466 -53.679  1.00  0.00     0.001 A 
HETATM   26  C   UNL     1     -40.514  52.328 -54.327  1.00  0.00     0.017 A 
BRANCH  22  27
HETATM   27  O   UNL     1     -41.731  54.218 -51.369  1.00  0.00    -0.350 OA
BRANCH  27  28
HETATM   28  C   UNL     1     -40.847  55.130 -50.712  1.00  0.00     0.175 C 
BRANCH  28  29
HETATM   29  C   UNL     1     -41.236  55.222 -49.236  1.00  0.00     0.022 C 
HETATM   30  C   UNL     1     -40.480  54.219 -48.376  1.00  0.00     0.007 C 
ENDBRANCH  28  29
ENDBRANCH  27  28
ENDBRANCH  22  27
ENDBRANCH   1  21
TORSDOF 8
ENDMDL
MODEL 4
REMARK VINA RESULT:      -7.6      3.447      4.788
REMARK  8 active torsions:
REMARK  status: ('A' for Active; 'I' for Inactive)
REMARK    1  A    between atoms: C_2  and  C_3 
REMARK    2  A    between atoms: C_3  and  O_4 
REMARK    3  A    between atoms: O_4  and  C_5 
REMARK    4  A    between atoms: C_6  and  C_7 
REMARK    5  A    between atoms: C_11  and  C_12 
REMARK       I    between atoms: C_12  and  N_13 
REMARK    6  A    between atoms: N_13  and  N_14 
REMARK    7  A    between atoms: C_15  and  C_16 
REMARK    8  A    between atoms: C_17  and  O_18 
ROOT
HETATM    1  C   UNL     1     -41.794  56.205 -52.057  1.00  0.00     0.092 A 
HETATM    2  N   UNL     1     -43.107  56.408 -52.232  1.00  0.00    -0.174 NA
HETATM    3  N   UNL     1     -43.184  57.366 -53.165  1.00  0.00    -0.272 N 
HETATM    4  H   UNL     1     -44.100  57.681 -53.474  1.00  0.00     0.189 HD
HETATM    5  C   UNL     1     -41.971  57.843 -53.579  1.00  0.00     0.121 A 
HETATM    6  C   UNL     1     -41.045  57.088 -52.889  1.00  0.00     0.071 A 
ENDROOT
BRANCH   5   7
HETATM    7  C   UNL     1     -41.876  58.918 -54.536  1.00  0.00     0.289 C 
HETATM    8  N   UNL     1     -42.601  58.719 -55.702  1.00  0.00    -0.242 N 
HETATM    9  H   UNL     1     -43.105  57.855 -55.849  1.00  0.00     0.192 HD
HETATM   10  O   UNL     1     -41.174  59.903 -54.325  1.00  0.00    -0.264 OA
BRANCH   8  11
HETATM   11  N   UNL     1     -42.508  59.622 -56.720  1.00  0.00    -0.183 NA
HETATM   12  C   UNL     1     -41.936  59.196 -57.802  1.00  0.00     0.153 C 
BRANCH  12  13
HETATM   13  C   UNL     1     -41.751  60.085 -58.965  1.00  0.00     0.016 A 
HETATM   14  C   UNL     1     -41.167  61.352 -58.850  1.00  0.00     0.077 A 
HETATM   15  C   UNL     1     -41.004  62.152 -59.979  1.00  0.00     0.037 A 
HETATM   16  C   UNL     1     -41.418  61.689 -61.228  1.00  0.00     0.003 A 
HETATM   17  C   UNL     1     -42.000  60.426 -61.349  1.00  0.00     0.001 A 
HETATM   18  C   UNL     1     -42.169  59.622 -60.218  1.00  0.00     0.016 A 
BRANCH  14  19
HETATM   19  O   UNL     1     -40.729  61.877 -57.665  1.00  0.00    -0.360 OA
HETATM   20  H   UNL     1     -41.188  62.733 -57.515  1.00  0.00     0.217 HD
ENDBRANCH  14  19
ENDBRANCH  12  13
ENDBRANCH   8  11
ENDBRANCH   5   7
BRANCH   1  21
HETATM   21  C   UNL     1     -41.263  55.237 -51.095  1.00  0.00     0.028 A 
HETATM   22  C   UNL     1     -40.680  54.009 -51.455  1.00  0.00     0.081 A 
HETATM   23  C   UNL     1     -40.275  53.104 -50.463  1.00  0.00     0.038 A 
HETATM   24  C   UNL     1     -40.395  53.425 -49.113  1.00  0.00     0.003 A 
HETATM   25  C   UNL     1     -40.939  54.649 -48.741  1.00  0.00     0.001 A 
HETATM   26  C   UNL     1     -41.374  55.543 -49.723  1.00  0.00     0.017 A 
BRANCH  22  27
HETATM   27  O   UNL     1     -40.498  53.554 -52.736  1.00  0.00    -0.350 OA
BRANCH  27  28
HETATM   28  C   UNL     1     -40.048  52.198 -52.805  1.00  0.00     0.175 C 
BRANCH  28  29
HETATM   29  C   UNL     1     -40.248  51.680 -54.229  1.00  0.00     0.022 C 
HETATM   30  C   UNL     1     -39.894  50.205 -54.362  1.00  0.00     0.007 C 
ENDBRANCH  28  29
ENDBRANCH  27  28
ENDBRANCH  22  27
ENDBRANCH   1  21
TORSDOF 8
ENDMDL
MODEL 5
REMARK VINA RESULT:      -7.5      1.548      9.829
REMARK  8 active torsions:
REMARK  status: ('A' for Active; 'I' for Inactive)
REMARK    1  A    between atoms: C_2  and  C_3 
REMARK    2  A    between atoms: C_3  and  O_4 
REMARK    3  A    between atoms: O_4  and  C_5 
REMARK    4  A    between atoms: C_6  and  C_7 
REMARK    5  A    between atoms: C_11  and  C_12 
REMARK       I    between atoms: C_12  and  N_13 
REMARK    6  A    between atoms: N_13  and  N_14 
REMARK    7  A    between atoms: C_15  and  C_16 
REMARK    8  A    between atoms: C_17  and  O_18 
ROOT
HETATM    1  C   UNL     1     -43.103  57.358 -58.618  1.00  0.00     0.092 A 
HETATM    2  N   UNL     1     -43.618  56.153 -58.900  1.00  0.00    -0.174 NA
HETATM    3  N   UNL     1     -43.379  55.415 -57.807  1.00  0.00    -0.272 N 
HETATM    4  H   UNL     1     -43.699  54.449 -57.786  1.00  0.00     0.189 HD
HETATM    5  C   UNL     1     -42.681  56.069 -56.831  1.00  0.00     0.121 A 
HETATM    6  C   UNL     1     -42.506  57.346 -57.323  1.00  0.00     0.071 A 
ENDROOT
BRANCH   5   7
HETATM    7  C   UNL     1     -42.290  55.401 -55.615  1.00  0.00     0.289 C 
HETATM    8  N   UNL     1     -41.007  54.872 -55.632  1.00  0.00    -0.242 N 
HETATM    9  H   UNL     1     -40.441  54.932 -56.468  1.00  0.00     0.192 HD
HETATM   10  O   UNL     1     -43.062  55.293 -54.667  1.00  0.00    -0.264 OA
BRANCH   8  11
HETATM   11  N   UNL     1     -40.564  54.132 -54.575  1.00  0.00    -0.183 NA
HETATM   12  C   UNL     1     -40.648  52.847 -54.712  1.00  0.00     0.153 C 
BRANCH  12  13
HETATM   13  C   UNL     1     -40.226  51.938 -53.628  1.00  0.00     0.016 A 
HETATM   14  C   UNL     1     -40.080  52.372 -52.305  1.00  0.00     0.077 A 
HETATM   15  C   UNL     1     -39.689  51.474 -51.314  1.00  0.00     0.037 A 
HETATM   16  C   UNL     1     -39.447  50.139 -51.638  1.00  0.00     0.003 A 
HETATM   17  C   UNL     1     -39.593  49.701 -52.955  1.00  0.00     0.001 A 
HETATM   18  C   UNL     1     -39.981  50.598 -53.953  1.00  0.00     0.016 A 
BRANCH  14  19
HETATM   19  O   UNL     1     -40.303  53.660 -51.904  1.00  0.00    -0.360 OA
HETATM   20  H   UNL     1     -39.456  54.157 -51.968  1.00  0.00     0.217 HD
ENDBRANCH  14  19
ENDBRANCH  12  13
ENDBRANCH   8  11
ENDBRANCH   5   7
BRANCH   1  21
HETATM   21  C   UNL     1     -43.132  58.474 -59.566  1.00  0.00     0.028 A 
HETATM   22  C   UNL     1     -44.239  59.322 -59.748  1.00  0.00     0.081 A 
HETATM   23  C   UNL     1     -44.211  60.313 -60.739  1.00  0.00     0.038 A 
HETATM   24  C   UNL     1     -43.075  60.508 -61.522  1.00  0.00     0.003 A 
HETATM   25  C   UNL     1     -41.961  59.699 -61.331  1.00  0.00     0.001 A 
HETATM   26  C   UNL     1     -41.992  58.688 -60.367  1.00  0.00     0.017 A 
BRANCH  22  27
HETATM   27  O   UNL     1     -45.423  59.252 -59.059  1.00  0.00    -0.350 OA
BRANCH  27  28
HETATM   28  C   UNL     1     -46.504  58.718 -59.829  1.00  0.00     0.175 C 
BRANCH  28  29
HETATM   29  C   UNL     1     -46.862  57.334 -59.289  1.00  0.00     0.022 C 
HETATM   30  C   UNL     1     -46.916  56.281 -60.387  1.00  0.00     0.007 C 
ENDBRANCH  28  29
ENDBRANCH  27  28
ENDBRANCH  22  27
ENDBRANCH   1  21
TORSDOF 8
ENDMDL
MODEL 6
REMARK VINA RESULT:      -7.4      2.357      9.592
REMARK  8 active torsions:
REMARK  status: ('A' for Active; 'I' for Inactive)
REMARK    1  A    between atoms: C_2  and  C_3 
REMARK    2  A    between atoms: C_3  and  O_4 
REMARK    3  A    between atoms: O_4  and  C_5 
REMARK    4  A    between atoms: C_6  and  C_7 
REMARK    5  A    between atoms: C_11  and  C_12 
REMARK       I    between atoms: C_12  and  N_13 
REMARK    6  A    between atoms: N_13  and  N_14 
REMARK    7  A    between atoms: C_15  and  C_16 
REMARK    8  A    between atoms: C_17  and  O_18 
ROOT
HETATM    1  C   UNL     1     -43.103  58.491 -57.004  1.00  0.00     0.092 A 
HETATM    2  N   UNL     1     -44.384  58.101 -56.957  1.00  0.00    -0.174 NA
HETATM    3  N   UNL     1     -44.399  57.077 -56.094  1.00  0.00    -0.272 N 
HETATM    4  H   UNL     1     -45.284  56.620 -55.886  1.00  0.00     0.189 HD
HETATM    5  C   UNL     1     -43.167  56.740 -55.604  1.00  0.00     0.121 A 
HETATM    6  C   UNL     1     -42.306  57.661 -56.163  1.00  0.00     0.071 A 
ENDROOT
BRANCH   5   7
HETATM    7  C   UNL     1     -42.998  55.623 -54.709  1.00  0.00     0.289 C 
HETATM    8  N   UNL     1     -41.687  55.192 -54.563  1.00  0.00    -0.242 N 
HETATM    9  H   UNL     1     -40.945  55.626 -55.097  1.00  0.00     0.192 HD
HETATM   10  O   UNL     1     -43.958  55.091 -54.159  1.00  0.00    -0.264 OA
BRANCH   8  11
HETATM   11  N   UNL     1     -41.416  54.081 -53.820  1.00  0.00    -0.183 NA
HETATM   12  C   UNL     1     -40.503  53.294 -54.293  1.00  0.00     0.153 C 
BRANCH  12  13
HETATM   13  C   UNL     1     -40.138  52.045 -53.595  1.00  0.00     0.016 A 
HETATM   14  C   UNL     1     -39.891  52.005 -52.218  1.00  0.00     0.077 A 
HETATM   15  C   UNL     1     -39.561  50.801 -51.602  1.00  0.00     0.037 A 
HETATM   16  C   UNL     1     -39.480  49.630 -52.356  1.00  0.00     0.003 A 
HETATM   17  C   UNL     1     -39.727  49.664 -53.729  1.00  0.00     0.001 A 
HETATM   18  C   UNL     1     -40.055  50.870 -54.352  1.00  0.00     0.016 A 
BRANCH  14  19
HETATM   19  O   UNL     1     -39.955  53.105 -51.408  1.00  0.00    -0.360 OA
HETATM   20  H   UNL     1     -40.691  52.979 -50.767  1.00  0.00     0.217 HD
ENDBRANCH  14  19
ENDBRANCH  12  13
ENDBRANCH   8  11
ENDBRANCH   5   7
BRANCH   1  21
HETATM   21  C   UNL     1     -42.640  59.589 -57.856  1.00  0.00     0.028 A 
HETATM   22  C   UNL     1     -42.625  59.541 -59.262  1.00  0.00     0.081 A 
HETATM   23  C   UNL     1     -42.084  60.605 -59.997  1.00  0.00     0.038 A 
HETATM   24  C   UNL     1     -41.602  61.744 -59.354  1.00  0.00     0.003 A 
HETATM   25  C   UNL     1     -41.640  61.820 -57.967  1.00  0.00     0.001 A 
HETATM   26  C   UNL     1     -42.148  60.750 -57.225  1.00  0.00     0.017 A 
BRANCH  22  27
HETATM   27  O   UNL     1     -43.060  58.493 -60.032  1.00  0.00    -0.350 OA
BRANCH  27  28
HETATM   28  C   UNL     1     -42.038  57.538 -60.332  1.00  0.00     0.175 C 
BRANCH  28  29
HETATM   29  C   UNL     1     -42.415  56.194 -59.708  1.00  0.00     0.022 C 
HETATM   30  C   UNL     1     -43.882  55.849 -59.925  1.00  0.00     0.007 C 
ENDBRANCH  28  29
ENDBRANCH  27  28
ENDBRANCH  22  27
ENDBRANCH   1  21
TORSDOF 8
ENDMDL
MODEL 7
REMARK VINA RESULT:      -7.4      1.950      2.460
REMARK  8 active torsions:
REMARK  status: ('A' for Active; 'I' for Inactive)
REMARK    1  A    between atoms: C_2  and  C_3 
REMARK    2  A    between atoms: C_3  and  O_4 
REMARK    3  A    between atoms: O_4  and  C_5 
REMARK    4  A    between atoms: C_6  and  C_7 
REMARK    5  A    between atoms: C_11  and  C_12 
REMARK       I    between atoms: C_12  and  N_13 
REMARK    6  A    between atoms: N_13  and  N_14 
REMARK    7  A    between atoms: C_15  and  C_16 
REMARK    8  A    between atoms: C_17  and  O_18 
ROOT
HETATM    1  C   UNL     1     -41.716  54.122 -54.625  1.00  0.00     0.092 A 
HETATM    2  N   UNL     1     -42.972  53.849 -55.004  1.00  0.00    -0.174 NA
HETATM    3  N   UNL     1     -43.340  54.899 -55.751  1.00  0.00    -0.272 N 
HETATM    4  H   UNL     1     -44.269  54.908 -56.164  1.00  0.00     0.189 HD
HETATM    5  C   UNL     1     -42.393  55.882 -55.840  1.00  0.00     0.121 A 
HETATM    6  C   UNL     1     -41.314  55.391 -55.134  1.00  0.00     0.071 A 
ENDROOT
BRANCH   5   7
HETATM    7  C   UNL     1     -42.650  57.105 -56.557  1.00  0.00     0.289 C 
HETATM    8  N   UNL     1     -43.408  56.952 -57.710  1.00  0.00    -0.242 N 
HETATM    9  H   UNL     1     -43.698  56.031 -58.012  1.00  0.00     0.192 HD
HETATM   10  O   UNL     1     -42.194  58.179 -56.176  1.00  0.00    -0.264 OA
BRANCH   8  11
HETATM   11  N   UNL     1     -43.631  58.024 -58.523  1.00  0.00    -0.183 NA
HETATM   12  C   UNL     1     -42.874  58.105 -59.571  1.00  0.00     0.153 C 
BRANCH  12  13
HETATM   13  C   UNL     1     -43.000  59.233 -60.514  1.00  0.00     0.016 A 
HETATM   14  C   UNL     1     -44.224  59.592 -61.090  1.00  0.00     0.077 A 
HETATM   15  C   UNL     1     -44.295  60.672 -61.967  1.00  0.00     0.037 A 
HETATM   16  C   UNL     1     -43.145  61.402 -62.270  1.00  0.00     0.003 A 
HETATM   17  C   UNL     1     -41.921  61.049 -61.698  1.00  0.00     0.001 A 
HETATM   18  C   UNL     1     -41.845  59.964 -60.821  1.00  0.00     0.016 A 
BRANCH  14  19
HETATM   19  O   UNL     1     -45.397  58.934 -60.841  1.00  0.00    -0.360 OA
HETATM   20  H   UNL     1     -46.050  59.188 -61.531  1.00  0.00     0.217 HD
ENDBRANCH  14  19
ENDBRANCH  12  13
ENDBRANCH   8  11
ENDBRANCH   5   7
BRANCH   1  21
HETATM   21  C   UNL     1     -40.935  53.228 -53.767  1.00  0.00     0.028 A 
HETATM   22  C   UNL     1     -40.642  53.491 -52.417  1.00  0.00     0.081 A 
HETATM   23  C   UNL     1     -39.815  52.621 -51.693  1.00  0.00     0.038 A 
HETATM   24  C   UNL     1     -39.314  51.460 -52.280  1.00  0.00     0.003 A 
HETATM   25  C   UNL     1     -39.622  51.169 -53.603  1.00  0.00     0.001 A 
HETATM   26  C   UNL     1     -40.420  52.048 -54.341  1.00  0.00     0.017 A 
BRANCH  22  27
HETATM   27  O   UNL     1     -41.058  54.588 -51.706  1.00  0.00    -0.350 OA
BRANCH  27  28
HETATM   28  C   UNL     1     -42.029  54.286 -50.700  1.00  0.00     0.175 C 
BRANCH  28  29
HETATM   29  C   UNL     1     -43.425  54.566 -51.257  1.00  0.00     0.022 C 
HETATM   30  C   UNL     1     -43.518  55.934 -51.920  1.00  0.00     0.007 C 
ENDBRANCH  28  29
ENDBRANCH  27  28
ENDBRANCH  22  27
ENDBRANCH   1  21
TORSDOF 8
ENDMDL
MODEL 8
REMARK VINA RESULT:      -7.2      1.786      2.173
REMARK  8 active torsions:
REMARK  status: ('A' for Active; 'I' for Inactive)
REMARK    1  A    between atoms: C_2  and  C_3 
REMARK    2  A    between atoms: C_3  and  O_4 
REMARK    3  A    between atoms: O_4  and  C_5 
REMARK    4  A    between atoms: C_6  and  C_7 
REMARK    5  A    between atoms: C_11  and  C_12 
REMARK       I    between atoms: C_12  and  N_13 
REMARK    6  A    between atoms: N_13  and  N_14 
REMARK    7  A    between atoms: C_15  and  C_16 
REMARK    8  A    between atoms: C_17  and  O_18 
ROOT
HETATM    1  C   UNL     1     -42.112  54.038 -54.481  1.00  0.00     0.092 A 
HETATM    2  N   UNL     1     -43.380  54.256 -54.105  1.00  0.00    -0.174 NA
HETATM    3  N   UNL     1     -43.872  55.092 -55.029  1.00  0.00    -0.272 N 
HETATM    4  H   UNL     1     -44.841  55.393 -54.954  1.00  0.00     0.189 HD
HETATM    5  C   UNL     1     -42.965  55.478 -55.976  1.00  0.00     0.121 A 
HETATM    6  C   UNL     1     -41.813  54.787 -55.657  1.00  0.00     0.071 A 
ENDROOT
BRANCH   5   7
HETATM    7  C   UNL     1     -43.315  56.420 -57.008  1.00  0.00     0.289 C 
HETATM    8  N   UNL     1     -44.552  57.027 -56.842  1.00  0.00    -0.242 N 
HETATM    9  H   UNL     1     -45.149  56.766 -56.068  1.00  0.00     0.192 HD
HETATM   10  O   UNL     1     -42.576  56.626 -57.966  1.00  0.00    -0.264 OA
BRANCH   8  11
HETATM   11  N   UNL     1     -45.033  57.862 -57.806  1.00  0.00    -0.183 NA
HETATM   12  C   UNL     1     -46.324  57.942 -57.891  1.00  0.00     0.153 C 
BRANCH  12  13
HETATM   13  C   UNL     1     -46.967  58.792 -58.913  1.00  0.00     0.016 A 
HETATM   14  C   UNL     1     -46.664  58.680 -60.275  1.00  0.00     0.077 A 
HETATM   15  C   UNL     1     -47.305  59.497 -61.203  1.00  0.00     0.037 A 
HETATM   16  C   UNL     1     -48.257  60.425 -60.777  1.00  0.00     0.003 A 
HETATM   17  C   UNL     1     -48.564  60.539 -59.420  1.00  0.00     0.001 A 
HETATM   18  C   UNL     1     -47.920  59.725 -58.485  1.00  0.00     0.016 A 
BRANCH  14  19
HETATM   19  O   UNL     1     -45.750  57.794 -60.774  1.00  0.00    -0.360 OA
HETATM   20  H   UNL     1     -45.121  58.285 -61.349  1.00  0.00     0.217 HD
ENDBRANCH  14  19
ENDBRANCH  12  13
ENDBRANCH   8  11
ENDBRANCH   5   7
BRANCH   1  21
HETATM   21  C   UNL     1     -41.196  53.183 -53.723  1.00  0.00     0.028 A 
HETATM   22  C   UNL     1     -40.751  53.468 -52.420  1.00  0.00     0.081 A 
HETATM   23  C   UNL     1     -39.806  52.636 -51.802  1.00  0.00     0.038 A 
HETATM   24  C   UNL     1     -39.334  51.492 -52.442  1.00  0.00     0.003 A 
HETATM   25  C   UNL     1     -39.790  51.180 -53.717  1.00  0.00     0.001 A 
HETATM   26  C   UNL     1     -40.707  52.020 -54.354  1.00  0.00     0.017 A 
BRANCH  22  27
HETATM   27  O   UNL     1     -41.121  54.552 -51.666  1.00  0.00    -0.350 OA
BRANCH  27  28
HETATM   28  C   UNL     1     -41.537  54.215 -50.340  1.00  0.00     0.175 C 
BRANCH  28  29
HETATM   29  C   UNL     1     -41.329  55.426 -49.431  1.00  0.00     0.022 C 
HETATM   30  C   UNL     1     -41.100  56.708 -50.220  1.00  0.00     0.007 C 
ENDBRANCH  28  29
ENDBRANCH  27  28
ENDBRANCH  22  27
ENDBRANCH   1  21
TORSDOF 8
ENDMDL
MODEL 9
REMARK VINA RESULT:      -7.2      2.055      3.481
REMARK  8 active torsions:
REMARK  status: ('A' for Active; 'I' for Inactive)
REMARK    1  A    between atoms: C_2  and  C_3 
REMARK    2  A    between atoms: C_3  and  O_4 
REMARK    3  A    between atoms: O_4  and  C_5 
REMARK    4  A    between atoms: C_6  and  C_7 
REMARK    5  A    between atoms: C_11  and  C_12 
REMARK       I    between atoms: C_12  and  N_13 
REMARK    6  A    between atoms: N_13  and  N_14 
REMARK    7  A    between atoms: C_15  and  C_16 
REMARK    8  A    between atoms: C_17  and  O_18 
ROOT
HETATM    1  C   UNL     1     -42.276  54.500 -53.983  1.00  0.00     0.092 A 
HETATM    2  N   UNL     1     -43.610  54.594 -54.056  1.00  0.00    -0.174 NA
HETATM    3  N   UNL     1     -43.856  55.032 -55.298  1.00  0.00    -0.272 N 
HETATM    4  H   UNL     1     -44.821  55.169 -55.590  1.00  0.00     0.189 HD
HETATM    5  C   UNL     1     -42.732  55.281 -56.036  1.00  0.00     0.121 A 
HETATM    6  C   UNL     1     -41.686  54.921 -55.212  1.00  0.00     0.071 A 
ENDROOT
BRANCH   5   7
HETATM    7  C   UNL     1     -42.818  55.813 -57.373  1.00  0.00     0.289 C 
HETATM    8  N   UNL     1     -42.131  57.004 -57.566  1.00  0.00    -0.242 N 
HETATM    9  H   UNL     1     -41.659  57.452 -56.792  1.00  0.00     0.192 HD
HETATM   10  O   UNL     1     -43.482  55.257 -58.243  1.00  0.00    -0.264 OA
BRANCH   8  11
HETATM   11  N   UNL     1     -42.222  57.652 -58.763  1.00  0.00    -0.183 NA
HETATM   12  C   UNL     1     -43.000  58.688 -58.786  1.00  0.00     0.153 C 
BRANCH  12  13
HETATM   13  C   UNL     1     -43.203  59.460 -60.027  1.00  0.00     0.016 A 
HETATM   14  C   UNL     1     -44.478  59.806 -60.491  1.00  0.00     0.077 A 
HETATM   15  C   UNL     1     -44.619  60.544 -61.663  1.00  0.00     0.037 A 
HETATM   16  C   UNL     1     -43.488  60.945 -62.376  1.00  0.00     0.003 A 
HETATM   17  C   UNL     1     -42.215  60.603 -61.918  1.00  0.00     0.001 A 
HETATM   18  C   UNL     1     -42.069  59.859 -60.745  1.00  0.00     0.016 A 
BRANCH  14  19
HETATM   19  O   UNL     1     -45.634  59.458 -59.848  1.00  0.00    -0.360 OA
HETATM   20  H   UNL     1     -46.329  60.114 -60.081  1.00  0.00     0.217 HD
ENDBRANCH  14  19
ENDBRANCH  12  13
ENDBRANCH   8  11
ENDBRANCH   5   7
BRANCH   1  21
HETATM   21  C   UNL     1     -41.575  54.069 -52.771  1.00  0.00     0.028 A 
HETATM   22  C   UNL     1     -40.505  53.157 -52.763  1.00  0.00     0.081 A 
HETATM   23  C   UNL     1     -39.949  52.735 -51.547  1.00  0.00     0.038 A 
HETATM   24  C   UNL     1     -40.409  53.247 -50.336  1.00  0.00     0.003 A 
HETATM   25  C   UNL     1     -41.444  54.175 -50.329  1.00  0.00     0.001 A 
HETATM   26  C   UNL     1     -42.026  54.577 -51.535  1.00  0.00     0.017 A 
BRANCH  22  27
HETATM   27  O   UNL     1     -39.948  52.566 -53.868  1.00  0.00    -0.350 OA
BRANCH  27  28
HETATM   28  C   UNL     1     -40.626  51.378 -54.287  1.00  0.00     0.175 C 
BRANCH  28  29
HETATM   29  C   UNL     1     -39.625  50.223 -54.325  1.00  0.00     0.022 C 
HETATM   30  C   UNL     1     -39.603  49.435 -53.023  1.00  0.00     0.007 C 
ENDBRANCH  28  29
ENDBRANCH  27  28
ENDBRANCH  22  27
ENDBRANCH   1  21
TORSDOF 8
ENDMDL
MODEL 10
REMARK VINA RESULT:      -7.2      6.701      9.010
REMARK  8 active torsions:
REMARK  status: ('A' for Active; 'I' for Inactive)
REMARK    1  A    between atoms: C_2  and  C_3 
REMARK    2  A    between atoms: C_3  and  O_4 
REMARK    3  A    between atoms: O_4  and  C_5 
REMARK    4  A    between atoms: C_6  and  C_7 
REMARK    5  A    between atoms: C_11  and  C_12 
REMARK       I    between atoms: C_12  and  N_13 
REMARK    6  A    between atoms: N_13  and  N_14 
REMARK    7  A    between atoms: C_15  and  C_16 
REMARK    8  A    between atoms: C_17  and  O_18 
ROOT
HETATM    1  C   UNL     1     -43.651  56.380 -52.436  1.00  0.00     0.092 A 
HETATM    2  N   UNL     1     -43.990  55.890 -51.235  1.00  0.00    -0.174 NA
HETATM    3  N   UNL     1     -44.701  56.866 -50.655  1.00  0.00    -0.272 N 
HETATM    4  H   UNL     1     -45.081  56.712 -49.724  1.00  0.00     0.189 HD
HETATM    5  C   UNL     1     -44.805  58.005 -51.405  1.00  0.00     0.121 A 
HETATM    6  C   UNL     1     -44.149  57.708 -52.582  1.00  0.00     0.071 A 
ENDROOT
BRANCH   5   7
HETATM    7  C   UNL     1     -45.487  59.171 -50.903  1.00  0.00     0.289 C 
HETATM    8  N   UNL     1     -45.171  59.509 -49.595  1.00  0.00    -0.242 N 
HETATM    9  H   UNL     1     -44.541  58.928 -49.056  1.00  0.00     0.192 HD
HETATM   10  O   UNL     1     -46.304  59.780 -51.588  1.00  0.00    -0.264 OA
BRANCH   8  11
HETATM   11  N   UNL     1     -45.827  60.534 -48.981  1.00  0.00    -0.183 NA
HETATM   12  C   UNL     1     -45.167  61.152 -48.053  1.00  0.00     0.153 C 
BRANCH  12  13
HETATM   13  C   UNL     1     -45.778  62.262 -47.295  1.00  0.00     0.016 A 
HETATM   14  C   UNL     1     -46.946  62.096 -46.541  1.00  0.00     0.077 A 
HETATM   15  C   UNL     1     -47.480  63.172 -45.835  1.00  0.00     0.037 A 
HETATM   16  C   UNL     1     -46.847  64.415 -45.873  1.00  0.00     0.003 A 
HETATM   17  C   UNL     1     -45.682  64.585 -46.621  1.00  0.00     0.001 A 
HETATM   18  C   UNL     1     -45.146  63.510 -47.335  1.00  0.00     0.016 A 
BRANCH  14  19
HETATM   19  O   UNL     1     -47.622  60.911 -46.447  1.00  0.00    -0.360 OA
HETATM   20  H   UNL     1     -46.993  60.178 -46.629  1.00  0.00     0.217 HD
ENDBRANCH  14  19
ENDBRANCH  12  13
ENDBRANCH   8  11
ENDBRANCH   5   7
BRANCH   1  21
HETATM   21  C   UNL     1     -42.840  55.631 -53.398  1.00  0.00     0.028 A 
HETATM   22  C   UNL     1     -41.574  55.093 -53.108  1.00  0.00     0.081 A 
HETATM   23  C   UNL     1     -40.830  54.463 -54.116  1.00  0.00     0.038 A 
HETATM   24  C   UNL     1     -41.350  54.313 -55.400  1.00  0.00     0.003 A 
HETATM   25  C   UNL     1     -42.615  54.810 -55.692  1.00  0.00     0.001 A 
HETATM   26  C   UNL     1     -43.350  55.468 -54.702  1.00  0.00     0.017 A 
BRANCH  22  27
HETATM   27  O   UNL     1     -40.931  55.163 -51.899  1.00  0.00    -0.350 OA
BRANCH  27  28
HETATM   28  C   UNL     1     -40.626  53.884 -51.336  1.00  0.00     0.175 C 
BRANCH  28  29
HETATM   29  C   UNL     1     -40.272  54.064 -49.859  1.00  0.00     0.022 C 
HETATM   30  C   UNL     1     -41.174  55.076 -49.167  1.00  0.00     0.007 C 
ENDBRANCH  28  29
ENDBRANCH  27  28
ENDBRANCH  22  27
ENDBRANCH   1  21
TORSDOF 8
ENDMDL
