MODEL 1
REMARK VINA RESULT:      -8.3      0.000      0.000
REMARK  7 active torsions:
REMARK  status: ('A' for Active; 'I' for Inactive)
REMARK    1  A    between atoms: O_2  and  C_3 
REMARK    2  A    between atoms: C_4  and  N_5 
REMARK       I    between atoms: N_5  and  C_6 
REMARK       I    between atoms: C_6  and  N_7 
REMARK    3  A    between atoms: N_7  and  C_8 
REMARK    4  A    between atoms: C_8  and  C_9 
REMARK    5  A    between atoms: C_9  and  C_10 
REMARK    6  A    between atoms: C_10  and  N_11 
REMARK    7  A    between atoms: C_12  and  C_13 
ROOT
HETATM    1  N   UNL     1     -43.662  56.437 -56.673  1.00  0.00    -0.306 N 
HETATM    2  C   UNL     1     -43.035  55.517 -55.861  1.00  0.00     0.320 C 
HETATM    3  N   UNL     1     -43.856  55.170 -54.808  1.00  0.00    -0.343 N 
HETATM    4  O   UNL     1     -41.893  55.086 -55.951  1.00  0.00    -0.247 OA
HETATM    5  H   UNL     1     -44.266  57.062 -56.159  1.00  0.00     0.171 HD
HETATM    6  H   UNL     1     -44.847  55.340 -54.911  1.00  0.00     0.164 HD
ENDROOT
BRANCH   3   7
HETATM    7  C   UNL     1     -43.372  54.470 -53.642  1.00  0.00     0.126 C 
BRANCH   7   8
HETATM    8  C   UNL     1     -42.765  55.373 -52.573  1.00  0.00     0.040 C 
BRANCH   8   9
HETATM    9  C   UNL     1     -41.238  55.322 -52.521  1.00  0.00     0.131 C 
BRANCH   9  10
HETATM   10  N   UNL     1     -40.790  54.648 -51.286  1.00  0.00    -0.341 N 
HETATM   11  C   UNL     1     -40.351  53.367 -51.130  1.00  0.00     0.117 A 
HETATM   12  N   UNL     1     -40.082  53.271 -49.808  1.00  0.00    -0.350 N 
HETATM   13  H   UNL     1     -39.718  52.433 -49.371  1.00  0.00     0.166 HD
HETATM   14  C   UNL     1     -40.343  54.428 -49.129  1.00  0.00     0.107 A 
HETATM   15  C   UNL     1     -40.796  55.306 -50.056  1.00  0.00     0.109 A 
BRANCH  11  16
HETATM   16  C   UNL     1     -40.141  52.215 -52.108  1.00  0.00     0.008 A 
HETATM   17  C   UNL     1     -40.366  52.324 -53.483  1.00  0.00     0.015 A 
HETATM   18  C   UNL     1     -40.153  51.232 -54.334  1.00  0.00     0.001 A 
HETATM   19  C   UNL     1     -39.709  50.017 -53.823  1.00  0.00     0.000 A 
HETATM   20  C   UNL     1     -39.477  49.891 -52.459  1.00  0.00     0.001 A 
HETATM   21  C   UNL     1     -39.692  50.980 -51.607  1.00  0.00     0.015 A 
ENDBRANCH  11  16
ENDBRANCH   9  10
ENDBRANCH   8   9
ENDBRANCH   7   8
ENDBRANCH   3   7
BRANCH   1  22
HETATM   22  C   UNL     1     -43.116  56.965 -57.868  1.00  0.00     0.071 A 
HETATM   23  C   UNL     1     -43.042  56.256 -59.086  1.00  0.00     0.095 A 
HETATM   24  C   UNL     1     -42.452  56.876 -60.197  1.00  0.00     0.041 A 
HETATM   25  C   UNL     1     -41.973  58.186 -60.115  1.00  0.00     0.026 A 
HETATM   26  C   UNL     1     -42.097  58.894 -58.926  1.00  0.00     0.036 A 
HETATM   27  C   UNL     1     -42.676  58.297 -57.811  1.00  0.00     0.056 A 
HETATM   28 CL   UNL     1     -41.530  60.515 -58.830  1.00  0.00    -0.084 Cl
BRANCH  23  29
HETATM   29  O   UNL     1     -43.641  55.023 -59.131  1.00  0.00    -0.354 OA
HETATM   30  C   UNL     1     -44.763  54.871 -59.994  1.00  0.00     0.210 C 
ENDBRANCH  23  29
ENDBRANCH   1  22
TORSDOF 7
ENDMDL
MODEL 2
REMARK VINA RESULT:      -8.0      1.924      2.663
REMARK  7 active torsions:
REMARK  status: ('A' for Active; 'I' for Inactive)
REMARK    1  A    between atoms: O_2  and  C_3 
REMARK    2  A    between atoms: C_4  and  N_5 
REMARK       I    between atoms: N_5  and  C_6 
REMARK       I    between atoms: C_6  and  N_7 
REMARK    3  A    between atoms: N_7  and  C_8 
REMARK    4  A    between atoms: C_8  and  C_9 
REMARK    5  A    between atoms: C_9  and  C_10 
REMARK    6  A    between atoms: C_10  and  N_11 
REMARK    7  A    between atoms: C_12  and  C_13 
ROOT
HETATM    1  N   UNL     1     -42.105  56.391 -56.626  1.00  0.00    -0.306 N 
HETATM    2  C   UNL     1     -42.788  56.422 -55.430  1.00  0.00     0.320 C 
HETATM    3  N   UNL     1     -41.943  56.099 -54.388  1.00  0.00    -0.343 N 
HETATM    4  O   UNL     1     -43.982  56.620 -55.248  1.00  0.00    -0.247 OA
HETATM    5  H   UNL     1     -41.382  55.685 -56.643  1.00  0.00     0.171 HD
HETATM    6  H   UNL     1     -40.949  56.197 -54.543  1.00  0.00     0.164 HD
ENDROOT
BRANCH   3   7
HETATM    7  C   UNL     1     -42.427  55.756 -53.071  1.00  0.00     0.126 C 
BRANCH   7   8
HETATM    8  C   UNL     1     -42.867  54.304 -52.922  1.00  0.00     0.040 C 
BRANCH   8   9
HETATM    9  C   UNL     1     -42.874  53.810 -51.475  1.00  0.00     0.131 C 
BRANCH   9  10
HETATM   10  N   UNL     1     -41.527  53.938 -50.883  1.00  0.00    -0.341 N 
HETATM   11  C   UNL     1     -40.415  53.191 -51.134  1.00  0.00     0.117 A 
HETATM   12  N   UNL     1     -39.473  53.723 -50.322  1.00  0.00    -0.350 N 
HETATM   13  H   UNL     1     -38.516  53.392 -50.284  1.00  0.00     0.166 HD
HETATM   14  C   UNL     1     -39.947  54.757 -49.566  1.00  0.00     0.107 A 
HETATM   15  C   UNL     1     -41.250  54.900 -49.911  1.00  0.00     0.109 A 
BRANCH  11  16
HETATM   16  C   UNL     1     -40.138  52.028 -52.081  1.00  0.00     0.008 A 
HETATM   17  C   UNL     1     -39.789  50.748 -51.644  1.00  0.00     0.015 A 
HETATM   18  C   UNL     1     -39.549  49.717 -52.561  1.00  0.00     0.001 A 
HETATM   19  C   UNL     1     -39.657  49.950 -53.927  1.00  0.00     0.000 A 
HETATM   20  C   UNL     1     -40.007  51.215 -54.381  1.00  0.00     0.001 A 
HETATM   21  C   UNL     1     -40.244  52.248 -53.467  1.00  0.00     0.015 A 
ENDBRANCH  11  16
ENDBRANCH   9  10
ENDBRANCH   8   9
ENDBRANCH   7   8
ENDBRANCH   3   7
BRANCH   1  22
HETATM   22  C   UNL     1     -42.663  56.719 -57.884  1.00  0.00     0.071 A 
HETATM   23  C   UNL     1     -42.545  57.984 -58.497  1.00  0.00     0.095 A 
HETATM   24  C   UNL     1     -43.168  58.200 -59.735  1.00  0.00     0.041 A 
HETATM   25  C   UNL     1     -43.868  57.171 -60.373  1.00  0.00     0.026 A 
HETATM   26  C   UNL     1     -43.935  55.914 -59.786  1.00  0.00     0.036 A 
HETATM   27  C   UNL     1     -43.328  55.680 -58.556  1.00  0.00     0.056 A 
HETATM   28 CL   UNL     1     -44.776  54.641 -60.579  1.00  0.00    -0.084 Cl
BRANCH  23  29
HETATM   29  O   UNL     1     -41.742  58.908 -57.878  1.00  0.00    -0.354 OA
HETATM   30  C   UNL     1     -42.384  59.980 -57.196  1.00  0.00     0.210 C 
ENDBRANCH  23  29
ENDBRANCH   1  22
TORSDOF 7
ENDMDL
MODEL 3
REMARK VINA RESULT:      -7.8      4.241      5.743
REMARK  7 active torsions:
REMARK  status: ('A' for Active; 'I' for Inactive)
REMARK    1  A    between atoms: O_2  and  C_3 
REMARK    2  A    between atoms: C_4  and  N_5 
REMARK       I    between atoms: N_5  and  C_6 
REMARK       I    between atoms: C_6  and  N_7 
REMARK    3  A    between atoms: N_7  and  C_8 
REMARK    4  A    between atoms: C_8  and  C_9 
REMARK    5  A    between atoms: C_9  and  C_10 
REMARK    6  A    between atoms: C_10  and  N_11 
REMARK    7  A    between atoms: C_12  and  C_13 
ROOT
HETATM    1  N   UNL     1     -42.948  58.611 -50.947  1.00  0.00    -0.306 N 
HETATM    2  C   UNL     1     -43.880  57.598 -51.002  1.00  0.00     0.320 C 
HETATM    3  N   UNL     1     -43.336  56.420 -50.532  1.00  0.00    -0.343 N 
HETATM    4  O   UNL     1     -45.014  57.641 -51.460  1.00  0.00    -0.247 OA
HETATM    5  H   UNL     1     -42.007  58.282 -51.112  1.00  0.00     0.171 HD
HETATM    6  H   UNL     1     -42.517  56.485 -49.943  1.00  0.00     0.164 HD
ENDROOT
BRANCH   3   7
HETATM    7  C   UNL     1     -43.960  55.135 -50.745  1.00  0.00     0.126 C 
BRANCH   7   8
HETATM    8  C   UNL     1     -43.022  54.065 -51.293  1.00  0.00     0.040 C 
BRANCH   8   9
HETATM    9  C   UNL     1     -41.552  54.482 -51.302  1.00  0.00     0.131 C 
BRANCH   9  10
HETATM   10  N   UNL     1     -41.067  54.623 -52.689  1.00  0.00    -0.341 N 
HETATM   11  C   UNL     1     -40.481  53.683 -53.484  1.00  0.00     0.117 A 
HETATM   12  N   UNL     1     -40.229  54.340 -54.639  1.00  0.00    -0.350 N 
HETATM   13  H   UNL     1     -39.804  53.905 -55.448  1.00  0.00     0.166 HD
HETATM   14  C   UNL     1     -40.618  55.649 -54.599  1.00  0.00     0.107 A 
HETATM   15  C   UNL     1     -41.147  55.840 -53.366  1.00  0.00     0.109 A 
BRANCH  11  16
HETATM   16  C   UNL     1     -40.145  52.209 -53.273  1.00  0.00     0.008 A 
HETATM   17  C   UNL     1     -39.728  51.684 -52.048  1.00  0.00     0.015 A 
HETATM   18  C   UNL     1     -39.436  50.321 -51.913  1.00  0.00     0.001 A 
HETATM   19  C   UNL     1     -39.560  49.463 -53.001  1.00  0.00     0.000 A 
HETATM   20  C   UNL     1     -39.977  49.967 -54.227  1.00  0.00     0.001 A 
HETATM   21  C   UNL     1     -40.266  51.329 -54.364  1.00  0.00     0.015 A 
ENDBRANCH  11  16
ENDBRANCH   9  10
ENDBRANCH   8   9
ENDBRANCH   7   8
ENDBRANCH   3   7
BRANCH   1  22
HETATM   22  C   UNL     1     -43.194  59.957 -51.308  1.00  0.00     0.071 A 
HETATM   23  C   UNL     1     -43.117  60.449 -52.628  1.00  0.00     0.095 A 
HETATM   24  C   UNL     1     -43.354  61.812 -52.859  1.00  0.00     0.041 A 
HETATM   25  C   UNL     1     -43.695  62.668 -51.808  1.00  0.00     0.026 A 
HETATM   26  C   UNL     1     -43.819  62.163 -50.519  1.00  0.00     0.036 A 
HETATM   27  C   UNL     1     -43.584  60.815 -50.267  1.00  0.00     0.056 A 
HETATM   28 CL   UNL     1     -44.260  63.209 -49.227  1.00  0.00    -0.084 Cl
BRANCH  23  29
HETATM   29  O   UNL     1     -42.901  59.534 -53.627  1.00  0.00    -0.354 OA
HETATM   30  C   UNL     1     -41.619  59.531 -54.245  1.00  0.00     0.210 C 
ENDBRANCH  23  29
ENDBRANCH   1  22
TORSDOF 7
ENDMDL
MODEL 4
REMARK VINA RESULT:      -7.8      3.565      9.353
REMARK  7 active torsions:
REMARK  status: ('A' for Active; 'I' for Inactive)
REMARK    1  A    between atoms: O_2  and  C_3 
REMARK    2  A    between atoms: C_4  and  N_5 
REMARK       I    between atoms: N_5  and  C_6 
REMARK       I    between atoms: C_6  and  N_7 
REMARK    3  A    between atoms: N_7  and  C_8 
REMARK    4  A    between atoms: C_8  and  C_9 
REMARK    5  A    between atoms: C_9  and  C_10 
REMARK    6  A    between atoms: C_10  and  N_11 
REMARK    7  A    between atoms: C_12  and  C_13 
ROOT
HETATM    1  N   UNL     1     -40.866  54.855 -54.825  1.00  0.00    -0.306 N 
HETATM    2  C   UNL     1     -42.075  54.968 -55.476  1.00  0.00     0.320 C 
HETATM    3  N   UNL     1     -42.053  56.041 -56.343  1.00  0.00    -0.343 N 
HETATM    4  O   UNL     1     -43.088  54.303 -55.306  1.00  0.00    -0.247 OA
HETATM    5  H   UNL     1     -40.433  55.751 -54.652  1.00  0.00     0.171 HD
HETATM    6  H   UNL     1     -41.150  56.388 -56.636  1.00  0.00     0.164 HD
ENDROOT
BRANCH   3   7
HETATM    7  C   UNL     1     -43.251  56.589 -56.933  1.00  0.00     0.126 C 
BRANCH   7   8
HETATM    8  C   UNL     1     -43.011  57.781 -57.853  1.00  0.00     0.040 C 
BRANCH   8   9
HETATM    9  C   UNL     1     -43.080  57.433 -59.340  1.00  0.00     0.131 C 
BRANCH   9  10
HETATM   10  N   UNL     1     -44.136  56.430 -59.584  1.00  0.00    -0.341 N 
HETATM   11  C   UNL     1     -45.487  56.604 -59.589  1.00  0.00     0.117 A 
HETATM   12  N   UNL     1     -45.977  55.371 -59.853  1.00  0.00    -0.350 N 
HETATM   13  H   UNL     1     -46.965  55.169 -59.939  1.00  0.00     0.166 HD
HETATM   14  C   UNL     1     -44.995  54.432 -59.999  1.00  0.00     0.107 A 
HETATM   15  C   UNL     1     -43.824  55.092 -59.827  1.00  0.00     0.109 A 
BRANCH  11  16
HETATM   16  C   UNL     1     -46.377  57.828 -59.387  1.00  0.00     0.008 A 
HETATM   17  C   UNL     1     -46.805  58.647 -60.434  1.00  0.00     0.015 A 
HETATM   18  C   UNL     1     -47.624  59.757 -60.189  1.00  0.00     0.001 A 
HETATM   19  C   UNL     1     -48.030  60.060 -58.894  1.00  0.00     0.000 A 
HETATM   20  C   UNL     1     -47.618  59.254 -57.840  1.00  0.00     0.001 A 
HETATM   21  C   UNL     1     -46.796  58.147 -58.083  1.00  0.00     0.015 A 
ENDBRANCH  11  16
ENDBRANCH   9  10
ENDBRANCH   8   9
ENDBRANCH   7   8
ENDBRANCH   3   7
BRANCH   1  22
HETATM   22  C   UNL     1     -40.536  53.833 -53.903  1.00  0.00     0.071 A 
HETATM   23  C   UNL     1     -40.601  53.980 -52.501  1.00  0.00     0.095 A 
HETATM   24  C   UNL     1     -40.220  52.903 -51.688  1.00  0.00     0.041 A 
HETATM   25  C   UNL     1     -39.814  51.689 -52.250  1.00  0.00     0.026 A 
HETATM   26  C   UNL     1     -39.804  51.537 -53.631  1.00  0.00     0.036 A 
HETATM   27  C   UNL     1     -40.173  52.595 -54.456  1.00  0.00     0.056 A 
HETATM   28 CL   UNL     1     -39.326  50.038 -54.325  1.00  0.00    -0.084 Cl
BRANCH  23  29
HETATM   29  O   UNL     1     -41.125  55.152 -52.017  1.00  0.00    -0.354 OA
HETATM   30  C   UNL     1     -41.000  55.397 -50.621  1.00  0.00     0.210 C 
ENDBRANCH  23  29
ENDBRANCH   1  22
TORSDOF 7
ENDMDL
MODEL 5
REMARK VINA RESULT:      -7.7      3.484      8.268
REMARK  7 active torsions:
REMARK  status: ('A' for Active; 'I' for Inactive)
REMARK    1  A    between atoms: O_2  and  C_3 
REMARK    2  A    between atoms: C_4  and  N_5 
REMARK       I    between atoms: N_5  and  C_6 
REMARK       I    between atoms: C_6  and  N_7 
REMARK    3  A    between atoms: N_7  and  C_8 
REMARK    4  A    between atoms: C_8  and  C_9 
REMARK    5  A    between atoms: C_9  and  C_10 
REMARK    6  A    between atoms: C_10  and  N_11 
REMARK    7  A    between atoms: C_12  and  C_13 
ROOT
HETATM    1  N   UNL     1     -40.731  54.636 -54.868  1.00  0.00    -0.306 N 
HETATM    2  C   UNL     1     -41.895  54.694 -55.603  1.00  0.00     0.320 C 
HETATM    3  N   UNL     1     -41.845  55.744 -56.497  1.00  0.00    -0.343 N 
HETATM    4  O   UNL     1     -42.898  54.003 -55.484  1.00  0.00    -0.247 OA
HETATM    5  H   UNL     1     -40.337  55.549 -54.692  1.00  0.00     0.171 HD
HETATM    6  H   UNL     1     -40.934  56.111 -56.738  1.00  0.00     0.164 HD
ENDROOT
BRANCH   3   7
HETATM    7  C   UNL     1     -43.015  56.240 -57.182  1.00  0.00     0.126 C 
BRANCH   7   8
HETATM    8  C   UNL     1     -42.748  57.422 -58.108  1.00  0.00     0.040 C 
BRANCH   8   9
HETATM    9  C   UNL     1     -43.512  58.688 -57.722  1.00  0.00     0.131 C 
BRANCH   9  10
HETATM   10  N   UNL     1     -44.940  58.381 -57.509  1.00  0.00    -0.341 N 
HETATM   11  C   UNL     1     -45.614  58.253 -56.331  1.00  0.00     0.117 A 
HETATM   12  N   UNL     1     -46.880  57.961 -56.707  1.00  0.00    -0.350 N 
HETATM   13  H   UNL     1     -47.639  57.819 -56.052  1.00  0.00     0.166 HD
HETATM   14  C   UNL     1     -47.026  57.889 -58.063  1.00  0.00     0.107 A 
HETATM   15  C   UNL     1     -45.802  58.150 -58.582  1.00  0.00     0.109 A 
BRANCH  11  16
HETATM   16  C   UNL     1     -45.190  58.394 -54.872  1.00  0.00     0.008 A 
HETATM   17  C   UNL     1     -45.222  59.605 -54.176  1.00  0.00     0.015 A 
HETATM   18  C   UNL     1     -44.823  59.673 -52.835  1.00  0.00     0.001 A 
HETATM   19  C   UNL     1     -44.390  58.532 -52.170  1.00  0.00     0.000 A 
HETATM   20  C   UNL     1     -44.355  57.318 -52.844  1.00  0.00     0.001 A 
HETATM   21  C   UNL     1     -44.749  57.248 -54.185  1.00  0.00     0.015 A 
ENDBRANCH  11  16
ENDBRANCH   9  10
ENDBRANCH   8   9
ENDBRANCH   7   8
ENDBRANCH   3   7
BRANCH   1  22
HETATM   22  C   UNL     1     -40.437  53.648 -53.897  1.00  0.00     0.071 A 
HETATM   23  C   UNL     1     -40.516  53.859 -52.505  1.00  0.00     0.095 A 
HETATM   24  C   UNL     1     -40.170  52.811 -51.639  1.00  0.00     0.041 A 
HETATM   25  C   UNL     1     -39.785  51.565 -52.141  1.00  0.00     0.026 A 
HETATM   26  C   UNL     1     -39.759  51.352 -53.514  1.00  0.00     0.036 A 
HETATM   27  C   UNL     1     -40.095  52.379 -54.390  1.00  0.00     0.056 A 
HETATM   28 CL   UNL     1     -39.307  49.813 -54.134  1.00  0.00    -0.084 Cl
BRANCH  23  29
HETATM   29  O   UNL     1     -41.020  55.063 -52.080  1.00  0.00    -0.354 OA
HETATM   30  C   UNL     1     -42.033  55.032 -51.081  1.00  0.00     0.210 C 
ENDBRANCH  23  29
ENDBRANCH   1  22
TORSDOF 7
ENDMDL
MODEL 6
REMARK VINA RESULT:      -7.7      3.029      8.469
REMARK  7 active torsions:
REMARK  status: ('A' for Active; 'I' for Inactive)
REMARK    1  A    between atoms: O_2  and  C_3 
REMARK    2  A    between atoms: C_4  and  N_5 
REMARK       I    between atoms: N_5  and  C_6 
REMARK       I    between atoms: C_6  and  N_7 
REMARK    3  A    between atoms: N_7  and  C_8 
REMARK    4  A    between atoms: C_8  and  C_9 
REMARK    5  A    between atoms: C_9  and  C_10 
REMARK    6  A    between atoms: C_10  and  N_11 
REMARK    7  A    between atoms: C_12  and  C_13 
ROOT
HETATM    1  N   UNL     1     -40.947  54.447 -52.867  1.00  0.00    -0.306 N 
HETATM    2  C   UNL     1     -42.266  54.845 -52.860  1.00  0.00     0.320 C 
HETATM    3  N   UNL     1     -42.375  56.153 -53.284  1.00  0.00    -0.343 N 
HETATM    4  O   UNL     1     -43.242  54.215 -52.473  1.00  0.00    -0.247 OA
HETATM    5  H   UNL     1     -40.313  55.201 -52.640  1.00  0.00     0.171 HD
HETATM    6  H   UNL     1     -41.609  56.535 -53.822  1.00  0.00     0.164 HD
ENDROOT
BRANCH   3   7
HETATM    7  C   UNL     1     -43.574  56.935 -53.099  1.00  0.00     0.126 C 
BRANCH   7   8
HETATM    8  C   UNL     1     -43.870  57.911 -54.233  1.00  0.00     0.040 C 
BRANCH   8   9
HETATM    9  C   UNL     1     -44.032  57.238 -55.595  1.00  0.00     0.131 C 
BRANCH   9  10
HETATM   10  N   UNL     1     -43.308  57.999 -56.633  1.00  0.00    -0.341 N 
HETATM   11  C   UNL     1     -43.328  57.823 -57.984  1.00  0.00     0.117 A 
HETATM   12  N   UNL     1     -42.487  58.774 -58.452  1.00  0.00    -0.350 N 
HETATM   13  H   UNL     1     -42.295  58.915 -59.436  1.00  0.00     0.166 HD
HETATM   14  C   UNL     1     -41.934  59.528 -57.456  1.00  0.00     0.107 A 
HETATM   15  C   UNL     1     -42.444  59.043 -56.298  1.00  0.00     0.109 A 
BRANCH  11  16
HETATM   16  C   UNL     1     -44.076  56.852 -58.894  1.00  0.00     0.008 A 
HETATM   17  C   UNL     1     -45.166  57.226 -59.684  1.00  0.00     0.015 A 
HETATM   18  C   UNL     1     -45.813  56.291 -60.502  1.00  0.00     0.001 A 
HETATM   19  C   UNL     1     -45.377  54.972 -60.545  1.00  0.00     0.000 A 
HETATM   20  C   UNL     1     -44.292  54.583 -59.770  1.00  0.00     0.001 A 
HETATM   21  C   UNL     1     -43.646  55.514 -58.948  1.00  0.00     0.015 A 
ENDBRANCH  11  16
ENDBRANCH   9  10
ENDBRANCH   8   9
ENDBRANCH   7   8
ENDBRANCH   3   7
BRANCH   1  22
HETATM   22  C   UNL     1     -40.492  53.149 -52.533  1.00  0.00     0.071 A 
HETATM   23  C   UNL     1     -40.270  52.703 -51.213  1.00  0.00     0.095 A 
HETATM   24  C   UNL     1     -39.789  51.401 -51.009  1.00  0.00     0.041 A 
HETATM   25  C   UNL     1     -39.563  50.543 -52.090  1.00  0.00     0.026 A 
HETATM   26  C   UNL     1     -39.834  50.975 -53.382  1.00  0.00     0.036 A 
HETATM   27  C   UNL     1     -40.308  52.264 -53.607  1.00  0.00     0.056 A 
HETATM   28 CL   UNL     1     -39.579  49.914 -54.712  1.00  0.00    -0.084 Cl
BRANCH  23  29
HETATM   29  O   UNL     1     -40.629  53.550 -50.196  1.00  0.00    -0.354 OA
HETATM   30  C   UNL     1     -39.584  54.242 -49.522  1.00  0.00     0.210 C 
ENDBRANCH  23  29
ENDBRANCH   1  22
TORSDOF 7
ENDMDL
MODEL 7
REMARK VINA RESULT:      -7.7      3.745      5.497
REMARK  7 active torsions:
REMARK  status: ('A' for Active; 'I' for Inactive)
REMARK    1  A    between atoms: O_2  and  C_3 
REMARK    2  A    between atoms: C_4  and  N_5 
REMARK       I    between atoms: N_5  and  C_6 
REMARK       I    between atoms: C_6  and  N_7 
REMARK    3  A    between atoms: N_7  and  C_8 
REMARK    4  A    between atoms: C_8  and  C_9 
REMARK    5  A    between atoms: C_9  and  C_10 
REMARK    6  A    between atoms: C_10  and  N_11 
REMARK    7  A    between atoms: C_12  and  C_13 
ROOT
HETATM    1  N   UNL     1     -41.457  59.066 -51.597  1.00  0.00    -0.306 N 
HETATM    2  C   UNL     1     -42.105  57.982 -51.046  1.00  0.00     0.320 C 
HETATM    3  N   UNL     1     -41.268  57.317 -50.174  1.00  0.00    -0.343 N 
HETATM    4  O   UNL     1     -43.226  57.563 -51.303  1.00  0.00    -0.247 OA
HETATM    5  H   UNL     1     -40.469  58.903 -51.729  1.00  0.00     0.171 HD
HETATM    6  H   UNL     1     -40.476  57.825 -49.806  1.00  0.00     0.164 HD
ENDROOT
BRANCH   3   7
HETATM    7  C   UNL     1     -41.553  55.990 -49.681  1.00  0.00     0.126 C 
BRANCH   7   8
HETATM    8  C   UNL     1     -40.968  54.866 -50.528  1.00  0.00     0.040 C 
BRANCH   8   9
HETATM    9  C   UNL     1     -41.896  54.393 -51.647  1.00  0.00     0.131 C 
BRANCH   9  10
HETATM   10  N   UNL     1     -41.226  54.519 -52.957  1.00  0.00    -0.341 N 
HETATM   11  C   UNL     1     -40.502  53.584 -53.634  1.00  0.00     0.117 A 
HETATM   12  N   UNL     1     -40.113  54.222 -54.762  1.00  0.00    -0.350 N 
HETATM   13  H   UNL     1     -39.563  53.785 -55.490  1.00  0.00     0.166 HD
HETATM   14  C   UNL     1     -40.549  55.516 -54.815  1.00  0.00     0.107 A 
HETATM   15  C   UNL     1     -41.253  55.716 -53.674  1.00  0.00     0.109 A 
BRANCH  11  16
HETATM   16  C   UNL     1     -40.147  52.130 -53.336  1.00  0.00     0.008 A 
HETATM   17  C   UNL     1     -39.692  51.691 -52.090  1.00  0.00     0.015 A 
HETATM   18  C   UNL     1     -39.384  50.341 -51.874  1.00  0.00     0.001 A 
HETATM   19  C   UNL     1     -39.531  49.413 -52.898  1.00  0.00     0.000 A 
HETATM   20  C   UNL     1     -39.986  49.830 -54.142  1.00  0.00     0.001 A 
HETATM   21  C   UNL     1     -40.290  51.178 -54.362  1.00  0.00     0.015 A 
ENDBRANCH  11  16
ENDBRANCH   9  10
ENDBRANCH   8   9
ENDBRANCH   7   8
ENDBRANCH   3   7
BRANCH   1  22
HETATM   22  C   UNL     1     -42.046  59.989 -52.495  1.00  0.00     0.071 A 
HETATM   23  C   UNL     1     -42.758  61.139 -52.094  1.00  0.00     0.095 A 
HETATM   24  C   UNL     1     -43.323  61.964 -53.078  1.00  0.00     0.041 A 
HETATM   25  C   UNL     1     -43.157  61.676 -54.436  1.00  0.00     0.026 A 
HETATM   26  C   UNL     1     -42.410  60.570 -54.821  1.00  0.00     0.036 A 
HETATM   27  C   UNL     1     -41.845  59.736 -53.861  1.00  0.00     0.056 A 
HETATM   28 CL   UNL     1     -42.184  60.227 -56.491  1.00  0.00    -0.084 Cl
BRANCH  23  29
HETATM   29  O   UNL     1     -42.778  61.429 -50.754  1.00  0.00    -0.354 OA
HETATM   30  C   UNL     1     -43.045  62.776 -50.380  1.00  0.00     0.210 C 
ENDBRANCH  23  29
ENDBRANCH   1  22
TORSDOF 7
ENDMDL
MODEL 8
REMARK VINA RESULT:      -7.7      3.720      7.793
REMARK  7 active torsions:
REMARK  status: ('A' for Active; 'I' for Inactive)
REMARK    1  A    between atoms: O_2  and  C_3 
REMARK    2  A    between atoms: C_4  and  N_5 
REMARK       I    between atoms: N_5  and  C_6 
REMARK       I    between atoms: C_6  and  N_7 
REMARK    3  A    between atoms: N_7  and  C_8 
REMARK    4  A    between atoms: C_8  and  C_9 
REMARK    5  A    between atoms: C_9  and  C_10 
REMARK    6  A    between atoms: C_10  and  N_11 
REMARK    7  A    between atoms: C_12  and  C_13 
ROOT
HETATM    1  N   UNL     1     -40.884  54.800 -55.212  1.00  0.00    -0.306 N 
HETATM    2  C   UNL     1     -42.099  54.855 -55.860  1.00  0.00     0.320 C 
HETATM    3  N   UNL     1     -42.074  55.824 -56.842  1.00  0.00    -0.343 N 
HETATM    4  O   UNL     1     -43.118  54.227 -55.605  1.00  0.00    -0.247 OA
HETATM    5  H   UNL     1     -40.438  55.704 -55.145  1.00  0.00     0.171 HD
HETATM    6  H   UNL     1     -41.171  56.124 -57.181  1.00  0.00     0.164 HD
ENDROOT
BRANCH   3   7
HETATM    7  C   UNL     1     -43.273  56.319 -57.477  1.00  0.00     0.126 C 
BRANCH   7   8
HETATM    8  C   UNL     1     -43.813  57.613 -56.878  1.00  0.00     0.040 C 
BRANCH   8   9
HETATM    9  C   UNL     1     -43.106  58.036 -55.590  1.00  0.00     0.131 C 
BRANCH   9  10
HETATM   10  N   UNL     1     -42.932  59.502 -55.558  1.00  0.00    -0.341 N 
HETATM   11  C   UNL     1     -42.442  60.276 -54.550  1.00  0.00     0.117 A 
HETATM   12  N   UNL     1     -42.511  61.536 -55.039  1.00  0.00    -0.350 N 
HETATM   13  H   UNL     1     -42.202  62.352 -54.527  1.00  0.00     0.166 HD
HETATM   14  C   UNL     1     -43.034  61.585 -56.300  1.00  0.00     0.107 A 
HETATM   15  C   UNL     1     -43.308  60.302 -56.638  1.00  0.00     0.109 A 
BRANCH  11  16
HETATM   16  C   UNL     1     -41.892  59.951 -53.164  1.00  0.00     0.008 A 
HETATM   17  C   UNL     1     -42.479  60.402 -51.979  1.00  0.00     0.015 A 
HETATM   18  C   UNL     1     -41.932  60.069 -50.734  1.00  0.00     0.001 A 
HETATM   19  C   UNL     1     -40.792  59.277 -50.655  1.00  0.00     0.000 A 
HETATM   20  C   UNL     1     -40.195  58.816 -51.822  1.00  0.00     0.001 A 
HETATM   21  C   UNL     1     -40.739  59.150 -53.068  1.00  0.00     0.015 A 
ENDBRANCH  11  16
ENDBRANCH   9  10
ENDBRANCH   8   9
ENDBRANCH   7   8
ENDBRANCH   3   7
BRANCH   1  22
HETATM   22  C   UNL     1     -40.556  53.883 -54.185  1.00  0.00     0.071 A 
HETATM   23  C   UNL     1     -40.614  54.183 -52.807  1.00  0.00     0.095 A 
HETATM   24  C   UNL     1     -40.236  53.200 -51.882  1.00  0.00     0.041 A 
HETATM   25  C   UNL     1     -39.838  51.929 -52.310  1.00  0.00     0.026 A 
HETATM   26  C   UNL     1     -39.833  51.627 -53.665  1.00  0.00     0.036 A 
HETATM   27  C   UNL     1     -40.201  52.590 -54.601  1.00  0.00     0.056 A 
HETATM   28 CL   UNL     1     -39.367  50.058 -54.193  1.00  0.00    -0.084 Cl
BRANCH  23  29
HETATM   29  O   UNL     1     -41.130  55.404 -52.453  1.00  0.00    -0.354 OA
HETATM   30  C   UNL     1     -41.809  55.490 -51.205  1.00  0.00     0.210 C 
ENDBRANCH  23  29
ENDBRANCH   1  22
TORSDOF 7
ENDMDL
MODEL 9
REMARK VINA RESULT:      -7.4      3.172      7.837
REMARK  7 active torsions:
REMARK  status: ('A' for Active; 'I' for Inactive)
REMARK    1  A    between atoms: O_2  and  C_3 
REMARK    2  A    between atoms: C_4  and  N_5 
REMARK       I    between atoms: N_5  and  C_6 
REMARK       I    between atoms: C_6  and  N_7 
REMARK    3  A    between atoms: N_7  and  C_8 
REMARK    4  A    between atoms: C_8  and  C_9 
REMARK    5  A    between atoms: C_9  and  C_10 
REMARK    6  A    between atoms: C_10  and  N_11 
REMARK    7  A    between atoms: C_12  and  C_13 
ROOT
HETATM    1  N   UNL     1     -40.731  54.222 -54.173  1.00  0.00    -0.306 N 
HETATM    2  C   UNL     1     -41.956  54.407 -54.774  1.00  0.00     0.320 C 
HETATM    3  N   UNL     1     -41.805  55.063 -55.978  1.00  0.00    -0.343 N 
HETATM    4  O   UNL     1     -43.063  54.132 -54.331  1.00  0.00    -0.247 OA
HETATM    5  H   UNL     1     -40.086  54.976 -54.362  1.00  0.00     0.171 HD
HETATM    6  H   UNL     1     -40.892  55.039 -56.413  1.00  0.00     0.164 HD
ENDROOT
BRANCH   3   7
HETATM    7  C   UNL     1     -42.913  55.660 -56.685  1.00  0.00     0.126 C 
BRANCH   7   8
HETATM    8  C   UNL     1     -42.507  56.670 -57.753  1.00  0.00     0.040 C 
BRANCH   8   9
HETATM    9  C   UNL     1     -43.456  57.864 -57.862  1.00  0.00     0.131 C 
BRANCH   9  10
HETATM   10  N   UNL     1     -42.814  59.081 -57.327  1.00  0.00    -0.341 N 
HETATM   11  C   UNL     1     -42.519  59.386 -56.032  1.00  0.00     0.117 A 
HETATM   12  N   UNL     1     -41.954  60.613 -56.104  1.00  0.00    -0.350 N 
HETATM   13  H   UNL     1     -41.607  61.116 -55.297  1.00  0.00     0.166 HD
HETATM   14  C   UNL     1     -41.893  61.094 -57.381  1.00  0.00     0.107 A 
HETATM   15  C   UNL     1     -42.439  60.132 -58.165  1.00  0.00     0.109 A 
BRANCH  11  16
HETATM   16  C   UNL     1     -42.700  58.628 -54.720  1.00  0.00     0.008 A 
HETATM   17  C   UNL     1     -43.947  58.244 -54.221  1.00  0.00     0.015 A 
HETATM   18  C   UNL     1     -44.052  57.547 -53.010  1.00  0.00     0.001 A 
HETATM   19  C   UNL     1     -42.912  57.220 -52.285  1.00  0.00     0.000 A 
HETATM   20  C   UNL     1     -41.662  57.589 -52.768  1.00  0.00     0.001 A 
HETATM   21  C   UNL     1     -41.556  58.289 -53.975  1.00  0.00     0.015 A 
ENDBRANCH  11  16
ENDBRANCH   9  10
ENDBRANCH   8   9
ENDBRANCH   7   8
ENDBRANCH   3   7
BRANCH   1  22
HETATM   22  C   UNL     1     -40.525  53.540 -52.950  1.00  0.00     0.071 A 
HETATM   23  C   UNL     1     -40.017  52.227 -52.851  1.00  0.00     0.095 A 
HETATM   24  C   UNL     1     -39.886  51.644 -51.582  1.00  0.00     0.041 A 
HETATM   25  C   UNL     1     -40.218  52.360 -50.427  1.00  0.00     0.026 A 
HETATM   26  C   UNL     1     -40.668  53.670 -50.532  1.00  0.00     0.036 A 
HETATM   27  C   UNL     1     -40.810  54.265 -51.782  1.00  0.00     0.056 A 
HETATM   28 CL   UNL     1     -41.056  54.560 -49.113  1.00  0.00    -0.084 Cl
BRANCH  23  29
HETATM   29  O   UNL     1     -39.595  51.629 -54.010  1.00  0.00    -0.354 OA
HETATM   30  C   UNL     1     -39.878  50.244 -54.173  1.00  0.00     0.210 C 
ENDBRANCH  23  29
ENDBRANCH   1  22
TORSDOF 7
ENDMDL
MODEL 10
REMARK VINA RESULT:      -7.3      3.128      8.662
REMARK  7 active torsions:
REMARK  status: ('A' for Active; 'I' for Inactive)
REMARK    1  A    between atoms: O_2  and  C_3 
REMARK    2  A    between atoms: C_4  and  N_5 
REMARK       I    between atoms: N_5  and  C_6 
REMARK       I    between atoms: C_6  and  N_7 
REMARK    3  A    between atoms: N_7  and  C_8 
REMARK    4  A    between atoms: C_8  and  C_9 
REMARK    5  A    between atoms: C_9  and  C_10 
REMARK    6  A    between atoms: C_10  and  N_11 
REMARK    7  A    between atoms: C_12  and  C_13 
ROOT
HETATM    1  N   UNL     1     -41.226  55.240 -55.176  1.00  0.00    -0.306 N 
HETATM    2  C   UNL     1     -42.303  54.910 -55.969  1.00  0.00     0.320 C 
HETATM    3  N   UNL     1     -42.174  55.484 -57.216  1.00  0.00    -0.343 N 
HETATM    4  O   UNL     1     -43.302  54.274 -55.658  1.00  0.00    -0.247 OA
HETATM    5  H   UNL     1     -40.869  56.164 -55.371  1.00  0.00     0.171 HD
HETATM    6  H   UNL     1     -41.248  55.771 -57.506  1.00  0.00     0.164 HD
ENDROOT
BRANCH   3   7
HETATM    7  C   UNL     1     -43.270  55.571 -58.151  1.00  0.00     0.126 C 
BRANCH   7   8
HETATM    8  C   UNL     1     -43.191  56.757 -59.105  1.00  0.00     0.040 C 
BRANCH   8   9
HETATM    9  C   UNL     1     -43.376  58.111 -58.420  1.00  0.00     0.131 C 
BRANCH   9  10
HETATM   10  N   UNL     1     -44.549  58.075 -57.523  1.00  0.00    -0.341 N 
HETATM   11  C   UNL     1     -45.868  57.990 -57.854  1.00  0.00     0.117 A 
HETATM   12  N   UNL     1     -46.507  58.005 -56.662  1.00  0.00    -0.350 N 
HETATM   13  H   UNL     1     -47.513  57.939 -56.566  1.00  0.00     0.166 HD
HETATM   14  C   UNL     1     -45.650  58.109 -55.603  1.00  0.00     0.107 A 
HETATM   15  C   UNL     1     -44.406  58.158 -56.137  1.00  0.00     0.109 A 
BRANCH  11  16
HETATM   16  C   UNL     1     -46.599  57.877 -59.189  1.00  0.00     0.008 A 
HETATM   17  C   UNL     1     -47.097  58.980 -59.887  1.00  0.00     0.015 A 
HETATM   18  C   UNL     1     -47.758  58.816 -61.111  1.00  0.00     0.001 A 
HETATM   19  C   UNL     1     -47.925  57.548 -61.656  1.00  0.00     0.000 A 
HETATM   20  C   UNL     1     -47.432  56.440 -60.979  1.00  0.00     0.001 A 
HETATM   21  C   UNL     1     -46.776  56.601 -59.754  1.00  0.00     0.015 A 
ENDBRANCH  11  16
ENDBRANCH   9  10
ENDBRANCH   8   9
ENDBRANCH   7   8
ENDBRANCH   3   7
BRANCH   1  22
HETATM   22  C   UNL     1     -41.022  54.776 -53.854  1.00  0.00     0.071 A 
HETATM   23  C   UNL     1     -40.578  53.476 -53.531  1.00  0.00     0.095 A 
HETATM   24  C   UNL     1     -40.442  53.122 -52.181  1.00  0.00     0.041 A 
HETATM   25  C   UNL     1     -40.708  54.047 -51.167  1.00  0.00     0.026 A 
HETATM   26  C   UNL     1     -41.095  55.340 -51.497  1.00  0.00     0.036 A 
HETATM   27  C   UNL     1     -41.240  55.711 -52.830  1.00  0.00     0.056 A 
HETATM   28 CL   UNL     1     -41.400  56.487 -50.252  1.00  0.00    -0.084 Cl
BRANCH  23  29
HETATM   29  O   UNL     1     -40.217  52.660 -54.572  1.00  0.00    -0.354 OA
HETATM   30  C   UNL     1     -40.174  51.260 -54.321  1.00  0.00     0.210 C 
ENDBRANCH  23  29
ENDBRANCH   1  22
TORSDOF 7
ENDMDL
