MODEL 1
REMARK VINA RESULT:      -7.9      0.000      0.000
REMARK  5 active torsions:
REMARK  status: ('A' for Active; 'I' for Inactive)
REMARK    1  A    between atoms: C_4  and  N_5 
REMARK       I    between atoms: N_5  and  C_6 
REMARK       I    between atoms: C_6  and  N_7 
REMARK    2  A    between atoms: N_7  and  C_8 
REMARK    3  A    between atoms: C_8  and  C_9 
REMARK    4  A    between atoms: C_9  and  N_10 
REMARK    5  A    between atoms: C_9  and  C_14 
ROOT
HETATM    1  N   UNL     1     -40.718  54.004 -50.577  1.00  0.00    -0.307 N 
HETATM    2  C   UNL     1     -41.638  54.870 -50.099  1.00  0.00     0.320 C 
HETATM    3  N   UNL     1     -42.835  54.935 -50.728  1.00  0.00    -0.340 N 
HETATM    4  O   UNL     1     -41.427  55.536 -49.086  1.00  0.00    -0.247 OA
HETATM    5  H   UNL     1     -39.950  53.797 -49.937  1.00  0.00     0.170 HD
HETATM    6  H   UNL     1     -43.103  54.104 -51.245  1.00  0.00     0.164 HD
ENDROOT
BRANCH   1   7
HETATM    7  C   UNL     1     -40.524  53.404 -51.849  1.00  0.00     0.066 A 
HETATM    8  C   UNL     1     -40.565  54.111 -53.057  1.00  0.00     0.038 A 
HETATM    9  C   UNL     1     -40.351  53.457 -54.276  1.00  0.00    -0.059 A 
HETATM   10  C   UNL     1     -40.367  54.223 -55.567  1.00  0.00     0.048 C 
HETATM   11  C   UNL     1     -40.041  52.096 -54.268  1.00  0.00     0.020 A 
HETATM   12  C   UNL     1     -39.953  51.387 -53.059  1.00  0.00    -0.005 A 
HETATM   13  C   UNL     1     -40.195  52.038 -51.831  1.00  0.00     0.093 A 
HETATM   14  C   UNL     1     -39.613  50.028 -53.035  1.00  0.00     0.015 A 
HETATM   15  N   UNL     1     -40.105  51.384 -50.648  1.00  0.00    -0.258 NA
HETATM   16  C   UNL     1     -39.772  50.073 -50.667  1.00  0.00     0.117 A 
HETATM   17  C   UNL     1     -39.519  49.360 -51.821  1.00  0.00     0.020 A 
ENDBRANCH   1   7
BRANCH   3  18
HETATM   18  C   UNL     1     -43.818  56.000 -50.554  1.00  0.00     0.164 C 
BRANCH  18  19
HETATM   19  C   UNL     1     -43.621  57.300 -51.399  1.00  0.00     0.261 C 
BRANCH  19  20
HETATM   20  N   UNL     1     -42.323  58.025 -51.046  1.00  0.00    -0.067 N 
HETATM   21  H   UNL     1     -42.035  57.623 -50.131  1.00  0.00     0.280 HD
HETATM   22  C   UNL     1     -41.159  57.766 -51.953  1.00  0.00     0.270 C 
HETATM   23  C   UNL     1     -42.521  59.489 -50.803  1.00  0.00     0.270 C 
ENDBRANCH  19  20
BRANCH  19  24
HETATM   24  C   UNL     1     -43.744  57.016 -52.866  1.00  0.00     0.085 A 
HETATM   25  O   UNL     1     -43.569  55.712 -53.235  1.00  0.00    -0.325 OA
HETATM   26  C   UNL     1     -43.723  55.652 -54.582  1.00  0.00     0.142 A 
HETATM   27  C   UNL     1     -44.006  56.897 -55.089  1.00  0.00     0.027 A 
HETATM   28  C   UNL     1     -44.024  57.782 -53.983  1.00  0.00     0.037 A 
ENDBRANCH  19  24
ENDBRANCH  18  19
ENDBRANCH   3  18
TORSDOF 5
ENDMDL
MODEL 2
REMARK VINA RESULT:      -7.6      2.033      3.971
REMARK  5 active torsions:
REMARK  status: ('A' for Active; 'I' for Inactive)
REMARK    1  A    between atoms: C_4  and  N_5 
REMARK       I    between atoms: N_5  and  C_6 
REMARK       I    between atoms: C_6  and  N_7 
REMARK    2  A    between atoms: N_7  and  C_8 
REMARK    3  A    between atoms: C_8  and  C_9 
REMARK    4  A    between atoms: C_9  and  N_10 
REMARK    5  A    between atoms: C_9  and  C_14 
ROOT
HETATM    1  N   UNL     1     -43.005  54.653 -53.316  1.00  0.00    -0.307 N 
HETATM    2  C   UNL     1     -43.281  55.849 -53.878  1.00  0.00     0.320 C 
HETATM    3  N   UNL     1     -42.300  56.783 -53.898  1.00  0.00    -0.340 N 
HETATM    4  O   UNL     1     -44.365  56.072 -54.415  1.00  0.00    -0.247 OA
HETATM    5  H   UNL     1     -43.661  53.907 -53.548  1.00  0.00     0.170 HD
HETATM    6  H   UNL     1     -41.353  56.422 -53.850  1.00  0.00     0.164 HD
ENDROOT
BRANCH   1   7
HETATM    7  C   UNL     1     -42.047  54.235 -52.354  1.00  0.00     0.066 A 
HETATM    8  C   UNL     1     -41.994  54.727 -51.044  1.00  0.00     0.038 A 
HETATM    9  C   UNL     1     -41.031  54.260 -50.143  1.00  0.00    -0.059 A 
HETATM   10  C   UNL     1     -40.995  54.769 -48.731  1.00  0.00     0.048 C 
HETATM   11  C   UNL     1     -40.154  53.252 -50.551  1.00  0.00     0.020 A 
HETATM   12  C   UNL     1     -40.228  52.721 -51.848  1.00  0.00    -0.005 A 
HETATM   13  C   UNL     1     -41.182  53.209 -52.767  1.00  0.00     0.093 A 
HETATM   14  C   UNL     1     -39.375  51.689 -52.262  1.00  0.00     0.015 A 
HETATM   15  N   UNL     1     -41.285  52.707 -54.022  1.00  0.00    -0.258 NA
HETATM   16  C   UNL     1     -40.445  51.709 -54.381  1.00  0.00     0.117 A 
HETATM   17  C   UNL     1     -39.485  51.173 -53.547  1.00  0.00     0.020 A 
ENDBRANCH   1   7
BRANCH   3  18
HETATM   18  C   UNL     1     -42.497  58.202 -54.178  1.00  0.00     0.164 C 
BRANCH  18  19
HETATM   19  C   UNL     1     -43.065  59.086 -53.022  1.00  0.00     0.261 C 
BRANCH  19  20
HETATM   20  N   UNL     1     -44.478  58.667 -52.618  1.00  0.00    -0.067 N 
HETATM   21  H   UNL     1     -44.752  57.948 -53.318  1.00  0.00     0.280 HD
HETATM   22  C   UNL     1     -44.604  57.973 -51.297  1.00  0.00     0.270 C 
HETATM   23  C   UNL     1     -45.477  59.774 -52.761  1.00  0.00     0.270 C 
ENDBRANCH  19  20
BRANCH  19  24
HETATM   24  C   UNL     1     -42.120  59.129 -51.859  1.00  0.00     0.085 A 
HETATM   25  O   UNL     1     -41.275  58.063 -51.741  1.00  0.00    -0.325 OA
HETATM   26  C   UNL     1     -40.501  58.283 -50.648  1.00  0.00     0.142 A 
HETATM   27  C   UNL     1     -40.826  59.482 -50.062  1.00  0.00     0.027 A 
HETATM   28  C   UNL     1     -41.871  60.035 -50.843  1.00  0.00     0.037 A 
ENDBRANCH  19  24
ENDBRANCH  18  19
ENDBRANCH   3  18
TORSDOF 5
ENDMDL
MODEL 3
REMARK VINA RESULT:      -7.6      1.419      2.116
REMARK  5 active torsions:
REMARK  status: ('A' for Active; 'I' for Inactive)
REMARK    1  A    between atoms: C_4  and  N_5 
REMARK       I    between atoms: N_5  and  C_6 
REMARK       I    between atoms: C_6  and  N_7 
REMARK    2  A    between atoms: N_7  and  C_8 
REMARK    3  A    between atoms: C_8  and  C_9 
REMARK    4  A    between atoms: C_9  and  N_10 
REMARK    5  A    between atoms: C_9  and  C_14 
ROOT
HETATM    1  N   UNL     1     -40.811  54.050 -50.571  1.00  0.00    -0.307 N 
HETATM    2  C   UNL     1     -41.641  55.040 -50.178  1.00  0.00     0.320 C 
HETATM    3  N   UNL     1     -42.745  55.276 -50.927  1.00  0.00    -0.340 N 
HETATM    4  O   UNL     1     -41.444  55.670 -49.140  1.00  0.00    -0.247 OA
HETATM    5  H   UNL     1     -40.151  53.735 -49.858  1.00  0.00     0.170 HD
HETATM    6  H   UNL     1     -43.074  54.492 -51.479  1.00  0.00     0.164 HD
ENDROOT
BRANCH   1   7
HETATM    7  C   UNL     1     -40.574  53.427 -51.824  1.00  0.00     0.066 A 
HETATM    8  C   UNL     1     -40.585  54.110 -53.047  1.00  0.00     0.038 A 
HETATM    9  C   UNL     1     -40.329  53.434 -54.246  1.00  0.00    -0.059 A 
HETATM   10  C   UNL     1     -40.313  54.174 -55.552  1.00  0.00     0.048 C 
HETATM   11  C   UNL     1     -40.007  52.076 -54.202  1.00  0.00     0.020 A 
HETATM   12  C   UNL     1     -39.950  51.392 -52.977  1.00  0.00    -0.005 A 
HETATM   13  C   UNL     1     -40.233  52.065 -51.769  1.00  0.00     0.093 A 
HETATM   14  C   UNL     1     -39.598  50.037 -52.916  1.00  0.00     0.015 A 
HETATM   15  N   UNL     1     -40.173  51.435 -50.571  1.00  0.00    -0.258 NA
HETATM   16  C   UNL     1     -39.828  50.127 -50.554  1.00  0.00     0.117 A 
HETATM   17  C   UNL     1     -39.535  49.394 -51.686  1.00  0.00     0.020 A 
ENDBRANCH   1   7
BRANCH   3  18
HETATM   18  C   UNL     1     -43.578  56.472 -50.840  1.00  0.00     0.164 C 
BRANCH  18  19
HETATM   19  C   UNL     1     -43.605  57.417 -52.084  1.00  0.00     0.261 C 
BRANCH  19  20
HETATM   20  N   UNL     1     -44.685  58.491 -51.967  1.00  0.00    -0.067 N 
HETATM   21  H   UNL     1     -45.529  57.984 -51.631  1.00  0.00     0.280 HD
HETATM   22  C   UNL     1     -44.448  59.551 -50.935  1.00  0.00     0.270 C 
HETATM   23  C   UNL     1     -45.065  59.081 -53.290  1.00  0.00     0.270 C 
ENDBRANCH  19  20
BRANCH  19  24
HETATM   24  C   UNL     1     -42.247  57.990 -52.359  1.00  0.00     0.085 A 
HETATM   25  O   UNL     1     -41.495  58.290 -51.259  1.00  0.00    -0.325 OA
HETATM   26  C   UNL     1     -40.312  58.784 -51.703  1.00  0.00     0.142 A 
HETATM   27  C   UNL     1     -40.282  58.797 -53.076  1.00  0.00     0.027 A 
HETATM   28  C   UNL     1     -41.530  58.281 -53.506  1.00  0.00     0.037 A 
ENDBRANCH  19  24
ENDBRANCH  18  19
ENDBRANCH   3  18
TORSDOF 5
ENDMDL
MODEL 4
REMARK VINA RESULT:      -7.5      2.538      4.531
REMARK  5 active torsions:
REMARK  status: ('A' for Active; 'I' for Inactive)
REMARK    1  A    between atoms: C_4  and  N_5 
REMARK       I    between atoms: N_5  and  C_6 
REMARK       I    between atoms: C_6  and  N_7 
REMARK    2  A    between atoms: N_7  and  C_8 
REMARK    3  A    between atoms: C_8  and  C_9 
REMARK    4  A    between atoms: C_9  and  N_10 
REMARK    5  A    between atoms: C_9  and  C_14 
ROOT
HETATM    1  N   UNL     1     -43.980  55.617 -50.900  1.00  0.00    -0.307 N 
HETATM    2  C   UNL     1     -44.344  56.860 -51.285  1.00  0.00     0.320 C 
HETATM    3  N   UNL     1     -43.507  57.542 -52.102  1.00  0.00    -0.340 N 
HETATM    4  O   UNL     1     -45.429  57.341 -50.960  1.00  0.00    -0.247 OA
HETATM    5  H   UNL     1     -44.734  55.050 -50.512  1.00  0.00     0.170 HD
HETATM    6  H   UNL     1     -42.883  56.972 -52.663  1.00  0.00     0.164 HD
ENDROOT
BRANCH   1   7
HETATM    7  C   UNL     1     -42.723  54.964 -50.806  1.00  0.00     0.066 A 
HETATM    8  C   UNL     1     -42.018  54.802 -49.606  1.00  0.00     0.038 A 
HETATM    9  C   UNL     1     -40.788  54.135 -49.584  1.00  0.00    -0.059 A 
HETATM   10  C   UNL     1     -40.049  53.938 -48.292  1.00  0.00     0.048 C 
HETATM   11  C   UNL     1     -40.297  53.581 -50.768  1.00  0.00     0.020 A 
HETATM   12  C   UNL     1     -41.017  53.699 -51.968  1.00  0.00    -0.005 A 
HETATM   13  C   UNL     1     -42.245  54.395 -51.998  1.00  0.00     0.093 A 
HETATM   14  C   UNL     1     -40.551  53.122 -53.157  1.00  0.00     0.015 A 
HETATM   15  N   UNL     1     -42.969  54.514 -53.137  1.00  0.00    -0.258 NA
HETATM   16  C   UNL     1     -42.486  53.941 -54.263  1.00  0.00     0.117 A 
HETATM   17  C   UNL     1     -41.296  53.243 -54.323  1.00  0.00     0.020 A 
ENDBRANCH   1   7
BRANCH   3  18
HETATM   18  C   UNL     1     -43.578  58.975 -52.369  1.00  0.00     0.164 C 
BRANCH  18  19
HETATM   19  C   UNL     1     -42.280  59.671 -52.892  1.00  0.00     0.261 C 
BRANCH  19  20
HETATM   20  N   UNL     1     -42.547  61.093 -53.382  1.00  0.00    -0.067 N 
HETATM   21  H   UNL     1     -41.616  61.559 -53.367  1.00  0.00     0.280 HD
HETATM   22  C   UNL     1     -43.009  61.224 -54.800  1.00  0.00     0.270 C 
HETATM   23  C   UNL     1     -43.410  61.880 -52.444  1.00  0.00     0.270 C 
ENDBRANCH  19  20
BRANCH  19  24
HETATM   24  C   UNL     1     -41.183  59.608 -51.872  1.00  0.00     0.085 A 
HETATM   25  O   UNL     1     -39.948  59.272 -52.350  1.00  0.00    -0.325 OA
HETATM   26  C   UNL     1     -39.096  59.274 -51.293  1.00  0.00     0.142 A 
HETATM   27  C   UNL     1     -39.759  59.617 -50.141  1.00  0.00     0.027 A 
HETATM   28  C   UNL     1     -41.109  59.837 -50.510  1.00  0.00     0.037 A 
ENDBRANCH  19  24
ENDBRANCH  18  19
ENDBRANCH   3  18
TORSDOF 5
ENDMDL
MODEL 5
REMARK VINA RESULT:      -7.4      3.672      5.695
REMARK  5 active torsions:
REMARK  status: ('A' for Active; 'I' for Inactive)
REMARK    1  A    between atoms: C_4  and  N_5 
REMARK       I    between atoms: N_5  and  C_6 
REMARK       I    between atoms: C_6  and  N_7 
REMARK    2  A    between atoms: N_7  and  C_8 
REMARK    3  A    between atoms: C_8  and  C_9 
REMARK    4  A    between atoms: C_9  and  N_10 
REMARK    5  A    between atoms: C_9  and  C_14 
ROOT
HETATM    1  N   UNL     1     -43.581  54.972 -53.764  1.00  0.00    -0.307 N 
HETATM    2  C   UNL     1     -43.729  55.917 -54.716  1.00  0.00     0.320 C 
HETATM    3  N   UNL     1     -42.840  55.934 -55.738  1.00  0.00    -0.340 N 
HETATM    4  O   UNL     1     -44.675  56.703 -54.700  1.00  0.00    -0.247 OA
HETATM    5  H   UNL     1     -44.399  54.828 -53.170  1.00  0.00     0.170 HD
HETATM    6  H   UNL     1     -42.380  55.051 -55.931  1.00  0.00     0.164 HD
ENDROOT
BRANCH   1   7
HETATM    7  C   UNL     1     -42.467  54.207 -53.326  1.00  0.00     0.066 A 
HETATM    8  C   UNL     1     -41.859  53.207 -54.095  1.00  0.00     0.038 A 
HETATM    9  C   UNL     1     -40.755  52.500 -53.606  1.00  0.00    -0.059 A 
HETATM   10  C   UNL     1     -40.088  51.449 -54.444  1.00  0.00     0.048 C 
HETATM   11  C   UNL     1     -40.231  52.844 -52.358  1.00  0.00     0.020 A 
HETATM   12  C   UNL     1     -40.806  53.875 -51.598  1.00  0.00    -0.005 A 
HETATM   13  C   UNL     1     -41.936  54.571 -52.078  1.00  0.00     0.093 A 
HETATM   14  C   UNL     1     -40.272  54.250 -50.358  1.00  0.00     0.015 A 
HETATM   15  N   UNL     1     -42.504  55.579 -51.373  1.00  0.00    -0.258 NA
HETATM   16  C   UNL     1     -41.957  55.913 -50.182  1.00  0.00     0.117 A 
HETATM   17  C   UNL     1     -40.854  55.286 -49.638  1.00  0.00     0.020 A 
ENDBRANCH   1   7
BRANCH   3  18
HETATM   18  C   UNL     1     -42.657  57.039 -56.673  1.00  0.00     0.164 C 
BRANCH  18  19
HETATM   19  C   UNL     1     -42.836  56.727 -58.194  1.00  0.00     0.261 C 
BRANCH  19  20
HETATM   20  N   UNL     1     -44.222  56.164 -58.506  1.00  0.00    -0.067 N 
HETATM   21  H   UNL     1     -44.546  55.743 -57.611  1.00  0.00     0.280 HD
HETATM   22  C   UNL     1     -45.277  57.169 -58.852  1.00  0.00     0.270 C 
HETATM   23  C   UNL     1     -44.184  55.038 -59.493  1.00  0.00     0.270 C 
ENDBRANCH  19  20
BRANCH  19  24
HETATM   24  C   UNL     1     -42.494  57.919 -59.036  1.00  0.00     0.085 A 
HETATM   25  O   UNL     1     -42.450  59.117 -58.380  1.00  0.00    -0.325 OA
HETATM   26  C   UNL     1     -42.121  60.064 -59.294  1.00  0.00     0.142 A 
HETATM   27  C   UNL     1     -41.941  59.495 -60.532  1.00  0.00     0.027 A 
HETATM   28  C   UNL     1     -42.178  58.108 -60.369  1.00  0.00     0.037 A 
ENDBRANCH  19  24
ENDBRANCH  18  19
ENDBRANCH   3  18
TORSDOF 5
ENDMDL
MODEL 6
REMARK VINA RESULT:      -7.2      2.648      3.902
REMARK  5 active torsions:
REMARK  status: ('A' for Active; 'I' for Inactive)
REMARK    1  A    between atoms: C_4  and  N_5 
REMARK       I    between atoms: N_5  and  C_6 
REMARK       I    between atoms: C_6  and  N_7 
REMARK    2  A    between atoms: N_7  and  C_8 
REMARK    3  A    between atoms: C_8  and  C_9 
REMARK    4  A    between atoms: C_9  and  N_10 
REMARK    5  A    between atoms: C_9  and  C_14 
ROOT
HETATM    1  N   UNL     1     -44.179  56.043 -51.326  1.00  0.00    -0.307 N 
HETATM    2  C   UNL     1     -44.692  57.291 -51.365  1.00  0.00     0.320 C 
HETATM    3  N   UNL     1     -44.407  58.062 -52.442  1.00  0.00    -0.340 N 
HETATM    4  O   UNL     1     -45.448  57.703 -50.486  1.00  0.00    -0.247 OA
HETATM    5  H   UNL     1     -44.618  55.419 -50.648  1.00  0.00     0.170 HD
HETATM    6  H   UNL     1     -44.169  57.557 -53.289  1.00  0.00     0.164 HD
ENDROOT
BRANCH   1   7
HETATM    7  C   UNL     1     -43.057  55.439 -51.953  1.00  0.00     0.066 A 
HETATM    8  C   UNL     1     -42.895  55.352 -53.342  1.00  0.00     0.038 A 
HETATM    9  C   UNL     1     -41.756  54.754 -53.893  1.00  0.00    -0.059 A 
HETATM   10  C   UNL     1     -41.572  54.687 -55.381  1.00  0.00     0.048 C 
HETATM   11  C   UNL     1     -40.753  54.293 -53.037  1.00  0.00     0.020 A 
HETATM   12  C   UNL     1     -40.885  54.416 -51.645  1.00  0.00    -0.005 A 
HETATM   13  C   UNL     1     -42.045  54.994 -51.086  1.00  0.00     0.093 A 
HETATM   14  C   UNL     1     -39.874  53.985 -50.776  1.00  0.00     0.015 A 
HETATM   15  N   UNL     1     -42.196  55.138 -49.747  1.00  0.00    -0.258 NA
HETATM   16  C   UNL     1     -41.195  54.713 -48.943  1.00  0.00     0.117 A 
HETATM   17  C   UNL     1     -40.029  54.136 -49.404  1.00  0.00     0.020 A 
ENDBRANCH   1   7
BRANCH   3  18
HETATM   18  C   UNL     1     -44.610  59.505 -52.519  1.00  0.00     0.164 C 
BRANCH  18  19
HETATM   19  C   UNL     1     -43.336  60.401 -52.636  1.00  0.00     0.261 C 
BRANCH  19  20
HETATM   20  N   UNL     1     -43.270  61.455 -51.531  1.00  0.00    -0.067 N 
HETATM   21  H   UNL     1     -42.296  61.397 -51.166  1.00  0.00     0.280 HD
HETATM   22  C   UNL     1     -43.421  62.878 -51.971  1.00  0.00     0.270 C 
HETATM   23  C   UNL     1     -44.159  61.137 -50.369  1.00  0.00     0.270 C 
ENDBRANCH  19  20
BRANCH  19  24
HETATM   24  C   UNL     1     -42.092  59.567 -52.714  1.00  0.00     0.085 A 
HETATM   25  O   UNL     1     -41.681  59.004 -51.539  1.00  0.00    -0.325 OA
HETATM   26  C   UNL     1     -40.559  58.289 -51.808  1.00  0.00     0.142 A 
HETATM   27  C   UNL     1     -40.244  58.373 -53.142  1.00  0.00     0.027 A 
HETATM   28  C   UNL     1     -41.234  59.195 -53.733  1.00  0.00     0.037 A 
ENDBRANCH  19  24
ENDBRANCH  18  19
ENDBRANCH   3  18
TORSDOF 5
ENDMDL
MODEL 7
REMARK VINA RESULT:      -7.1      1.720      6.160
REMARK  5 active torsions:
REMARK  status: ('A' for Active; 'I' for Inactive)
REMARK    1  A    between atoms: C_4  and  N_5 
REMARK       I    between atoms: N_5  and  C_6 
REMARK       I    between atoms: C_6  and  N_7 
REMARK    2  A    between atoms: N_7  and  C_8 
REMARK    3  A    between atoms: C_8  and  C_9 
REMARK    4  A    between atoms: C_9  and  N_10 
REMARK    5  A    between atoms: C_9  and  C_14 
ROOT
HETATM    1  N   UNL     1     -42.690  56.360 -50.606  1.00  0.00    -0.307 N 
HETATM    2  C   UNL     1     -42.563  55.016 -50.551  1.00  0.00     0.320 C 
HETATM    3  N   UNL     1     -41.324  54.489 -50.700  1.00  0.00    -0.340 N 
HETATM    4  O   UNL     1     -43.526  54.289 -50.310  1.00  0.00    -0.247 OA
HETATM    5  H   UNL     1     -43.569  56.723 -50.237  1.00  0.00     0.170 HD
HETATM    6  H   UNL     1     -40.556  55.107 -50.464  1.00  0.00     0.164 HD
ENDROOT
BRANCH   1   7
HETATM    7  C   UNL     1     -41.897  57.382 -51.191  1.00  0.00     0.066 A 
HETATM    8  C   UNL     1     -40.789  57.964 -50.562  1.00  0.00     0.038 A 
HETATM    9  C   UNL     1     -40.044  58.959 -51.204  1.00  0.00    -0.059 A 
HETATM   10  C   UNL     1     -38.840  59.561 -50.538  1.00  0.00     0.048 C 
HETATM   11  C   UNL     1     -40.387  59.328 -52.506  1.00  0.00     0.020 A 
HETATM   12  C   UNL     1     -41.468  58.720 -53.162  1.00  0.00    -0.005 A 
HETATM   13  C   UNL     1     -42.238  57.734 -52.508  1.00  0.00     0.093 A 
HETATM   14  C   UNL     1     -41.804  59.058 -54.480  1.00  0.00     0.015 A 
HETATM   15  N   UNL     1     -43.279  57.120 -53.120  1.00  0.00    -0.258 NA
HETATM   16  C   UNL     1     -43.570  57.473 -54.393  1.00  0.00     0.117 A 
HETATM   17  C   UNL     1     -42.870  58.426 -55.107  1.00  0.00     0.020 A 
ENDBRANCH   1   7
BRANCH   3  18
HETATM   18  C   UNL     1     -41.038  53.084 -50.970  1.00  0.00     0.164 C 
BRANCH  18  19
HETATM   19  C   UNL     1     -40.212  52.757 -52.256  1.00  0.00     0.261 C 
BRANCH  19  20
HETATM   20  N   UNL     1     -40.068  51.252 -52.480  1.00  0.00    -0.067 N 
HETATM   21  H   UNL     1     -41.044  50.897 -52.535  1.00  0.00     0.280 HD
HETATM   22  C   UNL     1     -39.445  50.839 -53.778  1.00  0.00     0.270 C 
HETATM   23  C   UNL     1     -39.443  50.547 -51.316  1.00  0.00     0.270 C 
ENDBRANCH  19  20
BRANCH  19  24
HETATM   24  C   UNL     1     -40.769  53.469 -53.453  1.00  0.00     0.085 A 
HETATM   25  O   UNL     1     -42.109  53.314 -53.665  1.00  0.00    -0.325 OA
HETATM   26  C   UNL     1     -42.425  54.028 -54.774  1.00  0.00     0.142 A 
HETATM   27  C   UNL     1     -41.310  54.653 -55.278  1.00  0.00     0.027 A 
HETATM   28  C   UNL     1     -40.236  54.297 -54.425  1.00  0.00     0.037 A 
ENDBRANCH  19  24
ENDBRANCH  18  19
ENDBRANCH   3  18
TORSDOF 5
ENDMDL
MODEL 8
REMARK VINA RESULT:      -7.1      2.967      5.736
REMARK  5 active torsions:
REMARK  status: ('A' for Active; 'I' for Inactive)
REMARK    1  A    between atoms: C_4  and  N_5 
REMARK       I    between atoms: N_5  and  C_6 
REMARK       I    between atoms: C_6  and  N_7 
REMARK    2  A    between atoms: N_7  and  C_8 
REMARK    3  A    between atoms: C_8  and  C_9 
REMARK    4  A    between atoms: C_9  and  N_10 
REMARK    5  A    between atoms: C_9  and  C_14 
ROOT
HETATM    1  N   UNL     1     -44.068  58.283 -52.546  1.00  0.00    -0.307 N 
HETATM    2  C   UNL     1     -44.444  58.172 -53.839  1.00  0.00     0.320 C 
HETATM    3  N   UNL     1     -43.772  57.295 -54.622  1.00  0.00    -0.340 N 
HETATM    4  O   UNL     1     -45.406  58.796 -54.284  1.00  0.00    -0.247 OA
HETATM    5  H   UNL     1     -44.747  58.744 -51.940  1.00  0.00     0.170 HD
HETATM    6  H   UNL     1     -43.315  56.533 -54.132  1.00  0.00     0.164 HD
ENDROOT
BRANCH   1   7
HETATM    7  C   UNL     1     -42.855  58.000 -51.864  1.00  0.00     0.066 A 
HETATM    8  C   UNL     1     -41.950  58.983 -51.446  1.00  0.00     0.038 A 
HETATM    9  C   UNL     1     -40.778  58.634 -50.765  1.00  0.00    -0.059 A 
HETATM   10  C   UNL     1     -39.824  59.692 -50.293  1.00  0.00     0.048 C 
HETATM   11  C   UNL     1     -40.549  57.290 -50.459  1.00  0.00     0.020 A 
HETATM   12  C   UNL     1     -41.472  56.302 -50.835  1.00  0.00    -0.005 A 
HETATM   13  C   UNL     1     -42.641  56.649 -51.545  1.00  0.00     0.093 A 
HETATM   14  C   UNL     1     -41.269  54.954 -50.508  1.00  0.00     0.015 A 
HETATM   15  N   UNL     1     -43.556  55.719 -51.910  1.00  0.00    -0.258 NA
HETATM   16  C   UNL     1     -43.325  54.429 -51.573  1.00  0.00     0.117 A 
HETATM   17  C   UNL     1     -42.210  54.002 -50.881  1.00  0.00     0.020 A 
ENDBRANCH   1   7
BRANCH   3  18
HETATM   18  C   UNL     1     -43.827  57.259 -56.080  1.00  0.00     0.164 C 
BRANCH  18  19
HETATM   19  C   UNL     1     -43.095  56.078 -56.794  1.00  0.00     0.261 C 
BRANCH  19  20
HETATM   20  N   UNL     1     -42.339  56.539 -58.040  1.00  0.00    -0.067 N 
HETATM   21  H   UNL     1     -41.382  56.146 -57.931  1.00  0.00     0.280 HD
HETATM   22  C   UNL     1     -42.825  55.987 -59.345  1.00  0.00     0.270 C 
HETATM   23  C   UNL     1     -42.164  58.026 -58.098  1.00  0.00     0.270 C 
ENDBRANCH  19  20
BRANCH  19  24
HETATM   24  C   UNL     1     -42.223  55.323 -55.837  1.00  0.00     0.085 A 
HETATM   25  O   UNL     1     -41.222  56.044 -55.250  1.00  0.00    -0.325 OA
HETATM   26  C   UNL     1     -40.553  55.203 -54.422  1.00  0.00     0.142 A 
HETATM   27  C   UNL     1     -41.114  53.949 -54.455  1.00  0.00     0.027 A 
HETATM   28  C   UNL     1     -42.197  54.022 -55.366  1.00  0.00     0.037 A 
ENDBRANCH  19  24
ENDBRANCH  18  19
ENDBRANCH   3  18
TORSDOF 5
ENDMDL
MODEL 9
REMARK VINA RESULT:      -7.1      3.183      4.956
REMARK  5 active torsions:
REMARK  status: ('A' for Active; 'I' for Inactive)
REMARK    1  A    between atoms: C_4  and  N_5 
REMARK       I    between atoms: N_5  and  C_6 
REMARK       I    between atoms: C_6  and  N_7 
REMARK    2  A    between atoms: N_7  and  C_8 
REMARK    3  A    between atoms: C_8  and  C_9 
REMARK    4  A    between atoms: C_9  and  N_10 
REMARK    5  A    between atoms: C_9  and  C_14 
ROOT
HETATM    1  N   UNL     1     -43.450  54.908 -52.983  1.00  0.00    -0.307 N 
HETATM    2  C   UNL     1     -43.557  55.917 -53.874  1.00  0.00     0.320 C 
HETATM    3  N   UNL     1     -42.419  56.389 -54.438  1.00  0.00    -0.340 N 
HETATM    4  O   UNL     1     -44.653  56.357 -54.218  1.00  0.00    -0.247 OA
HETATM    5  H   UNL     1     -44.322  54.416 -52.785  1.00  0.00     0.170 HD
HETATM    6  H   UNL     1     -41.640  55.740 -54.458  1.00  0.00     0.164 HD
ENDROOT
BRANCH   1   7
HETATM    7  C   UNL     1     -42.387  54.457 -52.156  1.00  0.00     0.066 A 
HETATM    8  C   UNL     1     -42.214  54.857 -50.825  1.00  0.00     0.038 A 
HETATM    9  C   UNL     1     -41.150  54.361 -50.062  1.00  0.00    -0.059 A 
HETATM   10  C   UNL     1     -40.983  54.770 -48.627  1.00  0.00     0.048 C 
HETATM   11  C   UNL     1     -40.292  53.418 -50.630  1.00  0.00     0.020 A 
HETATM   12  C   UNL     1     -40.484  52.976 -51.949  1.00  0.00    -0.005 A 
HETATM   13  C   UNL     1     -41.540  53.494 -52.729  1.00  0.00     0.093 A 
HETATM   14  C   UNL     1     -39.649  52.007 -52.521  1.00  0.00     0.015 A 
HETATM   15  N   UNL     1     -41.758  53.078 -54.000  1.00  0.00    -0.258 NA
HETATM   16  C   UNL     1     -40.931  52.139 -54.515  1.00  0.00     0.117 A 
HETATM   17  C   UNL     1     -39.876  51.580 -53.823  1.00  0.00     0.020 A 
ENDBRANCH   1   7
BRANCH   3  18
HETATM   18  C   UNL     1     -42.305  57.646 -55.170  1.00  0.00     0.164 C 
BRANCH  18  19
HETATM   19  C   UNL     1     -42.420  57.580 -56.727  1.00  0.00     0.261 C 
BRANCH  19  20
HETATM   20  N   UNL     1     -43.734  56.943 -57.180  1.00  0.00    -0.067 N 
HETATM   21  H   UNL     1     -44.050  56.378 -56.366  1.00  0.00     0.280 HD
HETATM   22  C   UNL     1     -44.865  57.888 -57.443  1.00  0.00     0.270 C 
HETATM   23  C   UNL     1     -43.552  55.970 -58.304  1.00  0.00     0.270 C 
ENDBRANCH  19  20
BRANCH  19  24
HETATM   24  C   UNL     1     -42.187  58.925 -57.346  1.00  0.00     0.085 A 
HETATM   25  O   UNL     1     -41.983  58.930 -58.697  1.00  0.00    -0.325 OA
HETATM   26  C   UNL     1     -41.800  60.222 -59.070  1.00  0.00     0.142 A 
HETATM   27  C   UNL     1     -41.893  61.055 -57.982  1.00  0.00     0.027 A 
HETATM   28  C   UNL     1     -42.146  60.222 -56.865  1.00  0.00     0.037 A 
ENDBRANCH  19  24
ENDBRANCH  18  19
ENDBRANCH   3  18
TORSDOF 5
ENDMDL
MODEL 10
REMARK VINA RESULT:      -7.0      3.111      4.944
REMARK  5 active torsions:
REMARK  status: ('A' for Active; 'I' for Inactive)
REMARK    1  A    between atoms: C_4  and  N_5 
REMARK       I    between atoms: N_5  and  C_6 
REMARK       I    between atoms: C_6  and  N_7 
REMARK    2  A    between atoms: N_7  and  C_8 
REMARK    3  A    between atoms: C_8  and  C_9 
REMARK    4  A    between atoms: C_9  and  N_10 
REMARK    5  A    between atoms: C_9  and  C_14 
ROOT
HETATM    1  N   UNL     1     -43.607  54.833 -53.589  1.00  0.00    -0.307 N 
HETATM    2  C   UNL     1     -43.791  55.924 -54.363  1.00  0.00     0.320 C 
HETATM    3  N   UNL     1     -42.851  56.205 -55.298  1.00  0.00    -0.340 N 
HETATM    4  O   UNL     1     -44.808  56.611 -54.274  1.00  0.00    -0.247 OA
HETATM    5  H   UNL     1     -44.440  54.513 -53.093  1.00  0.00     0.170 HD
HETATM    6  H   UNL     1     -42.298  55.415 -55.612  1.00  0.00     0.164 HD
ENDROOT
BRANCH   1   7
HETATM    7  C   UNL     1     -42.452  54.095 -53.216  1.00  0.00     0.066 A 
HETATM    8  C   UNL     1     -41.827  53.157 -54.046  1.00  0.00     0.038 A 
HETATM    9  C   UNL     1     -40.682  52.475 -53.619  1.00  0.00    -0.059 A 
HETATM   10  C   UNL     1     -39.997  51.490 -54.522  1.00  0.00     0.048 C 
HETATM   11  C   UNL     1     -40.137  52.783 -52.370  1.00  0.00     0.020 A 
HETATM   12  C   UNL     1     -40.731  53.755 -51.549  1.00  0.00    -0.005 A 
HETATM   13  C   UNL     1     -41.901  54.425 -51.967  1.00  0.00     0.093 A 
HETATM   14  C   UNL     1     -40.178  54.095 -50.308  1.00  0.00     0.015 A 
HETATM   15  N   UNL     1     -42.489  55.376 -51.202  1.00  0.00    -0.258 NA
HETATM   16  C   UNL     1     -41.923  55.678 -50.011  1.00  0.00     0.117 A 
HETATM   17  C   UNL     1     -40.781  55.073 -49.526  1.00  0.00     0.020 A 
ENDBRANCH   1   7
BRANCH   3  18
HETATM   18  C   UNL     1     -42.722  57.477 -56.002  1.00  0.00     0.164 C 
BRANCH  18  19
HETATM   19  C   UNL     1     -43.896  57.894 -56.944  1.00  0.00     0.261 C 
BRANCH  19  20
HETATM   20  N   UNL     1     -43.920  59.401 -57.200  1.00  0.00    -0.067 N 
HETATM   21  H   UNL     1     -43.516  59.823 -56.339  1.00  0.00     0.280 HD
HETATM   22  C   UNL     1     -43.041  59.894 -58.307  1.00  0.00     0.270 C 
HETATM   23  C   UNL     1     -45.309  59.951 -57.308  1.00  0.00     0.270 C 
ENDBRANCH  19  20
BRANCH  19  24
HETATM   24  C   UNL     1     -43.884  57.094 -58.212  1.00  0.00     0.085 A 
HETATM   25  O   UNL     1     -42.729  56.412 -58.473  1.00  0.00    -0.325 OA
HETATM   26  C   UNL     1     -42.910  55.749 -59.643  1.00  0.00     0.142 A 
HETATM   27  C   UNL     1     -44.169  55.983 -60.138  1.00  0.00     0.027 A 
HETATM   28  C   UNL     1     -44.805  56.849 -59.215  1.00  0.00     0.037 A 
ENDBRANCH  19  24
ENDBRANCH  18  19
ENDBRANCH   3  18
TORSDOF 5
ENDMDL
