MODEL 1
REMARK VINA RESULT:      -9.4      0.000      0.000
REMARK  6 active torsions:
REMARK  status: ('A' for Active; 'I' for Inactive)
REMARK    1  A    between atoms: C_2  and  O_3 
REMARK    2  A    between atoms: C_2  and  C_4 
REMARK    3  A    between atoms: C_7  and  N_8 
REMARK       I    between atoms: N_8  and  C_9 
REMARK    4  A    between atoms: C_9  and  C_10 
REMARK    5  A    between atoms: C_13  and  C_14 
REMARK    6  A    between atoms: C_19  and  C_20 
ROOT
HETATM    1  C   UNL     1     -42.206  56.007 -52.421  1.00  0.00     0.096 A 
HETATM    2  C   UNL     1     -41.347  54.964 -52.126  1.00  0.00     0.138 A 
HETATM    3  N   UNL     1     -40.968  55.153 -50.815  1.00  0.00    -0.240 N 
HETATM    4  C   UNL     1     -40.069  54.274 -50.093  1.00  0.00     0.221 C 
HETATM    5  C   UNL     1     -40.064  52.882 -50.747  1.00  0.00     0.068 C 
HETATM    6  C   UNL     1     -39.866  52.999 -52.265  1.00  0.00     0.143 C 
HETATM    7  N   UNL     1     -40.896  53.890 -52.823  1.00  0.00    -0.363 N 
HETATM    8  N   UNL     1     -41.470  56.262 -50.260  1.00  0.00    -0.181 NA
HETATM    9  C   UNL     1     -42.257  56.756 -51.218  1.00  0.00     0.160 A 
HETATM   10  H   UNL     1     -41.450  53.449 -53.560  1.00  0.00     0.162 HD
ENDROOT
BRANCH   1  11
HETATM   11  C   UNL     1     -42.901  56.358 -53.649  1.00  0.00     0.261 C 
HETATM   12  N   UNL     1     -42.143  56.196 -54.794  1.00  0.00    -0.323 N 
HETATM   13  H   UNL     1     -41.196  55.865 -54.647  1.00  0.00     0.169 HD
HETATM   14  O   UNL     1     -44.039  56.808 -53.599  1.00  0.00    -0.267 OA
BRANCH  12  15
HETATM   15  C   UNL     1     -42.484  56.575 -56.109  1.00  0.00     0.035 A 
HETATM   16  C   UNL     1     -42.412  57.885 -56.588  1.00  0.00     0.030 A 
HETATM   17  C   UNL     1     -42.704  58.176 -57.926  1.00  0.00     0.012 A 
HETATM   18  C   UNL     1     -43.081  57.163 -58.813  1.00  0.00    -0.030 A 
HETATM   19  C   UNL     1     -43.186  55.854 -58.324  1.00  0.00     0.012 A 
HETATM   20  C   UNL     1     -42.890  55.564 -56.987  1.00  0.00     0.030 A 
BRANCH  18  21
HETATM   21  C   UNL     1     -43.346  57.485 -60.268  1.00  0.00     0.147 C 
HETATM   22  C   UNL     1     -44.178  58.744 -60.459  1.00  0.00     0.044 C 
BRANCH  21  23
HETATM   23  O   UNL     1     -44.020  56.390 -60.888  1.00  0.00    -0.391 OA
HETATM   24  H   UNL     1     -43.943  56.518 -61.850  1.00  0.00     0.210 HD
ENDBRANCH  21  23
ENDBRANCH  18  21
ENDBRANCH  12  15
ENDBRANCH   1  11
BRANCH   4  25
HETATM   25  C   UNL     1     -40.428  54.142 -48.627  1.00  0.00     0.409 C 
HETATM   26  F   UNL     1     -41.054  52.978 -48.347  1.00  0.00    -0.169 F 
HETATM   27  F   UNL     1     -39.284  54.148 -47.886  1.00  0.00    -0.169 F 
HETATM   28  F   UNL     1     -41.175  55.160 -48.158  1.00  0.00    -0.169 F 
ENDBRANCH   4  25
BRANCH   6  29
HETATM   29  C   UNL     1     -39.830  51.645 -52.918  1.00  0.00     0.075 A 
HETATM   30  O   UNL     1     -39.542  50.587 -52.100  1.00  0.00    -0.325 OA
HETATM   31  C   UNL     1     -39.581  49.467 -52.866  1.00  0.00     0.142 A 
HETATM   32  C   UNL     1     -39.886  49.783 -54.168  1.00  0.00     0.027 A 
HETATM   33  C   UNL     1     -40.051  51.188 -54.203  1.00  0.00     0.037 A 
ENDBRANCH   6  29
TORSDOF 6
ENDMDL
MODEL 2
REMARK VINA RESULT:      -9.0      4.144      8.904
REMARK  6 active torsions:
REMARK  status: ('A' for Active; 'I' for Inactive)
REMARK    1  A    between atoms: C_2  and  O_3 
REMARK    2  A    between atoms: C_2  and  C_4 
REMARK    3  A    between atoms: C_7  and  N_8 
REMARK       I    between atoms: N_8  and  C_9 
REMARK    4  A    between atoms: C_9  and  C_10 
REMARK    5  A    between atoms: C_13  and  C_14 
REMARK    6  A    between atoms: C_19  and  C_20 
ROOT
HETATM    1  C   UNL     1     -42.384  57.192 -55.003  1.00  0.00     0.096 A 
HETATM    2  C   UNL     1     -43.030  57.558 -56.170  1.00  0.00     0.138 A 
HETATM    3  N   UNL     1     -42.720  58.884 -56.369  1.00  0.00    -0.240 N 
HETATM    4  C   UNL     1     -43.189  59.671 -57.493  1.00  0.00     0.221 C 
HETATM    5  C   UNL     1     -43.562  58.741 -58.659  1.00  0.00     0.068 C 
HETATM    6  C   UNL     1     -44.465  57.599 -58.173  1.00  0.00     0.143 C 
HETATM    7  N   UNL     1     -43.802  56.891 -57.067  1.00  0.00    -0.363 N 
HETATM    8  N   UNL     1     -41.971  59.418 -55.396  1.00  0.00    -0.181 NA
HETATM    9  C   UNL     1     -41.728  58.381 -54.592  1.00  0.00     0.160 A 
HETATM   10  H   UNL     1     -43.691  55.890 -57.241  1.00  0.00     0.162 HD
ENDROOT
BRANCH   1  11
HETATM   11  C   UNL     1     -42.358  55.934 -54.275  1.00  0.00     0.261 C 
HETATM   12  N   UNL     1     -41.086  55.475 -53.985  1.00  0.00    -0.323 N 
HETATM   13  H   UNL     1     -40.326  56.056 -54.319  1.00  0.00     0.169 HD
HETATM   14  O   UNL     1     -43.406  55.353 -54.023  1.00  0.00    -0.267 OA
BRANCH  12  15
HETATM   15  C   UNL     1     -40.732  54.234 -53.416  1.00  0.00     0.035 A 
HETATM   16  C   UNL     1     -40.354  53.114 -54.160  1.00  0.00     0.030 A 
HETATM   17  C   UNL     1     -39.951  51.933 -53.523  1.00  0.00     0.012 A 
HETATM   18  C   UNL     1     -39.923  51.846 -52.128  1.00  0.00    -0.030 A 
HETATM   19  C   UNL     1     -40.335  52.959 -51.382  1.00  0.00     0.012 A 
HETATM   20  C   UNL     1     -40.735  54.139 -52.020  1.00  0.00     0.030 A 
BRANCH  18  21
HETATM   21  C   UNL     1     -39.440  50.580 -51.454  1.00  0.00     0.147 C 
HETATM   22  C   UNL     1     -39.610  49.340 -52.318  1.00  0.00     0.044 C 
BRANCH  21  23
HETATM   23  O   UNL     1     -40.147  50.387 -50.229  1.00  0.00    -0.391 OA
HETATM   24  H   UNL     1     -41.079  50.234 -50.461  1.00  0.00     0.210 HD
ENDBRANCH  21  23
ENDBRANCH  18  21
ENDBRANCH  12  15
ENDBRANCH   1  11
BRANCH   4  25
HETATM   25  C   UNL     1     -42.170  60.688 -57.963  1.00  0.00     0.409 C 
HETATM   26  F   UNL     1     -40.930  60.167 -58.082  1.00  0.00    -0.169 F 
HETATM   27  F   UNL     1     -42.519  61.127 -59.206  1.00  0.00    -0.169 F 
HETATM   28  F   UNL     1     -42.106  61.790 -57.190  1.00  0.00    -0.169 F 
ENDBRANCH   4  25
BRANCH   6  29
HETATM   29  C   UNL     1     -44.863  56.696 -59.307  1.00  0.00     0.075 A 
HETATM   30  O   UNL     1     -46.185  56.712 -59.658  1.00  0.00    -0.325 OA
HETATM   31  C   UNL     1     -46.333  55.858 -60.702  1.00  0.00     0.142 A 
HETATM   32  C   UNL     1     -45.129  55.285 -61.032  1.00  0.00     0.027 A 
HETATM   33  C   UNL     1     -44.177  55.827 -60.134  1.00  0.00     0.037 A 
ENDBRANCH   6  29
TORSDOF 6
ENDMDL
MODEL 3
REMARK VINA RESULT:      -8.3      4.748      9.324
REMARK  6 active torsions:
REMARK  status: ('A' for Active; 'I' for Inactive)
REMARK    1  A    between atoms: C_2  and  O_3 
REMARK    2  A    between atoms: C_2  and  C_4 
REMARK    3  A    between atoms: C_7  and  N_8 
REMARK       I    between atoms: N_8  and  C_9 
REMARK    4  A    between atoms: C_9  and  C_10 
REMARK    5  A    between atoms: C_13  and  C_14 
REMARK    6  A    between atoms: C_19  and  C_20 
ROOT
HETATM    1  C   UNL     1     -42.766  55.788 -56.831  1.00  0.00     0.096 A 
HETATM    2  C   UNL     1     -42.683  57.169 -56.806  1.00  0.00     0.138 A 
HETATM    3  N   UNL     1     -42.891  57.578 -58.104  1.00  0.00    -0.240 N 
HETATM    4  C   UNL     1     -42.896  58.964 -58.530  1.00  0.00     0.221 C 
HETATM    5  C   UNL     1     -43.206  59.876 -57.332  1.00  0.00     0.068 C 
HETATM    6  C   UNL     1     -42.322  59.511 -56.131  1.00  0.00     0.143 C 
HETATM    7  N   UNL     1     -42.487  58.083 -55.821  1.00  0.00    -0.363 N 
HETATM    8  N   UNL     1     -43.047  56.571 -58.972  1.00  0.00    -0.181 NA
HETATM    9  C   UNL     1     -43.018  55.487 -58.193  1.00  0.00     0.160 A 
HETATM   10  H   UNL     1     -42.782  57.914 -54.857  1.00  0.00     0.162 HD
ENDROOT
BRANCH   1  11
HETATM   11  C   UNL     1     -42.605  54.799 -55.777  1.00  0.00     0.261 C 
HETATM   12  N   UNL     1     -41.388  54.861 -55.123  1.00  0.00    -0.323 N 
HETATM   13  H   UNL     1     -40.750  55.574 -55.458  1.00  0.00     0.169 HD
HETATM   14  O   UNL     1     -43.487  53.974 -55.574  1.00  0.00    -0.267 OA
BRANCH  12  15
HETATM   15  C   UNL     1     -40.886  53.962 -54.160  1.00  0.00     0.035 A 
HETATM   16  C   UNL     1     -40.970  54.168 -52.781  1.00  0.00     0.030 A 
HETATM   17  C   UNL     1     -40.509  53.199 -51.882  1.00  0.00     0.012 A 
HETATM   18  C   UNL     1     -39.947  52.004 -52.343  1.00  0.00    -0.030 A 
HETATM   19  C   UNL     1     -39.831  51.813 -53.727  1.00  0.00     0.012 A 
HETATM   20  C   UNL     1     -40.296  52.781 -54.624  1.00  0.00     0.030 A 
BRANCH  18  21
HETATM   21  C   UNL     1     -39.496  50.945 -51.360  1.00  0.00     0.147 C 
HETATM   22  C   UNL     1     -39.582  49.535 -51.921  1.00  0.00     0.044 C 
BRANCH  21  23
HETATM   23  O   UNL     1     -40.290  51.019 -50.176  1.00  0.00    -0.391 OA
HETATM   24  H   UNL     1     -40.818  50.203 -50.137  1.00  0.00     0.210 HD
ENDBRANCH  21  23
ENDBRANCH  18  21
ENDBRANCH  12  15
ENDBRANCH   1  11
BRANCH   4  25
HETATM   25  C   UNL     1     -43.890  59.233 -59.641  1.00  0.00     0.409 C 
HETATM   26  F   UNL     1     -45.098  58.679 -59.404  1.00  0.00    -0.169 F 
HETATM   27  F   UNL     1     -44.099  60.577 -59.736  1.00  0.00    -0.169 F 
HETATM   28  F   UNL     1     -43.463  58.841 -60.858  1.00  0.00    -0.169 F 
ENDBRANCH   4  25
BRANCH   6  29
HETATM   29  C   UNL     1     -42.592  60.412 -54.959  1.00  0.00     0.075 A 
HETATM   30  O   UNL     1     -42.223  59.935 -53.731  1.00  0.00    -0.325 OA
HETATM   31  C   UNL     1     -42.526  60.894 -52.820  1.00  0.00     0.142 A 
HETATM   32  C   UNL     1     -43.089  61.985 -53.437  1.00  0.00     0.027 A 
HETATM   33  C   UNL     1     -43.130  61.678 -54.818  1.00  0.00     0.037 A 
ENDBRANCH   6  29
TORSDOF 6
ENDMDL
MODEL 4
REMARK VINA RESULT:      -8.1      3.614      7.846
REMARK  6 active torsions:
REMARK  status: ('A' for Active; 'I' for Inactive)
REMARK    1  A    between atoms: C_2  and  O_3 
REMARK    2  A    between atoms: C_2  and  C_4 
REMARK    3  A    between atoms: C_7  and  N_8 
REMARK       I    between atoms: N_8  and  C_9 
REMARK    4  A    between atoms: C_9  and  C_10 
REMARK    5  A    between atoms: C_13  and  C_14 
REMARK    6  A    between atoms: C_19  and  C_20 
ROOT
HETATM    1  C   UNL     1     -43.802  56.630 -52.258  1.00  0.00     0.096 A 
HETATM    2  C   UNL     1     -44.174  57.328 -53.392  1.00  0.00     0.138 A 
HETATM    3  N   UNL     1     -44.714  58.512 -52.942  1.00  0.00    -0.240 N 
HETATM    4  C   UNL     1     -45.229  59.554 -53.808  1.00  0.00     0.221 C 
HETATM    5  C   UNL     1     -44.598  59.429 -55.205  1.00  0.00     0.068 C 
HETATM    6  C   UNL     1     -44.688  57.983 -55.712  1.00  0.00     0.143 C 
HETATM    7  N   UNL     1     -44.075  57.081 -54.724  1.00  0.00    -0.363 N 
HETATM    8  N   UNL     1     -44.769  58.610 -51.608  1.00  0.00    -0.181 NA
HETATM    9  C   UNL     1     -44.174  57.490 -51.193  1.00  0.00     0.160 A 
HETATM   10  H   UNL     1     -43.323  56.510 -55.116  1.00  0.00     0.162 HD
ENDROOT
BRANCH   1  11
HETATM   11  C   UNL     1     -43.207  55.313 -52.094  1.00  0.00     0.261 C 
HETATM   12  N   UNL     1     -41.977  55.168 -52.711  1.00  0.00    -0.323 N 
HETATM   13  H   UNL     1     -41.641  55.983 -53.210  1.00  0.00     0.169 HD
HETATM   14  O   UNL     1     -43.820  54.436 -51.499  1.00  0.00    -0.267 OA
BRANCH  12  15
HETATM   15  C   UNL     1     -41.221  53.985 -52.846  1.00  0.00     0.035 A 
HETATM   16  C   UNL     1     -40.411  53.457 -51.838  1.00  0.00     0.030 A 
HETATM   17  C   UNL     1     -39.741  52.241 -52.021  1.00  0.00     0.012 A 
HETATM   18  C   UNL     1     -39.861  51.530 -53.219  1.00  0.00    -0.030 A 
HETATM   19  C   UNL     1     -40.648  52.077 -54.242  1.00  0.00     0.012 A 
HETATM   20  C   UNL     1     -41.320  53.291 -54.057  1.00  0.00     0.030 A 
BRANCH  18  21
HETATM   21  C   UNL     1     -39.170  50.194 -53.384  1.00  0.00     0.147 C 
HETATM   22  C   UNL     1     -39.571  49.468 -54.658  1.00  0.00     0.044 C 
BRANCH  21  23
HETATM   23  O   UNL     1     -39.465  49.358 -52.265  1.00  0.00    -0.391 OA
HETATM   24  H   UNL     1     -38.620  48.985 -51.959  1.00  0.00     0.210 HD
ENDBRANCH  21  23
ENDBRANCH  18  21
ENDBRANCH  12  15
ENDBRANCH   1  11
BRANCH   4  25
HETATM   25  C   UNL     1     -44.982  60.946 -53.264  1.00  0.00     0.409 C 
HETATM   26  F   UNL     1     -43.725  61.106 -52.797  1.00  0.00    -0.169 F 
HETATM   27  F   UNL     1     -45.133  61.851 -54.273  1.00  0.00    -0.169 F 
HETATM   28  F   UNL     1     -45.852  61.316 -52.304  1.00  0.00    -0.169 F 
ENDBRANCH   4  25
BRANCH   6  29
HETATM   29  C   UNL     1     -44.101  57.848 -57.089  1.00  0.00     0.075 A 
HETATM   30  O   UNL     1     -42.759  58.090 -57.201  1.00  0.00    -0.325 OA
HETATM   31  C   UNL     1     -42.423  57.896 -58.501  1.00  0.00     0.142 A 
HETATM   32  C   UNL     1     -43.527  57.535 -59.236  1.00  0.00     0.027 A 
HETATM   33  C   UNL     1     -44.611  57.500 -58.325  1.00  0.00     0.037 A 
ENDBRANCH   6  29
TORSDOF 6
ENDMDL
MODEL 5
REMARK VINA RESULT:      -8.0      5.018      9.611
REMARK  6 active torsions:
REMARK  status: ('A' for Active; 'I' for Inactive)
REMARK    1  A    between atoms: C_2  and  O_3 
REMARK    2  A    between atoms: C_2  and  C_4 
REMARK    3  A    between atoms: C_7  and  N_8 
REMARK       I    between atoms: N_8  and  C_9 
REMARK    4  A    between atoms: C_9  and  C_10 
REMARK    5  A    between atoms: C_13  and  C_14 
REMARK    6  A    between atoms: C_19  and  C_20 
ROOT
HETATM    1  C   UNL     1     -42.957  56.508 -56.539  1.00  0.00     0.096 A 
HETATM    2  C   UNL     1     -43.763  57.630 -56.596  1.00  0.00     0.138 A 
HETATM    3  N   UNL     1     -44.346  57.607 -57.843  1.00  0.00    -0.240 N 
HETATM    4  C   UNL     1     -45.280  58.607 -58.323  1.00  0.00     0.221 C 
HETATM    5  C   UNL     1     -45.941  59.318 -57.130  1.00  0.00     0.068 C 
HETATM    6  C   UNL     1     -44.882  59.773 -56.117  1.00  0.00     0.143 C 
HETATM    7  N   UNL     1     -44.065  58.617 -55.714  1.00  0.00    -0.363 N 
HETATM    8  N   UNL     1     -43.940  56.591 -58.613  1.00  0.00    -0.181 NA
HETATM    9  C   UNL     1     -43.133  55.898 -57.807  1.00  0.00     0.160 A 
HETATM   10  H   UNL     1     -44.061  58.463 -54.703  1.00  0.00     0.162 HD
ENDROOT
BRANCH   1  11
HETATM   11  C   UNL     1     -42.075  56.013 -55.494  1.00  0.00     0.261 C 
HETATM   12  N   UNL     1     -42.067  54.636 -55.366  1.00  0.00    -0.323 N 
HETATM   13  H   UNL     1     -42.679  54.135 -56.000  1.00  0.00     0.169 HD
HETATM   14  O   UNL     1     -41.463  56.803 -54.786  1.00  0.00    -0.267 OA
BRANCH  12  15
HETATM   15  C   UNL     1     -41.427  53.872 -54.368  1.00  0.00     0.035 A 
HETATM   16  C   UNL     1     -41.667  54.016 -53.000  1.00  0.00     0.030 A 
HETATM   17  C   UNL     1     -41.043  53.175 -52.070  1.00  0.00     0.012 A 
HETATM   18  C   UNL     1     -40.160  52.175 -52.489  1.00  0.00    -0.030 A 
HETATM   19  C   UNL     1     -39.894  52.053 -53.859  1.00  0.00     0.012 A 
HETATM   20  C   UNL     1     -40.521  52.892 -54.788  1.00  0.00     0.030 A 
BRANCH  18  21
HETATM   21  C   UNL     1     -39.530  51.243 -51.476  1.00  0.00     0.147 C 
HETATM   22  C   UNL     1     -39.539  49.788 -51.918  1.00  0.00     0.044 C 
BRANCH  21  23
HETATM   23  O   UNL     1     -40.218  51.351 -50.230  1.00  0.00    -0.391 OA
HETATM   24  H   UNL     1     -39.701  51.958 -49.672  1.00  0.00     0.210 HD
ENDBRANCH  21  23
ENDBRANCH  18  21
ENDBRANCH  12  15
ENDBRANCH   1  11
BRANCH   4  25
HETATM   25  C   UNL     1     -46.352  58.025 -59.222  1.00  0.00     0.409 C 
HETATM   26  F   UNL     1     -46.935  56.927 -58.694  1.00  0.00    -0.169 F 
HETATM   27  F   UNL     1     -47.347  58.944 -59.382  1.00  0.00    -0.169 F 
HETATM   28  F   UNL     1     -45.919  57.733 -60.464  1.00  0.00    -0.169 F 
ENDBRANCH   4  25
BRANCH   6  29
HETATM   29  C   UNL     1     -45.508  60.495 -54.957  1.00  0.00     0.075 A 
HETATM   30  O   UNL     1     -45.457  59.857 -53.748  1.00  0.00    -0.325 OA
HETATM   31  C   UNL     1     -46.048  60.673 -52.839  1.00  0.00     0.142 A 
HETATM   32  C   UNL     1     -46.485  61.829 -53.440  1.00  0.00     0.027 A 
HETATM   33  C   UNL     1     -46.135  61.718 -54.807  1.00  0.00     0.037 A 
ENDBRANCH   6  29
TORSDOF 6
ENDMDL
MODEL 6
REMARK VINA RESULT:      -8.0      3.212      5.632
REMARK  6 active torsions:
REMARK  status: ('A' for Active; 'I' for Inactive)
REMARK    1  A    between atoms: C_2  and  O_3 
REMARK    2  A    between atoms: C_2  and  C_4 
REMARK    3  A    between atoms: C_7  and  N_8 
REMARK       I    between atoms: N_8  and  C_9 
REMARK    4  A    between atoms: C_9  and  C_10 
REMARK    5  A    between atoms: C_13  and  C_14 
REMARK    6  A    between atoms: C_19  and  C_20 
ROOT
HETATM    1  C   UNL     1     -42.782  56.464 -56.160  1.00  0.00     0.096 A 
HETATM    2  C   UNL     1     -42.543  56.420 -54.798  1.00  0.00     0.138 A 
HETATM    3  N   UNL     1     -42.380  55.087 -54.492  1.00  0.00    -0.240 N 
HETATM    4  C   UNL     1     -42.101  54.586 -53.160  1.00  0.00     0.221 C 
HETATM    5  C   UNL     1     -41.468  55.698 -52.307  1.00  0.00     0.068 C 
HETATM    6  C   UNL     1     -42.284  56.994 -52.416  1.00  0.00     0.143 C 
HETATM    7  N   UNL     1     -42.421  57.366 -53.832  1.00  0.00    -0.363 N 
HETATM    8  N   UNL     1     -42.550  54.266 -55.535  1.00  0.00    -0.181 NA
HETATM    9  C   UNL     1     -42.747  55.103 -56.556  1.00  0.00     0.160 A 
HETATM   10  H   UNL     1     -42.075  58.307 -54.034  1.00  0.00     0.162 HD
ENDROOT
BRANCH   1  11
HETATM   11  C   UNL     1     -43.056  57.582 -57.049  1.00  0.00     0.261 C 
HETATM   12  N   UNL     1     -42.021  57.882 -57.916  1.00  0.00    -0.323 N 
HETATM   13  H   UNL     1     -41.195  57.302 -57.825  1.00  0.00     0.169 HD
HETATM   14  O   UNL     1     -44.109  58.199 -56.948  1.00  0.00    -0.267 OA
BRANCH  12  15
HETATM   15  C   UNL     1     -41.930  58.981 -58.794  1.00  0.00     0.035 A 
HETATM   16  C   UNL     1     -41.653  60.287 -58.385  1.00  0.00     0.030 A 
HETATM   17  C   UNL     1     -41.512  61.318 -59.323  1.00  0.00     0.012 A 
HETATM   18  C   UNL     1     -41.652  61.065 -60.691  1.00  0.00    -0.030 A 
HETATM   19  C   UNL     1     -41.964  59.761 -61.099  1.00  0.00     0.012 A 
HETATM   20  C   UNL     1     -42.101  58.731 -60.161  1.00  0.00     0.030 A 
BRANCH  18  21
HETATM   21  C   UNL     1     -41.450  62.179 -61.696  1.00  0.00     0.147 C 
HETATM   22  C   UNL     1     -40.082  62.834 -61.593  1.00  0.00     0.044 C 
BRANCH  21  23
HETATM   23  O   UNL     1     -42.454  63.178 -61.515  1.00  0.00    -0.391 OA
HETATM   24  H   UNL     1     -42.096  63.827 -60.884  1.00  0.00     0.210 HD
ENDBRANCH  21  23
ENDBRANCH  18  21
ENDBRANCH  12  15
ENDBRANCH   1  11
BRANCH   4  25
HETATM   25  C   UNL     1     -41.192  53.375 -53.167  1.00  0.00     0.409 C 
HETATM   26  F   UNL     1     -41.669  52.370 -53.933  1.00  0.00    -0.169 F 
HETATM   27  F   UNL     1     -39.988  53.725 -53.703  1.00  0.00    -0.169 F 
HETATM   28  F   UNL     1     -40.921  52.892 -51.938  1.00  0.00    -0.169 F 
ENDBRANCH   4  25
BRANCH   6  29
HETATM   29  C   UNL     1     -41.695  58.084 -51.565  1.00  0.00     0.075 A 
HETATM   30  O   UNL     1     -42.461  59.207 -51.404  1.00  0.00    -0.325 OA
HETATM   31  C   UNL     1     -41.772  60.050 -50.596  1.00  0.00     0.142 A 
HETATM   32  C   UNL     1     -40.569  59.495 -50.232  1.00  0.00     0.027 A 
HETATM   33  C   UNL     1     -40.518  58.224 -50.854  1.00  0.00     0.037 A 
ENDBRANCH   6  29
TORSDOF 6
ENDMDL
MODEL 7
REMARK VINA RESULT:      -7.9      5.129      7.714
REMARK  6 active torsions:
REMARK  status: ('A' for Active; 'I' for Inactive)
REMARK    1  A    between atoms: C_2  and  O_3 
REMARK    2  A    between atoms: C_2  and  C_4 
REMARK    3  A    between atoms: C_7  and  N_8 
REMARK       I    between atoms: N_8  and  C_9 
REMARK    4  A    between atoms: C_9  and  C_10 
REMARK    5  A    between atoms: C_13  and  C_14 
REMARK    6  A    between atoms: C_19  and  C_20 
ROOT
HETATM    1  C   UNL     1     -43.917  57.933 -52.890  1.00  0.00     0.096 A 
HETATM    2  C   UNL     1     -43.406  56.699 -52.530  1.00  0.00     0.138 A 
HETATM    3  N   UNL     1     -43.596  55.883 -53.622  1.00  0.00    -0.240 N 
HETATM    4  C   UNL     1     -43.194  54.491 -53.678  1.00  0.00     0.221 C 
HETATM    5  C   UNL     1     -42.077  54.230 -52.654  1.00  0.00     0.068 C 
HETATM    6  C   UNL     1     -42.458  54.798 -51.280  1.00  0.00     0.143 C 
HETATM    7  N   UNL     1     -42.787  56.225 -51.418  1.00  0.00    -0.363 N 
HETATM    8  N   UNL     1     -44.238  56.475 -54.636  1.00  0.00    -0.181 NA
HETATM    9  C   UNL     1     -44.391  57.731 -54.212  1.00  0.00     0.160 A 
HETATM   10  H   UNL     1     -42.223  56.826 -50.812  1.00  0.00     0.162 HD
ENDROOT
BRANCH   1  11
HETATM   11  C   UNL     1     -44.026  59.179 -52.149  1.00  0.00     0.261 C 
HETATM   12  N   UNL     1     -45.183  59.292 -51.399  1.00  0.00    -0.323 N 
HETATM   13  H   UNL     1     -45.820  58.506 -51.460  1.00  0.00     0.169 HD
HETATM   14  O   UNL     1     -43.161  60.038 -52.269  1.00  0.00    -0.267 OA
BRANCH  12  15
HETATM   15  C   UNL     1     -45.637  60.422 -50.689  1.00  0.00     0.035 A 
HETATM   16  C   UNL     1     -46.380  61.457 -51.261  1.00  0.00     0.030 A 
HETATM   17  C   UNL     1     -46.854  62.517 -50.477  1.00  0.00     0.012 A 
HETATM   18  C   UNL     1     -46.589  62.568 -49.106  1.00  0.00    -0.030 A 
HETATM   19  C   UNL     1     -45.814  61.546 -48.539  1.00  0.00     0.012 A 
HETATM   20  C   UNL     1     -45.344  60.486 -49.322  1.00  0.00     0.030 A 
BRANCH  18  21
HETATM   21  C   UNL     1     -47.148  63.694 -48.263  1.00  0.00     0.147 C 
HETATM   22  C   UNL     1     -46.398  63.890 -46.955  1.00  0.00     0.044 C 
BRANCH  21  23
HETATM   23  O   UNL     1     -48.522  63.440 -47.972  1.00  0.00    -0.391 OA
HETATM   24  H   UNL     1     -48.742  62.580 -48.370  1.00  0.00     0.210 HD
ENDBRANCH  21  23
ENDBRANCH  18  21
ENDBRANCH  12  15
ENDBRANCH   1  11
BRANCH   4  25
HETATM   25  C   UNL     1     -42.726  54.070 -55.056  1.00  0.00     0.409 C 
HETATM   26  F   UNL     1     -42.038  55.043 -55.692  1.00  0.00    -0.169 F 
HETATM   27  F   UNL     1     -41.870  53.015 -54.933  1.00  0.00    -0.169 F 
HETATM   28  F   UNL     1     -43.720  53.644 -55.860  1.00  0.00    -0.169 F 
ENDBRANCH   4  25
BRANCH   6  29
HETATM   29  C   UNL     1     -41.389  54.527 -50.260  1.00  0.00     0.075 A 
HETATM   30  O   UNL     1     -41.783  54.547 -48.950  1.00  0.00    -0.325 OA
HETATM   31  C   UNL     1     -40.691  54.259 -48.197  1.00  0.00     0.142 A 
HETATM   32  C   UNL     1     -39.593  54.057 -48.999  1.00  0.00     0.027 A 
HETATM   33  C   UNL     1     -40.041  54.226 -50.331  1.00  0.00     0.037 A 
ENDBRANCH   6  29
TORSDOF 6
ENDMDL
MODEL 8
REMARK VINA RESULT:      -7.8      4.701      9.214
REMARK  6 active torsions:
REMARK  status: ('A' for Active; 'I' for Inactive)
REMARK    1  A    between atoms: C_2  and  O_3 
REMARK    2  A    between atoms: C_2  and  C_4 
REMARK    3  A    between atoms: C_7  and  N_8 
REMARK       I    between atoms: N_8  and  C_9 
REMARK    4  A    between atoms: C_9  and  C_10 
REMARK    5  A    between atoms: C_13  and  C_14 
REMARK    6  A    between atoms: C_19  and  C_20 
ROOT
HETATM    1  C   UNL     1     -43.069  56.209 -56.193  1.00  0.00     0.096 A 
HETATM    2  C   UNL     1     -43.524  57.451 -55.790  1.00  0.00     0.138 A 
HETATM    3  N   UNL     1     -43.587  58.215 -56.934  1.00  0.00    -0.240 N 
HETATM    4  C   UNL     1     -44.025  59.596 -56.968  1.00  0.00     0.221 C 
HETATM    5  C   UNL     1     -44.910  59.892 -55.745  1.00  0.00     0.068 C 
HETATM    6  C   UNL     1     -44.236  59.398 -54.458  1.00  0.00     0.143 C 
HETATM    7  N   UNL     1     -43.909  57.971 -54.596  1.00  0.00    -0.363 N 
HETATM    8  N   UNL     1     -43.157  57.582 -58.032  1.00  0.00    -0.181 NA
HETATM    9  C   UNL     1     -42.887  56.351 -57.592  1.00  0.00     0.160 A 
HETATM   10  H   UNL     1     -44.318  57.393 -53.858  1.00  0.00     0.162 HD
ENDROOT
BRANCH   1  11
HETATM   11  C   UNL     1     -42.777  55.002 -55.436  1.00  0.00     0.261 C 
HETATM   12  N   UNL     1     -41.706  55.124 -54.569  1.00  0.00    -0.323 N 
HETATM   13  H   UNL     1     -41.245  56.027 -54.570  1.00  0.00     0.169 HD
HETATM   14  O   UNL     1     -43.425  53.983 -55.637  1.00  0.00    -0.267 OA
BRANCH  12  15
HETATM   15  C   UNL     1     -41.100  54.104 -53.807  1.00  0.00     0.035 A 
HETATM   16  C   UNL     1     -41.123  54.053 -52.412  1.00  0.00     0.030 A 
HETATM   17  C   UNL     1     -40.557  52.973 -51.724  1.00  0.00     0.012 A 
HETATM   18  C   UNL     1     -39.949  51.922 -52.418  1.00  0.00    -0.030 A 
HETATM   19  C   UNL     1     -39.897  51.989 -53.817  1.00  0.00     0.012 A 
HETATM   20  C   UNL     1     -40.466  53.068 -54.503  1.00  0.00     0.030 A 
BRANCH  18  21
HETATM   21  C   UNL     1     -39.384  50.737 -51.664  1.00  0.00     0.147 C 
HETATM   22  C   UNL     1     -39.544  49.423 -52.410  1.00  0.00     0.044 C 
BRANCH  21  23
HETATM   23  O   UNL     1     -40.025  50.626 -50.393  1.00  0.00    -0.391 OA
HETATM   24  H   UNL     1     -40.604  49.845 -50.435  1.00  0.00     0.210 HD
ENDBRANCH  21  23
ENDBRANCH  18  21
ENDBRANCH  12  15
ENDBRANCH   1  11
BRANCH   4  25
HETATM   25  C   UNL     1     -44.781  59.942 -58.234  1.00  0.00     0.409 C 
HETATM   26  F   UNL     1     -45.510  61.073 -58.114  1.00  0.00    -0.169 F 
HETATM   27  F   UNL     1     -43.888  60.169 -59.239  1.00  0.00    -0.169 F 
HETATM   28  F   UNL     1     -45.585  58.953 -58.674  1.00  0.00    -0.169 F 
ENDBRANCH   4  25
BRANCH   6  29
HETATM   29  C   UNL     1     -45.075  59.705 -53.249  1.00  0.00     0.075 A 
HETATM   30  O   UNL     1     -45.987  60.715 -53.385  1.00  0.00    -0.325 OA
HETATM   31  C   UNL     1     -46.651  60.818 -52.207  1.00  0.00     0.142 A 
HETATM   32  C   UNL     1     -46.182  59.892 -51.306  1.00  0.00     0.027 A 
HETATM   33  C   UNL     1     -45.166  59.170 -51.977  1.00  0.00     0.037 A 
ENDBRANCH   6  29
TORSDOF 6
ENDMDL
MODEL 9
REMARK VINA RESULT:      -7.7      5.527     10.213
REMARK  6 active torsions:
REMARK  status: ('A' for Active; 'I' for Inactive)
REMARK    1  A    between atoms: C_2  and  O_3 
REMARK    2  A    between atoms: C_2  and  C_4 
REMARK    3  A    between atoms: C_7  and  N_8 
REMARK       I    between atoms: N_8  and  C_9 
REMARK    4  A    between atoms: C_9  and  C_10 
REMARK    5  A    between atoms: C_13  and  C_14 
REMARK    6  A    between atoms: C_19  and  C_20 
ROOT
HETATM    1  C   UNL     1     -43.571  56.079 -57.794  1.00  0.00     0.096 A 
HETATM    2  C   UNL     1     -44.367  57.144 -58.174  1.00  0.00     0.138 A 
HETATM    3  N   UNL     1     -44.954  56.766 -59.361  1.00  0.00    -0.240 N 
HETATM    4  C   UNL     1     -45.881  57.591 -60.111  1.00  0.00     0.221 C 
HETATM    5  C   UNL     1     -46.532  58.624 -59.175  1.00  0.00     0.068 C 
HETATM    6  C   UNL     1     -45.466  59.344 -58.338  1.00  0.00     0.143 C 
HETATM    7  N   UNL     1     -44.658  58.348 -57.617  1.00  0.00    -0.363 N 
HETATM    8  N   UNL     1     -44.559  55.566 -59.803  1.00  0.00    -0.181 NA
HETATM    9  C   UNL     1     -43.756  55.129 -58.831  1.00  0.00     0.160 A 
HETATM   10  H   UNL     1     -44.653  58.493 -56.605  1.00  0.00     0.162 HD
ENDROOT
BRANCH   1  11
HETATM   11  C   UNL     1     -42.690  55.900 -56.651  1.00  0.00     0.261 C 
HETATM   12  N   UNL     1     -42.706  54.624 -56.119  1.00  0.00    -0.323 N 
HETATM   13  H   UNL     1     -43.331  53.969 -56.575  1.00  0.00     0.169 HD
HETATM   14  O   UNL     1     -42.060  56.854 -56.210  1.00  0.00    -0.267 OA
BRANCH  12  15
HETATM   15  C   UNL     1     -42.072  54.179 -54.940  1.00  0.00     0.035 A 
HETATM   16  C   UNL     1     -40.799  53.608 -54.907  1.00  0.00     0.030 A 
HETATM   17  C   UNL     1     -40.205  53.250 -53.690  1.00  0.00     0.012 A 
HETATM   18  C   UNL     1     -40.876  53.450 -52.480  1.00  0.00    -0.030 A 
HETATM   19  C   UNL     1     -42.168  53.993 -52.516  1.00  0.00     0.012 A 
HETATM   20  C   UNL     1     -42.759  54.353 -53.733  1.00  0.00     0.030 A 
BRANCH  18  21
HETATM   21  C   UNL     1     -40.203  53.104 -51.169  1.00  0.00     0.147 C 
HETATM   22  C   UNL     1     -39.864  51.626 -51.045  1.00  0.00     0.044 C 
BRANCH  21  23
HETATM   23  O   UNL     1     -41.049  53.475 -50.081  1.00  0.00    -0.391 OA
HETATM   24  H   UNL     1     -40.578  54.160 -49.576  1.00  0.00     0.210 HD
ENDBRANCH  21  23
ENDBRANCH  18  21
ENDBRANCH  12  15
ENDBRANCH   1  11
BRANCH   4  25
HETATM   25  C   UNL     1     -46.960  56.784 -60.802  1.00  0.00     0.409 C 
HETATM   26  F   UNL     1     -47.861  57.561 -61.443  1.00  0.00    -0.169 F 
HETATM   27  F   UNL     1     -46.386  55.998 -61.757  1.00  0.00    -0.169 F 
HETATM   28  F   UNL     1     -47.619  55.943 -59.981  1.00  0.00    -0.169 F 
ENDBRANCH   4  25
BRANCH   6  29
HETATM   29  C   UNL     1     -46.083  60.377 -57.437  1.00  0.00     0.075 A 
HETATM   30  O   UNL     1     -45.486  60.553 -56.219  1.00  0.00    -0.325 OA
HETATM   31  C   UNL     1     -46.169  61.532 -55.575  1.00  0.00     0.142 A 
HETATM   32  C   UNL     1     -47.202  61.993 -56.355  1.00  0.00     0.027 A 
HETATM   33  C   UNL     1     -47.147  61.251 -57.559  1.00  0.00     0.037 A 
ENDBRANCH   6  29
TORSDOF 6
ENDMDL
MODEL 10
REMARK VINA RESULT:      -7.7      4.471      8.928
REMARK  6 active torsions:
REMARK  status: ('A' for Active; 'I' for Inactive)
REMARK    1  A    between atoms: C_2  and  O_3 
REMARK    2  A    between atoms: C_2  and  C_4 
REMARK    3  A    between atoms: C_7  and  N_8 
REMARK       I    between atoms: N_8  and  C_9 
REMARK    4  A    between atoms: C_9  and  C_10 
REMARK    5  A    between atoms: C_13  and  C_14 
REMARK    6  A    between atoms: C_19  and  C_20 
ROOT
HETATM    1  C   UNL     1     -42.285  57.012 -54.957  1.00  0.00     0.096 A 
HETATM    2  C   UNL     1     -42.350  58.321 -54.515  1.00  0.00     0.138 A 
HETATM    3  N   UNL     1     -42.352  59.099 -55.652  1.00  0.00    -0.240 N 
HETATM    4  C   UNL     1     -42.419  60.547 -55.648  1.00  0.00     0.221 C 
HETATM    5  C   UNL     1     -43.041  61.036 -54.329  1.00  0.00     0.068 C 
HETATM    6  C   UNL     1     -42.366  60.358 -53.128  1.00  0.00     0.143 C 
HETATM    7  N   UNL     1     -42.438  58.898 -53.289  1.00  0.00    -0.363 N 
HETATM    8  N   UNL     1     -42.238  58.400 -56.787  1.00  0.00    -0.181 NA
HETATM    9  C   UNL     1     -42.244  57.132 -56.370  1.00  0.00     0.160 A 
HETATM   10  H   UNL     1     -42.890  58.430 -52.500  1.00  0.00     0.162 HD
ENDROOT
BRANCH   1  11
HETATM   11  C   UNL     1     -42.225  55.756 -54.228  1.00  0.00     0.261 C 
HETATM   12  N   UNL     1     -40.980  55.153 -54.242  1.00  0.00    -0.323 N 
HETATM   13  H   UNL     1     -40.264  55.644 -54.764  1.00  0.00     0.169 HD
HETATM   14  O   UNL     1     -43.239  55.298 -53.716  1.00  0.00    -0.267 OA
BRANCH  12  15
HETATM   15  C   UNL     1     -40.641  53.877 -53.747  1.00  0.00     0.035 A 
HETATM   16  C   UNL     1     -40.457  53.589 -52.392  1.00  0.00     0.030 A 
HETATM   17  C   UNL     1     -40.187  52.282 -51.968  1.00  0.00     0.012 A 
HETATM   18  C   UNL     1     -40.088  51.236 -52.889  1.00  0.00    -0.030 A 
HETATM   19  C   UNL     1     -40.239  51.531 -54.251  1.00  0.00     0.012 A 
HETATM   20  C   UNL     1     -40.513  52.837 -54.674  1.00  0.00     0.030 A 
BRANCH  18  21
HETATM   21  C   UNL     1     -39.843  49.820 -52.412  1.00  0.00     0.147 C 
HETATM   22  C   UNL     1     -39.184  49.758 -51.042  1.00  0.00     0.044 C 
BRANCH  21  23
HETATM   23  O   UNL     1     -39.017  49.132 -53.351  1.00  0.00    -0.391 OA
HETATM   24  H   UNL     1     -39.178  49.539 -54.220  1.00  0.00     0.210 HD
ENDBRANCH  21  23
ENDBRANCH  18  21
ENDBRANCH  12  15
ENDBRANCH   1  11
BRANCH   4  25
HETATM   25  C   UNL     1     -43.208  61.102 -56.815  1.00  0.00     0.409 C 
HETATM   26  F   UNL     1     -42.529  61.038 -57.981  1.00  0.00    -0.169 F 
HETATM   27  F   UNL     1     -44.334  60.353 -56.989  1.00  0.00    -0.169 F 
HETATM   28  F   UNL     1     -43.634  62.368 -56.630  1.00  0.00    -0.169 F 
ENDBRANCH   4  25
BRANCH   6  29
HETATM   29  C   UNL     1     -42.943  60.846 -51.829  1.00  0.00     0.075 A 
HETATM   30  O   UNL     1     -44.223  61.327 -51.878  1.00  0.00    -0.325 OA
HETATM   31  C   UNL     1     -44.564  61.690 -50.616  1.00  0.00     0.142 A 
HETATM   32  C   UNL     1     -43.524  61.455 -49.749  1.00  0.00     0.027 A 
HETATM   33  C   UNL     1     -42.477  60.906 -50.529  1.00  0.00     0.037 A 
ENDBRANCH   6  29
TORSDOF 6
ENDMDL
