MODEL 1
REMARK VINA RESULT:      -7.8      0.000      0.000
REMARK  8 active torsions:
REMARK  status: ('A' for Active; 'I' for Inactive)
REMARK    1  A    between atoms: C_2  and  O_3 
REMARK    2  A    between atoms: O_3  and  C_4 
REMARK       I    between atoms: C_4  and  N_5 
REMARK    3  A    between atoms: C_8  and  N_9 
REMARK       I    between atoms: N_9  and  C_10 
REMARK    4  A    between atoms: C_10  and  C_11 
REMARK    5  A    between atoms: C_12  and  C_13 
REMARK    6  A    between atoms: N_18  and  C_19 
REMARK    7  A    between atoms: C_19  and  C_20 
REMARK    8  A    between atoms: C_20  and  O_21 
ROOT
HETATM    1  C   UNL     1     -41.715  55.365 -54.318  1.00  0.00     0.139 C 
HETATM    2  C   UNL     1     -42.538  55.976 -53.158  1.00  0.00     0.145 C 
HETATM    3  N   UNL     1     -41.703  56.094 -51.941  1.00  0.00    -0.335 N 
HETATM    4  C   UNL     1     -40.941  54.995 -51.533  1.00  0.00     0.255 C 
HETATM    5  O   UNL     1     -40.432  54.908 -50.419  1.00  0.00    -0.267 OA
HETATM    6  C   UNL     1     -40.715  53.904 -52.522  1.00  0.00     0.039 A 
HETATM    7  C   UNL     1     -41.053  54.072 -53.874  1.00  0.00    -0.027 A 
HETATM    8  C   UNL     1     -40.091  52.725 -52.090  1.00  0.00     0.017 A 
HETATM    9  C   UNL     1     -39.782  51.718 -53.001  1.00  0.00     0.001 A 
HETATM   10  C   UNL     1     -40.073  51.894 -54.351  1.00  0.00     0.001 A 
HETATM   11  C   UNL     1     -40.692  53.066 -54.788  1.00  0.00     0.009 A 
ENDROOT
BRANCH   1  12
HETATM   12  C   UNL     1     -42.570  55.199 -55.574  1.00  0.00     0.229 C 
HETATM   13  N   UNL     1     -42.274  56.041 -56.630  1.00  0.00    -0.356 N 
HETATM   14  H   UNL     1     -41.691  56.848 -56.450  1.00  0.00     0.162 HD
HETATM   15  O   UNL     1     -43.494  54.388 -55.612  1.00  0.00    -0.273 OA
BRANCH  13  16
HETATM   16  C   UNL     1     -43.099  56.048 -57.838  1.00  0.00     0.087 C 
HETATM   17  C   UNL     1     -44.281  57.019 -57.700  1.00  0.00     0.045 C 
HETATM   18  C   UNL     1     -43.838  58.474 -57.811  1.00  0.00     0.130 C 
HETATM   19  N   UNL     1     -43.060  58.679 -59.024  1.00  0.00    -0.328 N 
HETATM   20  C   UNL     1     -43.449  59.641 -59.940  1.00  0.00     0.362 C 
HETATM   21  C   UNL     1     -41.881  57.834 -59.180  1.00  0.00     0.130 C 
HETATM   22  O   UNL     1     -44.416  60.378 -59.787  1.00  0.00    -0.238 OA
HETATM   23  C   UNL     1     -42.260  56.359 -59.084  1.00  0.00     0.045 C 
BRANCH  20  24
HETATM   24  O   UNL     1     -42.644  59.669 -61.036  1.00  0.00    -0.304 OA
BRANCH  24  25
HETATM   25  C   UNL     1     -42.293  60.968 -61.533  1.00  0.00     0.176 C 
HETATM   26  C   UNL     1     -41.289  61.622 -60.604  1.00  0.00     0.034 C 
ENDBRANCH  24  25
ENDBRANCH  20  24
ENDBRANCH  13  16
ENDBRANCH   1  12
BRANCH   2  27
HETATM   27  C   UNL     1     -43.171  57.291 -53.564  1.00  0.00     0.006 A 
HETATM   28  S   UNL     1     -42.164  58.568 -54.132  1.00  0.00    -0.104 SA
HETATM   29  C   UNL     1     -43.496  59.615 -54.344  1.00  0.00     0.050 A 
HETATM   30  C   UNL     1     -44.683  59.020 -53.983  1.00  0.00     0.008 A 
HETATM   31  C   UNL     1     -44.497  57.682 -53.529  1.00  0.00     0.017 A 
ENDBRANCH   2  27
BRANCH   3  32
HETATM   32  C   UNL     1     -41.921  57.146 -50.935  1.00  0.00     0.153 C 
BRANCH  32  33
HETATM   33  C   UNL     1     -40.707  58.076 -50.820  1.00  0.00     0.187 C 
BRANCH  33  34
HETATM   34  O   UNL     1     -41.012  59.168 -49.951  1.00  0.00    -0.394 OA
HETATM   35  C   UNL     1     -41.858  60.114 -50.594  1.00  0.00     0.201 C 
ENDBRANCH  33  34
ENDBRANCH  32  33
ENDBRANCH   3  32
TORSDOF 8
ENDMDL
MODEL 2
REMARK VINA RESULT:      -7.3      1.739      2.266
REMARK  8 active torsions:
REMARK  status: ('A' for Active; 'I' for Inactive)
REMARK    1  A    between atoms: C_2  and  O_3 
REMARK    2  A    between atoms: O_3  and  C_4 
REMARK       I    between atoms: C_4  and  N_5 
REMARK    3  A    between atoms: C_8  and  N_9 
REMARK       I    between atoms: N_9  and  C_10 
REMARK    4  A    between atoms: C_10  and  C_11 
REMARK    5  A    between atoms: C_12  and  C_13 
REMARK    6  A    between atoms: N_18  and  C_19 
REMARK    7  A    between atoms: C_19  and  C_20 
REMARK    8  A    between atoms: C_20  and  O_21 
ROOT
HETATM    1  C   UNL     1     -41.278  54.739 -53.808  1.00  0.00     0.139 C 
HETATM    2  C   UNL     1     -41.776  55.161 -52.405  1.00  0.00     0.145 C 
HETATM    3  N   UNL     1     -40.726  54.920 -51.392  1.00  0.00    -0.335 N 
HETATM    4  C   UNL     1     -40.069  53.685 -51.375  1.00  0.00     0.255 C 
HETATM    5  O   UNL     1     -39.383  53.303 -50.432  1.00  0.00    -0.267 OA
HETATM    6  C   UNL     1     -40.189  52.822 -52.583  1.00  0.00     0.039 A 
HETATM    7  C   UNL     1     -40.741  53.318 -53.775  1.00  0.00    -0.027 A 
HETATM    8  C   UNL     1     -39.676  51.518 -52.529  1.00  0.00     0.017 A 
HETATM    9  C   UNL     1     -39.689  50.710 -53.665  1.00  0.00     0.001 A 
HETATM   10  C   UNL     1     -40.193  51.209 -54.862  1.00  0.00     0.001 A 
HETATM   11  C   UNL     1     -40.705  52.506 -54.922  1.00  0.00     0.009 A 
ENDROOT
BRANCH   1  12
HETATM   12  C   UNL     1     -42.363  54.943 -54.865  1.00  0.00     0.229 C 
HETATM   13  N   UNL     1     -42.093  55.880 -55.846  1.00  0.00    -0.356 N 
HETATM   14  H   UNL     1     -41.329  56.525 -55.692  1.00  0.00     0.162 HD
HETATM   15  O   UNL     1     -43.430  54.333 -54.808  1.00  0.00    -0.273 OA
BRANCH  13  16
HETATM   16  C   UNL     1     -43.103  56.239 -56.840  1.00  0.00     0.087 C 
HETATM   17  C   UNL     1     -44.077  57.291 -56.290  1.00  0.00     0.045 C 
HETATM   18  C   UNL     1     -43.439  58.674 -56.217  1.00  0.00     0.130 C 
HETATM   19  N   UNL     1     -42.862  59.037 -57.503  1.00  0.00    -0.328 N 
HETATM   20  C   UNL     1     -43.249  60.210 -58.129  1.00  0.00     0.362 C 
HETATM   21  C   UNL     1     -41.875  58.111 -58.046  1.00  0.00     0.130 C 
HETATM   22  O   UNL     1     -44.049  61.006 -57.651  1.00  0.00    -0.238 OA
HETATM   23  C   UNL     1     -42.456  56.705 -58.150  1.00  0.00     0.045 C 
BRANCH  20  24
HETATM   24  O   UNL     1     -42.653  60.373 -59.339  1.00  0.00    -0.304 OA
BRANCH  24  25
HETATM   25  C   UNL     1     -42.118  61.676 -59.613  1.00  0.00     0.176 C 
HETATM   26  C   UNL     1     -40.848  61.891 -58.814  1.00  0.00     0.034 C 
ENDBRANCH  24  25
ENDBRANCH  20  24
ENDBRANCH  13  16
ENDBRANCH   1  12
BRANCH   2  27
HETATM   27  C   UNL     1     -42.275  56.591 -52.405  1.00  0.00     0.006 A 
HETATM   28  S   UNL     1     -43.877  56.923 -51.867  1.00  0.00    -0.104 SA
HETATM   29  C   UNL     1     -43.704  58.595 -52.164  1.00  0.00     0.050 A 
HETATM   30  C   UNL     1     -42.463  58.903 -52.672  1.00  0.00     0.008 A 
HETATM   31  C   UNL     1     -41.639  57.749 -52.816  1.00  0.00     0.017 A 
ENDBRANCH   2  27
BRANCH   3  32
HETATM   32  C   UNL     1     -40.600  55.741 -50.176  1.00  0.00     0.153 C 
BRANCH  32  33
HETATM   33  C   UNL     1     -41.563  55.274 -49.079  1.00  0.00     0.187 C 
BRANCH  33  34
HETATM   34  O   UNL     1     -40.841  55.019 -47.873  1.00  0.00    -0.394 OA
HETATM   35  C   UNL     1     -40.606  53.627 -47.700  1.00  0.00     0.201 C 
ENDBRANCH  33  34
ENDBRANCH  32  33
ENDBRANCH   3  32
TORSDOF 8
ENDMDL
MODEL 3
REMARK VINA RESULT:      -7.0      3.402      6.935
REMARK  8 active torsions:
REMARK  status: ('A' for Active; 'I' for Inactive)
REMARK    1  A    between atoms: C_2  and  O_3 
REMARK    2  A    between atoms: O_3  and  C_4 
REMARK       I    between atoms: C_4  and  N_5 
REMARK    3  A    between atoms: C_8  and  N_9 
REMARK       I    between atoms: N_9  and  C_10 
REMARK    4  A    between atoms: C_10  and  C_11 
REMARK    5  A    between atoms: C_12  and  C_13 
REMARK    6  A    between atoms: N_18  and  C_19 
REMARK    7  A    between atoms: C_19  and  C_20 
REMARK    8  A    between atoms: C_20  and  O_21 
ROOT
HETATM    1  C   UNL     1     -42.422  56.865 -51.984  1.00  0.00     0.139 C 
HETATM    2  C   UNL     1     -42.372  56.759 -53.527  1.00  0.00     0.145 C 
HETATM    3  N   UNL     1     -42.656  55.372 -53.957  1.00  0.00    -0.335 N 
HETATM    4  C   UNL     1     -41.988  54.316 -53.328  1.00  0.00     0.255 C 
HETATM    5  O   UNL     1     -41.961  53.176 -53.781  1.00  0.00    -0.267 OA
HETATM    6  C   UNL     1     -41.315  54.600 -52.030  1.00  0.00     0.039 A 
HETATM    7  C   UNL     1     -41.533  55.809 -51.350  1.00  0.00    -0.027 A 
HETATM    8  C   UNL     1     -40.509  53.604 -51.461  1.00  0.00     0.017 A 
HETATM    9  C   UNL     1     -39.934  53.795 -50.207  1.00  0.00     0.001 A 
HETATM   10  C   UNL     1     -40.181  54.973 -49.507  1.00  0.00     0.001 A 
HETATM   11  C   UNL     1     -40.983  55.967 -50.066  1.00  0.00     0.009 A 
ENDROOT
BRANCH   1  12
HETATM   12  C   UNL     1     -42.093  58.282 -51.516  1.00  0.00     0.229 C 
HETATM   13  N   UNL     1     -43.134  58.999 -50.956  1.00  0.00    -0.356 N 
HETATM   14  H   UNL     1     -44.077  58.656 -51.090  1.00  0.00     0.162 HD
HETATM   15  O   UNL     1     -40.971  58.760 -51.676  1.00  0.00    -0.273 OA
BRANCH  13  16
HETATM   16  C   UNL     1     -42.963  60.401 -50.578  1.00  0.00     0.087 C 
HETATM   17  C   UNL     1     -43.186  61.333 -51.778  1.00  0.00     0.045 C 
HETATM   18  C   UNL     1     -44.663  61.453 -52.139  1.00  0.00     0.130 C 
HETATM   19  N   UNL     1     -45.445  61.822 -50.968  1.00  0.00    -0.328 N 
HETATM   20  C   UNL     1     -46.246  62.950 -50.999  1.00  0.00     0.362 C 
HETATM   21  C   UNL     1     -45.331  60.934 -49.817  1.00  0.00     0.130 C 
HETATM   22  O   UNL     1     -46.371  63.672 -51.982  1.00  0.00    -0.238 OA
HETATM   23  C   UNL     1     -43.872  60.777 -49.400  1.00  0.00     0.045 C 
BRANCH  20  24
HETATM   24  O   UNL     1     -46.868  63.177 -49.812  1.00  0.00    -0.304 OA
BRANCH  24  25
HETATM   25  C   UNL     1     -47.789  64.277 -49.777  1.00  0.00     0.176 C 
HETATM   26  C   UNL     1     -48.970  63.934 -48.892  1.00  0.00     0.034 C 
ENDBRANCH  24  25
ENDBRANCH  20  24
ENDBRANCH  13  16
ENDBRANCH   1  12
BRANCH   2  27
HETATM   27  C   UNL     1     -43.287  57.775 -54.179  1.00  0.00     0.006 A 
HETATM   28  S   UNL     1     -42.600  59.041 -55.123  1.00  0.00    -0.104 SA
HETATM   29  C   UNL     1     -44.132  59.713 -55.461  1.00  0.00     0.050 A 
HETATM   30  C   UNL     1     -45.150  59.005 -54.865  1.00  0.00     0.008 A 
HETATM   31  C   UNL     1     -44.664  57.890 -54.122  1.00  0.00     0.017 A 
ENDBRANCH   2  27
BRANCH   3  32
HETATM   32  C   UNL     1     -43.297  55.062 -55.246  1.00  0.00     0.153 C 
BRANCH  32  33
HETATM   33  C   UNL     1     -42.355  55.341 -56.424  1.00  0.00     0.187 C 
BRANCH  33  34
HETATM   34  O   UNL     1     -43.101  55.392 -57.642  1.00  0.00    -0.394 OA
HETATM   35  C   UNL     1     -43.555  56.713 -57.909  1.00  0.00     0.201 C 
ENDBRANCH  33  34
ENDBRANCH  32  33
ENDBRANCH   3  32
TORSDOF 8
ENDMDL
MODEL 4
REMARK VINA RESULT:      -6.8      3.006      3.994
REMARK  8 active torsions:
REMARK  status: ('A' for Active; 'I' for Inactive)
REMARK    1  A    between atoms: C_2  and  O_3 
REMARK    2  A    between atoms: O_3  and  C_4 
REMARK       I    between atoms: C_4  and  N_5 
REMARK    3  A    between atoms: C_8  and  N_9 
REMARK       I    between atoms: N_9  and  C_10 
REMARK    4  A    between atoms: C_10  and  C_11 
REMARK    5  A    between atoms: C_12  and  C_13 
REMARK    6  A    between atoms: N_18  and  C_19 
REMARK    7  A    between atoms: C_19  and  C_20 
REMARK    8  A    between atoms: C_20  and  O_21 
ROOT
HETATM    1  C   UNL     1     -42.456  58.066 -54.534  1.00  0.00     0.139 C 
HETATM    2  C   UNL     1     -43.634  58.490 -53.624  1.00  0.00     0.145 C 
HETATM    3  N   UNL     1     -43.476  57.908 -52.273  1.00  0.00    -0.335 N 
HETATM    4  C   UNL     1     -43.172  56.548 -52.151  1.00  0.00     0.255 C 
HETATM    5  O   UNL     1     -43.276  55.930 -51.096  1.00  0.00    -0.267 OA
HETATM    6  C   UNL     1     -42.662  55.843 -53.360  1.00  0.00     0.039 A 
HETATM    7  C   UNL     1     -42.283  56.556 -54.508  1.00  0.00    -0.027 A 
HETATM    8  C   UNL     1     -42.501  54.451 -53.306  1.00  0.00     0.017 A 
HETATM    9  C   UNL     1     -41.944  53.765 -54.383  1.00  0.00     0.001 A 
HETATM   10  C   UNL     1     -41.525  54.470 -55.508  1.00  0.00     0.001 A 
HETATM   11  C   UNL     1     -41.681  55.855 -55.568  1.00  0.00     0.009 A 
ENDROOT
BRANCH   1  12
HETATM   12  C   UNL     1     -42.619  58.624 -55.947  1.00  0.00     0.229 C 
HETATM   13  N   UNL     1     -43.747  58.220 -56.638  1.00  0.00    -0.356 N 
HETATM   14  H   UNL     1     -44.265  57.427 -56.283  1.00  0.00     0.162 HD
HETATM   15  O   UNL     1     -41.765  59.356 -56.444  1.00  0.00    -0.273 OA
BRANCH  13  16
HETATM   16  C   UNL     1     -43.948  58.600 -58.036  1.00  0.00     0.087 C 
HETATM   17  C   UNL     1     -43.341  57.560 -58.989  1.00  0.00     0.045 C 
HETATM   18  C   UNL     1     -44.184  56.290 -59.056  1.00  0.00     0.130 C 
HETATM   19  N   UNL     1     -45.570  56.614 -59.359  1.00  0.00    -0.328 N 
HETATM   20  C   UNL     1     -46.191  56.036 -60.452  1.00  0.00     0.362 C 
HETATM   21  C   UNL     1     -46.225  57.544 -58.446  1.00  0.00     0.130 C 
HETATM   22  O   UNL     1     -45.651  55.224 -61.194  1.00  0.00    -0.238 OA
HETATM   23  C   UNL     1     -45.432  58.842 -58.340  1.00  0.00     0.045 C 
BRANCH  20  24
HETATM   24  O   UNL     1     -47.465  56.482 -60.620  1.00  0.00    -0.304 OA
BRANCH  24  25
HETATM   25  C   UNL     1     -47.691  57.354 -61.737  1.00  0.00     0.176 C 
HETATM   26  C   UNL     1     -48.895  56.880 -62.526  1.00  0.00     0.034 C 
ENDBRANCH  24  25
ENDBRANCH  20  24
ENDBRANCH  13  16
ENDBRANCH   1  12
BRANCH   2  27
HETATM   27  C   UNL     1     -43.796  59.996 -53.600  1.00  0.00     0.006 A 
HETATM   28  S   UNL     1     -45.324  60.683 -53.998  1.00  0.00    -0.104 SA
HETATM   29  C   UNL     1     -44.741  62.273 -53.783  1.00  0.00     0.050 A 
HETATM   30  C   UNL     1     -43.412  62.292 -53.426  1.00  0.00     0.008 A 
HETATM   31  C   UNL     1     -42.864  60.981 -53.324  1.00  0.00     0.017 A 
ENDBRANCH   2  27
BRANCH   3  32
HETATM   32  C   UNL     1     -43.993  58.571 -51.064  1.00  0.00     0.153 C 
BRANCH  32  33
HETATM   33  C   UNL     1     -45.503  58.354 -50.905  1.00  0.00     0.187 C 
BRANCH  33  34
HETATM   34  O   UNL     1     -46.031  59.287 -49.960  1.00  0.00    -0.394 OA
HETATM   35  C   UNL     1     -45.344  60.531 -50.029  1.00  0.00     0.201 C 
ENDBRANCH  33  34
ENDBRANCH  32  33
ENDBRANCH   3  32
TORSDOF 8
ENDMDL
MODEL 5
REMARK VINA RESULT:      -6.7      1.650      2.145
REMARK  8 active torsions:
REMARK  status: ('A' for Active; 'I' for Inactive)
REMARK    1  A    between atoms: C_2  and  O_3 
REMARK    2  A    between atoms: O_3  and  C_4 
REMARK       I    between atoms: C_4  and  N_5 
REMARK    3  A    between atoms: C_8  and  N_9 
REMARK       I    between atoms: N_9  and  C_10 
REMARK    4  A    between atoms: C_10  and  C_11 
REMARK    5  A    between atoms: C_12  and  C_13 
REMARK    6  A    between atoms: N_18  and  C_19 
REMARK    7  A    between atoms: C_19  and  C_20 
REMARK    8  A    between atoms: C_20  and  O_21 
ROOT
HETATM    1  C   UNL     1     -42.044  57.236 -54.590  1.00  0.00     0.139 C 
HETATM    2  C   UNL     1     -42.873  57.820 -53.420  1.00  0.00     0.145 C 
HETATM    3  N   UNL     1     -42.090  57.780 -52.165  1.00  0.00    -0.335 N 
HETATM    4  C   UNL     1     -41.431  56.598 -51.813  1.00  0.00     0.255 C 
HETATM    5  O   UNL     1     -40.982  56.389 -50.690  1.00  0.00    -0.267 OA
HETATM    6  C   UNL     1     -41.240  55.571 -52.875  1.00  0.00     0.039 A 
HETATM    7  C   UNL     1     -41.501  55.865 -54.222  1.00  0.00    -0.027 A 
HETATM    8  C   UNL     1     -40.726  54.318 -52.511  1.00  0.00     0.017 A 
HETATM    9  C   UNL     1     -40.449  53.361 -53.486  1.00  0.00     0.001 A 
HETATM   10  C   UNL     1     -40.663  53.661 -54.828  1.00  0.00     0.001 A 
HETATM   11  C   UNL     1     -41.173  54.906 -55.197  1.00  0.00     0.009 A 
ENDROOT
BRANCH   1  12
HETATM   12  C   UNL     1     -42.849  57.231 -55.889  1.00  0.00     0.229 C 
HETATM   13  N   UNL     1     -42.379  58.045 -56.903  1.00  0.00    -0.356 N 
HETATM   14  H   UNL     1     -41.693  58.752 -56.669  1.00  0.00     0.162 HD
HETATM   15  O   UNL     1     -43.880  56.569 -55.996  1.00  0.00    -0.273 OA
BRANCH  13  16
HETATM   16  C   UNL     1     -43.131  58.207 -58.147  1.00  0.00     0.087 C 
HETATM   17  C   UNL     1     -44.209  59.292 -58.009  1.00  0.00     0.045 C 
HETATM   18  C   UNL     1     -43.609  60.694 -58.013  1.00  0.00     0.130 C 
HETATM   19  N   UNL     1     -42.749  60.877 -59.173  1.00  0.00    -0.328 N 
HETATM   20  C   UNL     1     -42.982  61.922 -60.049  1.00  0.00     0.362 C 
HETATM   21  C   UNL     1     -41.660  59.918 -59.320  1.00  0.00     0.130 C 
HETATM   22  O   UNL     1     -43.873  62.751 -59.901  1.00  0.00    -0.238 OA
HETATM   23  C   UNL     1     -42.197  58.490 -59.330  1.00  0.00     0.045 C 
BRANCH  20  24
HETATM   24  O   UNL     1     -42.121  61.920 -61.101  1.00  0.00    -0.304 OA
BRANCH  24  25
HETATM   25  C   UNL     1     -41.347  63.114 -61.290  1.00  0.00     0.176 C 
HETATM   26  C   UNL     1     -40.026  62.995 -60.556  1.00  0.00     0.034 C 
ENDBRANCH  24  25
ENDBRANCH  20  24
ENDBRANCH  13  16
ENDBRANCH   1  12
BRANCH   2  27
HETATM   27  C   UNL     1     -43.388  59.206 -53.747  1.00  0.00     0.006 A 
HETATM   28  S   UNL     1     -45.076  59.525 -53.631  1.00  0.00    -0.104 SA
HETATM   29  C   UNL     1     -44.874  61.143 -54.134  1.00  0.00     0.050 A 
HETATM   30  C   UNL     1     -43.558  61.442 -54.398  1.00  0.00     0.008 A 
HETATM   31  C   UNL     1     -42.699  60.325 -54.180  1.00  0.00     0.017 A 
ENDBRANCH   2  27
BRANCH   3  32
HETATM   32  C   UNL     1     -42.277  58.767 -51.088  1.00  0.00     0.153 C 
BRANCH  32  33
HETATM   33  C   UNL     1     -41.157  59.814 -51.084  1.00  0.00     0.187 C 
BRANCH  33  34
HETATM   34  O   UNL     1     -40.198  59.497 -50.074  1.00  0.00    -0.394 OA
HETATM   35  C   UNL     1     -38.882  59.453 -50.612  1.00  0.00     0.201 C 
ENDBRANCH  33  34
ENDBRANCH  32  33
ENDBRANCH   3  32
TORSDOF 8
ENDMDL
MODEL 6
REMARK VINA RESULT:      -6.7      2.624      7.963
REMARK  8 active torsions:
REMARK  status: ('A' for Active; 'I' for Inactive)
REMARK    1  A    between atoms: C_2  and  O_3 
REMARK    2  A    between atoms: O_3  and  C_4 
REMARK       I    between atoms: C_4  and  N_5 
REMARK    3  A    between atoms: C_8  and  N_9 
REMARK       I    between atoms: N_9  and  C_10 
REMARK    4  A    between atoms: C_10  and  C_11 
REMARK    5  A    between atoms: C_12  and  C_13 
REMARK    6  A    between atoms: N_18  and  C_19 
REMARK    7  A    between atoms: C_19  and  C_20 
REMARK    8  A    between atoms: C_20  and  O_21 
ROOT
HETATM    1  C   UNL     1     -42.995  58.829 -53.874  1.00  0.00     0.139 C 
HETATM    2  C   UNL     1     -43.711  59.347 -55.145  1.00  0.00     0.145 C 
HETATM    3  N   UNL     1     -43.216  60.696 -55.500  1.00  0.00    -0.335 N 
HETATM    4  C   UNL     1     -43.129  61.672 -54.502  1.00  0.00     0.255 C 
HETATM    5  O   UNL     1     -42.983  62.866 -54.742  1.00  0.00    -0.267 OA
HETATM    6  C   UNL     1     -43.182  61.217 -53.084  1.00  0.00     0.039 A 
HETATM    7  C   UNL     1     -43.090  59.855 -52.757  1.00  0.00    -0.027 A 
HETATM    8  C   UNL     1     -43.258  62.184 -52.072  1.00  0.00     0.017 A 
HETATM    9  C   UNL     1     -43.220  61.804 -50.732  1.00  0.00     0.001 A 
HETATM   10  C   UNL     1     -43.083  60.460 -50.399  1.00  0.00     0.001 A 
HETATM   11  C   UNL     1     -43.007  59.492 -51.401  1.00  0.00     0.009 A 
ENDROOT
BRANCH   1  12
HETATM   12  C   UNL     1     -43.520  57.453 -53.467  1.00  0.00     0.229 C 
HETATM   13  N   UNL     1     -42.571  56.460 -53.304  1.00  0.00    -0.356 N 
HETATM   14  H   UNL     1     -41.643  56.621 -53.673  1.00  0.00     0.162 HD
HETATM   15  O   UNL     1     -44.726  57.244 -53.338  1.00  0.00    -0.273 OA
BRANCH  13  16
HETATM   16  C   UNL     1     -42.968  55.080 -53.027  1.00  0.00     0.087 C 
HETATM   17  C   UNL     1     -42.866  54.208 -54.287  1.00  0.00     0.045 C 
HETATM   18  C   UNL     1     -41.419  53.881 -54.638  1.00  0.00     0.130 C 
HETATM   19  N   UNL     1     -40.730  53.315 -53.487  1.00  0.00    -0.328 N 
HETATM   20  C   UNL     1     -40.115  52.080 -53.587  1.00  0.00     0.362 C 
HETATM   21  C   UNL     1     -40.730  54.131 -52.277  1.00  0.00     0.130 C 
HETATM   22  O   UNL     1     -40.082  51.416 -54.616  1.00  0.00    -0.238 OA
HETATM   23  C   UNL     1     -42.156  54.488 -51.868  1.00  0.00     0.045 C 
BRANCH  20  24
HETATM   24  O   UNL     1     -39.563  51.679 -52.411  1.00  0.00    -0.304 OA
BRANCH  24  25
HETATM   25  C   UNL     1     -39.567  50.267 -52.157  1.00  0.00     0.176 C 
HETATM   26  C   UNL     1     -39.777  50.010 -50.677  1.00  0.00     0.034 C 
ENDBRANCH  24  25
ENDBRANCH  20  24
ENDBRANCH  13  16
ENDBRANCH   1  12
BRANCH   2  27
HETATM   27  C   UNL     1     -43.590  58.359 -56.286  1.00  0.00     0.006 A 
HETATM   28  S   UNL     1     -44.968  58.037 -57.268  1.00  0.00    -0.104 SA
HETATM   29  C   UNL     1     -44.110  56.911 -58.222  1.00  0.00     0.050 A 
HETATM   30  C   UNL     1     -42.807  56.767 -57.805  1.00  0.00     0.008 A 
HETATM   31  C   UNL     1     -42.507  57.597 -56.686  1.00  0.00     0.017 A 
ENDBRANCH   2  27
BRANCH   3  32
HETATM   32  C   UNL     1     -43.177  61.180 -56.890  1.00  0.00     0.153 C 
BRANCH  32  33
HETATM   33  C   UNL     1     -41.751  61.159 -57.454  1.00  0.00     0.187 C 
BRANCH  33  34
HETATM   34  O   UNL     1     -41.464  62.400 -58.100  1.00  0.00    -0.394 OA
HETATM   35  C   UNL     1     -42.625  63.219 -58.175  1.00  0.00     0.201 C 
ENDBRANCH  33  34
ENDBRANCH  32  33
ENDBRANCH   3  32
TORSDOF 8
ENDMDL
MODEL 7
REMARK VINA RESULT:      -6.6      2.345      7.531
REMARK  8 active torsions:
REMARK  status: ('A' for Active; 'I' for Inactive)
REMARK    1  A    between atoms: C_2  and  O_3 
REMARK    2  A    between atoms: O_3  and  C_4 
REMARK       I    between atoms: C_4  and  N_5 
REMARK    3  A    between atoms: C_8  and  N_9 
REMARK       I    between atoms: N_9  and  C_10 
REMARK    4  A    between atoms: C_10  and  C_11 
REMARK    5  A    between atoms: C_12  and  C_13 
REMARK    6  A    between atoms: N_18  and  C_19 
REMARK    7  A    between atoms: C_19  and  C_20 
REMARK    8  A    between atoms: C_20  and  O_21 
ROOT
HETATM    1  C   UNL     1     -43.846  58.522 -56.626  1.00  0.00     0.139 C 
HETATM    2  C   UNL     1     -42.918  59.687 -56.203  1.00  0.00     0.145 C 
HETATM    3  N   UNL     1     -42.602  60.541 -57.369  1.00  0.00    -0.335 N 
HETATM    4  C   UNL     1     -42.189  59.937 -58.561  1.00  0.00     0.255 C 
HETATM    5  O   UNL     1     -41.665  60.558 -59.481  1.00  0.00    -0.267 OA
HETATM    6  C   UNL     1     -42.440  58.477 -58.719  1.00  0.00     0.039 A 
HETATM    7  C   UNL     1     -43.259  57.782 -57.816  1.00  0.00    -0.027 A 
HETATM    8  C   UNL     1     -41.896  57.820 -59.832  1.00  0.00     0.017 A 
HETATM    9  C   UNL     1     -42.181  56.476 -60.064  1.00  0.00     0.001 A 
HETATM   10  C   UNL     1     -43.027  55.790 -59.197  1.00  0.00     0.001 A 
HETATM   11  C   UNL     1     -43.573  56.439 -58.089  1.00  0.00     0.009 A 
ENDROOT
BRANCH   1  12
HETATM   12  C   UNL     1     -44.154  57.604 -55.444  1.00  0.00     0.229 C 
HETATM   13  N   UNL     1     -43.076  56.943 -54.885  1.00  0.00    -0.356 N 
HETATM   14  H   UNL     1     -42.209  56.915 -55.408  1.00  0.00     0.162 HD
HETATM   15  O   UNL     1     -45.308  57.438 -55.051  1.00  0.00    -0.273 OA
BRANCH  13  16
HETATM   16  C   UNL     1     -43.267  55.954 -53.825  1.00  0.00     0.087 C 
HETATM   17  C   UNL     1     -43.633  54.580 -54.405  1.00  0.00     0.045 C 
HETATM   18  C   UNL     1     -42.428  53.891 -55.037  1.00  0.00     0.130 C 
HETATM   19  N   UNL     1     -41.316  53.845 -54.099  1.00  0.00    -0.328 N 
HETATM   20  C   UNL     1     -40.735  52.633 -53.772  1.00  0.00     0.362 C 
HETATM   21  C   UNL     1     -40.875  55.130 -53.566  1.00  0.00     0.130 C 
HETATM   22  O   UNL     1     -41.081  51.559 -54.253  1.00  0.00    -0.238 OA
HETATM   23  C   UNL     1     -42.038  55.869 -52.912  1.00  0.00     0.045 C 
BRANCH  20  24
HETATM   24  O   UNL     1     -39.745  52.763 -52.849  1.00  0.00    -0.304 OA
BRANCH  24  25
HETATM   25  C   UNL     1     -39.633  51.706 -51.885  1.00  0.00     0.176 C 
HETATM   26  C   UNL     1     -40.307  52.115 -50.590  1.00  0.00     0.034 C 
ENDBRANCH  24  25
ENDBRANCH  20  24
ENDBRANCH  13  16
ENDBRANCH   1  12
BRANCH   2  27
HETATM   27  C   UNL     1     -43.507  60.467 -55.046  1.00  0.00     0.006 A 
HETATM   28  S   UNL     1     -42.540  60.756 -53.650  1.00  0.00    -0.104 SA
HETATM   29  C   UNL     1     -43.803  61.596 -52.866  1.00  0.00     0.050 A 
HETATM   30  C   UNL     1     -44.942  61.651 -53.636  1.00  0.00     0.008 A 
HETATM   31  C   UNL     1     -44.775  60.997 -54.891  1.00  0.00     0.017 A 
ENDBRANCH   2  27
BRANCH   3  32
HETATM   32  C   UNL     1     -42.324  61.981 -57.238  1.00  0.00     0.153 C 
BRANCH  32  33
HETATM   33  C   UNL     1     -43.443  62.829 -57.856  1.00  0.00     0.187 C 
BRANCH  33  34
HETATM   34  O   UNL     1     -44.556  61.997 -58.190  1.00  0.00    -0.394 OA
HETATM   35  C   UNL     1     -45.042  62.291 -59.494  1.00  0.00     0.201 C 
ENDBRANCH  33  34
ENDBRANCH  32  33
ENDBRANCH   3  32
TORSDOF 8
ENDMDL
MODEL 8
REMARK VINA RESULT:      -6.5      3.150      7.746
REMARK  8 active torsions:
REMARK  status: ('A' for Active; 'I' for Inactive)
REMARK    1  A    between atoms: C_2  and  O_3 
REMARK    2  A    between atoms: O_3  and  C_4 
REMARK       I    between atoms: C_4  and  N_5 
REMARK    3  A    between atoms: C_8  and  N_9 
REMARK       I    between atoms: N_9  and  C_10 
REMARK    4  A    between atoms: C_10  and  C_11 
REMARK    5  A    between atoms: C_12  and  C_13 
REMARK    6  A    between atoms: N_18  and  C_19 
REMARK    7  A    between atoms: C_19  and  C_20 
REMARK    8  A    between atoms: C_20  and  O_21 
ROOT
HETATM    1  C   UNL     1     -42.637  58.046 -54.584  1.00  0.00     0.139 C 
HETATM    2  C   UNL     1     -42.458  58.282 -56.104  1.00  0.00     0.145 C 
HETATM    3  N   UNL     1     -43.011  57.142 -56.869  1.00  0.00    -0.335 N 
HETATM    4  C   UNL     1     -42.671  55.840 -56.488  1.00  0.00     0.255 C 
HETATM    5  O   UNL     1     -42.863  54.861 -57.203  1.00  0.00    -0.267 OA
HETATM    6  C   UNL     1     -42.083  55.647 -55.133  1.00  0.00     0.039 A 
HETATM    7  C   UNL     1     -42.083  56.687 -54.190  1.00  0.00    -0.027 A 
HETATM    8  C   UNL     1     -41.590  54.381 -54.790  1.00  0.00     0.017 A 
HETATM    9  C   UNL     1     -41.114  54.136 -53.504  1.00  0.00     0.001 A 
HETATM   10  C   UNL     1     -41.151  55.148 -52.549  1.00  0.00     0.001 A 
HETATM   11  C   UNL     1     -41.642  56.411 -52.884  1.00  0.00     0.009 A 
ENDROOT
BRANCH   1  12
HETATM   12  C   UNL     1     -42.037  59.194 -53.773  1.00  0.00     0.229 C 
HETATM   13  N   UNL     1     -42.897  59.845 -52.908  1.00  0.00    -0.356 N 
HETATM   14  H   UNL     1     -43.891  59.695 -53.019  1.00  0.00     0.162 HD
HETATM   15  O   UNL     1     -40.866  59.536 -53.925  1.00  0.00    -0.273 OA
BRANCH  13  16
HETATM   16  C   UNL     1     -42.463  61.029 -52.166  1.00  0.00     0.087 C 
HETATM   17  C   UNL     1     -43.429  62.204 -52.377  1.00  0.00     0.045 C 
HETATM   18  C   UNL     1     -44.732  62.014 -51.607  1.00  0.00     0.130 C 
HETATM   19  N   UNL     1     -44.459  61.734 -50.205  1.00  0.00    -0.328 N 
HETATM   20  C   UNL     1     -45.013  62.531 -49.219  1.00  0.00     0.362 C 
HETATM   21  C   UNL     1     -43.602  60.583 -49.937  1.00  0.00     0.130 C 
HETATM   22  O   UNL     1     -45.765  63.472 -49.446  1.00  0.00    -0.238 OA
HETATM   23  C   UNL     1     -42.275  60.716 -50.676  1.00  0.00     0.045 C 
BRANCH  20  24
HETATM   24  O   UNL     1     -44.619  62.163 -47.971  1.00  0.00    -0.304 OA
BRANCH  24  25
HETATM   25  C   UNL     1     -45.667  61.929 -47.018  1.00  0.00     0.176 C 
HETATM   26  C   UNL     1     -45.175  60.994 -45.931  1.00  0.00     0.034 C 
ENDBRANCH  24  25
ENDBRANCH  20  24
ENDBRANCH  13  16
ENDBRANCH   1  12
BRANCH   2  27
HETATM   27  C   UNL     1     -43.044  59.612 -56.527  1.00  0.00     0.006 A 
HETATM   28  S   UNL     1     -42.034  60.763 -57.315  1.00  0.00    -0.104 SA
HETATM   29  C   UNL     1     -43.304  61.897 -57.437  1.00  0.00     0.050 A 
HETATM   30  C   UNL     1     -44.472  61.425 -56.884  1.00  0.00     0.008 A 
HETATM   31  C   UNL     1     -44.324  60.110 -56.355  1.00  0.00     0.017 A 
ENDBRANCH   2  27
BRANCH   3  32
HETATM   32  C   UNL     1     -43.574  57.300 -58.221  1.00  0.00     0.153 C 
BRANCH  32  33
HETATM   33  C   UNL     1     -42.472  57.459 -59.275  1.00  0.00     0.187 C 
BRANCH  33  34
HETATM   34  O   UNL     1     -42.702  56.559 -60.360  1.00  0.00    -0.394 OA
HETATM   35  C   UNL     1     -44.039  56.074 -60.349  1.00  0.00     0.201 C 
ENDBRANCH  33  34
ENDBRANCH  32  33
ENDBRANCH   3  32
TORSDOF 8
ENDMDL
MODEL 9
REMARK VINA RESULT:      -6.4      2.633      8.001
REMARK  8 active torsions:
REMARK  status: ('A' for Active; 'I' for Inactive)
REMARK    1  A    between atoms: C_2  and  O_3 
REMARK    2  A    between atoms: O_3  and  C_4 
REMARK       I    between atoms: C_4  and  N_5 
REMARK    3  A    between atoms: C_8  and  N_9 
REMARK       I    between atoms: N_9  and  C_10 
REMARK    4  A    between atoms: C_10  and  C_11 
REMARK    5  A    between atoms: C_12  and  C_13 
REMARK    6  A    between atoms: N_18  and  C_19 
REMARK    7  A    between atoms: C_19  and  C_20 
REMARK    8  A    between atoms: C_20  and  O_21 
ROOT
HETATM    1  C   UNL     1     -44.091  57.282 -57.149  1.00  0.00     0.139 C 
HETATM    2  C   UNL     1     -44.456  58.785 -57.209  1.00  0.00     0.145 C 
HETATM    3  N   UNL     1     -45.849  58.958 -57.675  1.00  0.00    -0.335 N 
HETATM    4  C   UNL     1     -46.278  58.260 -58.809  1.00  0.00     0.255 C 
HETATM    5  O   UNL     1     -47.311  58.531 -59.412  1.00  0.00    -0.267 OA
HETATM    6  C   UNL     1     -45.446  57.113 -59.269  1.00  0.00     0.039 A 
HETATM    7  C   UNL     1     -44.407  56.606 -58.472  1.00  0.00    -0.027 A 
HETATM    8  C   UNL     1     -45.766  56.500 -60.489  1.00  0.00     0.017 A 
HETATM    9  C   UNL     1     -45.069  55.370 -60.912  1.00  0.00     0.001 A 
HETATM   10  C   UNL     1     -44.067  54.835 -60.108  1.00  0.00     0.001 A 
HETATM   11  C   UNL     1     -43.745  55.439 -58.892  1.00  0.00     0.009 A 
ENDROOT
BRANCH   1  12
HETATM   12  C   UNL     1     -42.642  57.082 -56.707  1.00  0.00     0.229 C 
HETATM   13  N   UNL     1     -42.437  56.199 -55.663  1.00  0.00    -0.356 N 
HETATM   14  H   UNL     1     -43.237  55.919 -55.110  1.00  0.00     0.162 HD
HETATM   15  O   UNL     1     -41.724  57.711 -57.231  1.00  0.00    -0.273 OA
BRANCH  13  16
HETATM   16  C   UNL     1     -41.107  56.016 -55.083  1.00  0.00     0.087 C 
HETATM   17  C   UNL     1     -41.009  56.669 -53.696  1.00  0.00     0.045 C 
HETATM   18  C   UNL     1     -41.748  55.862 -52.634  1.00  0.00     0.130 C 
HETATM   19  N   UNL     1     -41.310  54.474 -52.652  1.00  0.00    -0.328 N 
HETATM   20  C   UNL     1     -40.815  53.890 -51.499  1.00  0.00     0.362 C 
HETATM   21  C   UNL     1     -41.445  53.776 -53.926  1.00  0.00     0.130 C 
HETATM   22  O   UNL     1     -40.741  54.467 -50.420  1.00  0.00    -0.238 OA
HETATM   23  C   UNL     1     -40.719  54.533 -55.033  1.00  0.00     0.045 C 
BRANCH  20  24
HETATM   24  O   UNL     1     -40.407  52.609 -51.700  1.00  0.00    -0.304 OA
BRANCH  24  25
HETATM   25  C   UNL     1     -40.236  51.805 -50.524  1.00  0.00     0.176 C 
HETATM   26  C   UNL     1     -39.799  50.406 -50.914  1.00  0.00     0.034 C 
ENDBRANCH  24  25
ENDBRANCH  20  24
ENDBRANCH  13  16
ENDBRANCH   1  12
BRANCH   2  27
HETATM   27  C   UNL     1     -44.191  59.469 -55.884  1.00  0.00     0.006 A 
HETATM   28  S   UNL     1     -43.134  60.828 -55.836  1.00  0.00    -0.104 SA
HETATM   29  C   UNL     1     -43.318  60.999 -54.148  1.00  0.00     0.050 A 
HETATM   30  C   UNL     1     -44.154  60.042 -53.620  1.00  0.00     0.008 A 
HETATM   31  C   UNL     1     -44.654  59.156 -54.618  1.00  0.00     0.017 A 
ENDBRANCH   2  27
BRANCH   3  32
HETATM   32  C   UNL     1     -46.685  60.096 -57.256  1.00  0.00     0.153 C 
BRANCH  32  33
HETATM   33  C   UNL     1     -46.323  61.373 -58.024  1.00  0.00     0.187 C 
BRANCH  33  34
HETATM   34  O   UNL     1     -46.112  62.448 -57.108  1.00  0.00    -0.394 OA
HETATM   35  C   UNL     1     -46.397  63.703 -57.716  1.00  0.00     0.201 C 
ENDBRANCH  33  34
ENDBRANCH  32  33
ENDBRANCH   3  32
TORSDOF 8
ENDMDL
MODEL 10
REMARK VINA RESULT:      -6.4      2.317      8.756
REMARK  8 active torsions:
REMARK  status: ('A' for Active; 'I' for Inactive)
REMARK    1  A    between atoms: C_2  and  O_3 
REMARK    2  A    between atoms: O_3  and  C_4 
REMARK       I    between atoms: C_4  and  N_5 
REMARK    3  A    between atoms: C_8  and  N_9 
REMARK       I    between atoms: N_9  and  C_10 
REMARK    4  A    between atoms: C_10  and  C_11 
REMARK    5  A    between atoms: C_12  and  C_13 
REMARK    6  A    between atoms: N_18  and  C_19 
REMARK    7  A    between atoms: C_19  and  C_20 
REMARK    8  A    between atoms: C_20  and  O_21 
ROOT
HETATM    1  C   UNL     1     -43.389  58.763 -56.769  1.00  0.00     0.139 C 
HETATM    2  C   UNL     1     -44.115  58.826 -58.135  1.00  0.00     0.145 C 
HETATM    3  N   UNL     1     -43.544  59.904 -58.972  1.00  0.00    -0.335 N 
HETATM    4  C   UNL     1     -43.354  61.172 -58.410  1.00  0.00     0.255 C 
HETATM    5  O   UNL     1     -43.137  62.176 -59.080  1.00  0.00    -0.267 OA
HETATM    6  C   UNL     1     -43.384  61.281 -56.924  1.00  0.00     0.039 A 
HETATM    7  C   UNL     1     -43.371  60.134 -56.114  1.00  0.00    -0.027 A 
HETATM    8  C   UNL     1     -43.356  62.557 -56.345  1.00  0.00     0.017 A 
HETATM    9  C   UNL     1     -43.293  62.700 -54.961  1.00  0.00     0.001 A 
HETATM   10  C   UNL     1     -43.235  61.569 -54.152  1.00  0.00     0.001 A 
HETATM   11  C   UNL     1     -43.261  60.296 -54.722  1.00  0.00     0.009 A 
ENDROOT
BRANCH   1  12
HETATM   12  C   UNL     1     -43.989  57.681 -55.873  1.00  0.00     0.229 C 
HETATM   13  N   UNL     1     -43.115  56.714 -55.412  1.00  0.00    -0.356 N 
HETATM   14  H   UNL     1     -42.210  56.636 -55.859  1.00  0.00     0.162 HD
HETATM   15  O   UNL     1     -45.193  57.659 -55.621  1.00  0.00    -0.273 OA
BRANCH  13  16
HETATM   16  C   UNL     1     -43.599  55.569 -54.642  1.00  0.00     0.087 C 
HETATM   17  C   UNL     1     -42.857  54.282 -55.032  1.00  0.00     0.045 C 
HETATM   18  C   UNL     1     -41.439  54.251 -54.471  1.00  0.00     0.130 C 
HETATM   19  N   UNL     1     -41.452  54.499 -53.037  1.00  0.00    -0.328 N 
HETATM   20  C   UNL     1     -40.877  53.586 -52.171  1.00  0.00     0.362 C 
HETATM   21  C   UNL     1     -42.082  55.744 -52.608  1.00  0.00     0.130 C 
HETATM   22  O   UNL     1     -40.312  52.561 -52.537  1.00  0.00    -0.238 OA
HETATM   23  C   UNL     1     -43.511  55.833 -53.134  1.00  0.00     0.045 C 
BRANCH  20  24
HETATM   24  O   UNL     1     -41.019  53.946 -50.868  1.00  0.00    -0.304 OA
BRANCH  24  25
HETATM   25  C   UNL     1     -40.236  53.209 -49.917  1.00  0.00     0.176 C 
HETATM   26  C   UNL     1     -40.268  53.907 -48.572  1.00  0.00     0.034 C 
ENDBRANCH  24  25
ENDBRANCH  20  24
ENDBRANCH  13  16
ENDBRANCH   1  12
BRANCH   2  27
HETATM   27  C   UNL     1     -44.105  57.479 -58.826  1.00  0.00     0.006 A 
HETATM   28  S   UNL     1     -45.569  56.866 -59.494  1.00  0.00    -0.104 SA
HETATM   29  C   UNL     1     -44.808  55.433 -60.024  1.00  0.00     0.050 A 
HETATM   30  C   UNL     1     -43.472  55.406 -59.695  1.00  0.00     0.008 A 
HETATM   31  C   UNL     1     -43.066  56.582 -59.001  1.00  0.00     0.017 A 
ENDBRANCH   2  27
BRANCH   3  32
HETATM   32  C   UNL     1     -43.525  59.834 -60.442  1.00  0.00     0.153 C 
BRANCH  32  33
HETATM   33  C   UNL     1     -42.106  59.607 -60.977  1.00  0.00     0.187 C 
BRANCH  33  34
HETATM   34  O   UNL     1     -41.731  60.686 -61.836  1.00  0.00    -0.394 OA
HETATM   35  C   UNL     1     -42.863  61.218 -62.513  1.00  0.00     0.201 C 
ENDBRANCH  33  34
ENDBRANCH  32  33
ENDBRANCH   3  32
TORSDOF 8
ENDMDL
