MODEL 1
REMARK VINA RESULT:     -10.1      0.000      0.000
REMARK  5 active torsions:
REMARK  status: ('A' for Active; 'I' for Inactive)
REMARK    1  A    between atoms: C_4  and  N_5 
REMARK       I    between atoms: N_5  and  C_6 
REMARK    2  A    between atoms: C_6  and  C_7 
REMARK    3  A    between atoms: C_8  and  N_9 
REMARK    4  A    between atoms: N_10  and  N_11 
REMARK    5  A    between atoms: C_12  and  C_13 
ROOT
HETATM    1  C   UNL     1     -43.777  57.037 -55.970  1.00  0.00     0.105 C 
HETATM    2  C   UNL     1     -42.996  55.955 -55.579  1.00  0.00     0.123 C 
HETATM    3  N   UNL     1     -43.173  55.732 -54.220  1.00  0.00    -0.202 N 
HETATM    4  C   UNL     1     -43.864  56.808 -53.695  1.00  0.00     0.183 A 
HETATM    5  C   UNL     1     -44.258  57.615 -54.760  1.00  0.00     0.124 A 
HETATM    6  N   UNL     1     -44.967  58.753 -54.538  1.00  0.00    -0.242 NA
HETATM    7  C   UNL     1     -45.177  59.055 -53.247  1.00  0.00     0.086 A 
HETATM    8  C   UNL     1     -44.745  58.221 -52.184  1.00  0.00     0.088 A 
HETATM    9  N   UNL     1     -44.100  57.061 -52.386  1.00  0.00    -0.225 NA
HETATM   10  C   UNL     1     -45.831  60.243 -52.942  1.00  0.00     0.034 A 
HETATM   11  C   UNL     1     -46.056  60.636 -51.622  1.00  0.00     0.002 A 
HETATM   12  C   UNL     1     -45.630  59.822 -50.583  1.00  0.00     0.002 A 
HETATM   13  C   UNL     1     -44.983  58.619 -50.876  1.00  0.00     0.034 A 
ENDROOT
BRANCH   1  14
HETATM   14  C   UNL     1     -44.024  57.485 -57.345  1.00  0.00     0.262 C 
HETATM   15  N   UNL     1     -45.354  57.792 -57.573  1.00  0.00    -0.323 N 
HETATM   16  H   UNL     1     -45.967  57.653 -56.772  1.00  0.00     0.169 HD
HETATM   17  O   UNL     1     -43.128  57.570 -58.176  1.00  0.00    -0.267 OA
BRANCH  15  18
HETATM   18  C   UNL     1     -45.976  58.250 -58.745  1.00  0.00     0.036 A 
HETATM   19  C   UNL     1     -46.010  59.584 -59.148  1.00  0.00     0.036 A 
HETATM   20  C   UNL     1     -46.675  59.953 -60.329  1.00  0.00    -0.059 A 
HETATM   21  C   UNL     1     -46.717  61.394 -60.746  1.00  0.00     0.048 C 
HETATM   22  C   UNL     1     -47.261  58.963 -61.130  1.00  0.00     0.013 A 
HETATM   23  C   UNL     1     -47.239  57.622 -60.738  1.00  0.00    -0.059 A 
HETATM   24  C   UNL     1     -46.603  57.279 -59.539  1.00  0.00     0.036 A 
HETATM   25  C   UNL     1     -47.817  56.554 -61.617  1.00  0.00     0.048 C 
ENDBRANCH  15  18
ENDBRANCH   1  14
BRANCH   2  26
HETATM   26  N   UNL     1     -42.179  55.120 -56.302  1.00  0.00    -0.286 NA
HETATM   27  H   UNL     1     -42.657  54.332 -56.750  1.00  0.00     0.125 HD
HETATM   28  H   UNL     1     -41.684  55.617 -57.057  1.00  0.00     0.125 HD
ENDBRANCH   2  26
BRANCH   3  29
HETATM   29  N   UNL     1     -42.607  54.644 -53.605  1.00  0.00    -0.176 NA
HETATM   30  C   UNL     1     -41.425  54.838 -53.122  1.00  0.00     0.153 C 
BRANCH  30  31
HETATM   31  C   UNL     1     -40.775  53.738 -52.438  1.00  0.00     0.011 A 
HETATM   32  C   UNL     1     -40.452  52.450 -52.976  1.00  0.00     0.004 A 
HETATM   33  C   UNL     1     -39.809  51.728 -51.967  1.00  0.00     0.043 A 
HETATM   34  C   UNL     1     -40.624  51.835 -54.234  1.00  0.00     0.014 A 
HETATM   35  C   UNL     1     -39.335  50.424 -52.152  1.00  0.00     0.030 A 
HETATM   36  N   UNL     1     -39.755  52.538 -50.858  1.00  0.00    -0.364 N 
HETATM   37  C   UNL     1     -39.516  49.839 -53.408  1.00  0.00     0.002 A 
HETATM   38  C   UNL     1     -40.151  50.533 -54.436  1.00  0.00     0.001 A 
HETATM   39  H   UNL     1     -39.342  52.273 -49.974  1.00  0.00     0.165 HD
HETATM   40  C   UNL     1     -40.322  53.752 -51.131  1.00  0.00     0.102 A 
ENDBRANCH  30  31
ENDBRANCH   3  29
TORSDOF 5
ENDMDL
MODEL 2
REMARK VINA RESULT:     -10.1      2.226      2.942
REMARK  5 active torsions:
REMARK  status: ('A' for Active; 'I' for Inactive)
REMARK    1  A    between atoms: C_4  and  N_5 
REMARK       I    between atoms: N_5  and  C_6 
REMARK    2  A    between atoms: C_6  and  C_7 
REMARK    3  A    between atoms: C_8  and  N_9 
REMARK    4  A    between atoms: N_10  and  N_11 
REMARK    5  A    between atoms: C_12  and  C_13 
ROOT
HETATM    1  C   UNL     1     -42.723  56.957 -55.855  1.00  0.00     0.105 C 
HETATM    2  C   UNL     1     -42.084  55.825 -55.360  1.00  0.00     0.123 C 
HETATM    3  N   UNL     1     -42.613  55.509 -54.116  1.00  0.00    -0.202 N 
HETATM    4  C   UNL     1     -43.405  56.565 -53.706  1.00  0.00     0.183 A 
HETATM    5  C   UNL     1     -43.498  57.460 -54.770  1.00  0.00     0.124 A 
HETATM    6  N   UNL     1     -44.228  58.600 -54.651  1.00  0.00    -0.242 NA
HETATM    7  C   UNL     1     -44.765  58.814 -53.440  1.00  0.00     0.086 A 
HETATM    8  C   UNL     1     -44.635  57.892 -52.371  1.00  0.00     0.088 A 
HETATM    9  N   UNL     1     -43.973  56.730 -52.488  1.00  0.00    -0.225 NA
HETATM   10  C   UNL     1     -45.463  59.997 -53.224  1.00  0.00     0.034 A 
HETATM   11  C   UNL     1     -46.021  60.299 -51.981  1.00  0.00     0.002 A 
HETATM   12  C   UNL     1     -45.890  59.398 -50.934  1.00  0.00     0.002 A 
HETATM   13  C   UNL     1     -45.203  58.201 -51.142  1.00  0.00     0.034 A 
ENDROOT
BRANCH   1  14
HETATM   14  C   UNL     1     -42.597  57.511 -57.207  1.00  0.00     0.262 C 
HETATM   15  N   UNL     1     -42.489  58.891 -57.208  1.00  0.00    -0.323 N 
HETATM   16  H   UNL     1     -42.526  59.322 -56.287  1.00  0.00     0.169 HD
HETATM   17  O   UNL     1     -42.589  56.802 -58.206  1.00  0.00    -0.267 OA
BRANCH  15  18
HETATM   18  C   UNL     1     -42.353  59.775 -58.290  1.00  0.00     0.036 A 
HETATM   19  C   UNL     1     -43.170  59.768 -59.419  1.00  0.00     0.036 A 
HETATM   20  C   UNL     1     -42.946  60.680 -60.465  1.00  0.00    -0.059 A 
HETATM   21  C   UNL     1     -43.824  60.654 -61.681  1.00  0.00     0.048 C 
HETATM   22  C   UNL     1     -41.926  61.633 -60.343  1.00  0.00     0.013 A 
HETATM   23  C   UNL     1     -41.095  61.650 -59.219  1.00  0.00    -0.059 A 
HETATM   24  C   UNL     1     -41.311  60.710 -58.205  1.00  0.00     0.036 A 
HETATM   25  C   UNL     1     -40.038  62.701 -59.061  1.00  0.00     0.048 C 
ENDBRANCH  15  18
ENDBRANCH   1  14
BRANCH   2  26
HETATM   26  N   UNL     1     -41.115  55.020 -55.909  1.00  0.00    -0.286 NA
HETATM   27  H   UNL     1     -41.364  54.602 -56.811  1.00  0.00     0.125 HD
HETATM   28  H   UNL     1     -40.231  55.525 -56.065  1.00  0.00     0.125 HD
ENDBRANCH   2  26
BRANCH   3  29
HETATM   29  N   UNL     1     -42.240  54.363 -53.462  1.00  0.00    -0.176 NA
HETATM   30  C   UNL     1     -41.170  54.462 -52.744  1.00  0.00     0.153 C 
BRANCH  30  31
HETATM   31  C   UNL     1     -40.729  53.295 -52.007  1.00  0.00     0.011 A 
HETATM   32  C   UNL     1     -40.311  52.034 -52.544  1.00  0.00     0.004 A 
HETATM   33  C   UNL     1     -39.949  51.223 -51.467  1.00  0.00     0.043 A 
HETATM   34  C   UNL     1     -40.184  51.512 -53.849  1.00  0.00     0.014 A 
HETATM   35  C   UNL     1     -39.470  49.917 -51.628  1.00  0.00     0.030 A 
HETATM   36  N   UNL     1     -40.151  51.954 -50.321  1.00  0.00    -0.364 N 
HETATM   37  C   UNL     1     -39.352  49.425 -52.931  1.00  0.00     0.002 A 
HETATM   38  C   UNL     1     -39.703  50.209 -54.027  1.00  0.00     0.001 A 
HETATM   39  H   UNL     1     -39.971  51.615 -49.385  1.00  0.00     0.165 HD
HETATM   40  C   UNL     1     -40.608  53.204 -50.632  1.00  0.00     0.102 A 
ENDBRANCH  30  31
ENDBRANCH   3  29
TORSDOF 5
ENDMDL
MODEL 3
REMARK VINA RESULT:     -10.0      2.355      6.966
REMARK  5 active torsions:
REMARK  status: ('A' for Active; 'I' for Inactive)
REMARK    1  A    between atoms: C_4  and  N_5 
REMARK       I    between atoms: N_5  and  C_6 
REMARK    2  A    between atoms: C_6  and  C_7 
REMARK    3  A    between atoms: C_8  and  N_9 
REMARK    4  A    between atoms: N_10  and  N_11 
REMARK    5  A    between atoms: C_12  and  C_13 
ROOT
HETATM    1  C   UNL     1     -44.500  58.316 -52.438  1.00  0.00     0.105 C 
HETATM    2  C   UNL     1     -44.162  57.121 -51.811  1.00  0.00     0.123 C 
HETATM    3  N   UNL     1     -43.492  56.307 -52.714  1.00  0.00    -0.202 N 
HETATM    4  C   UNL     1     -43.616  56.866 -53.971  1.00  0.00     0.183 A 
HETATM    5  C   UNL     1     -44.221  58.112 -53.820  1.00  0.00     0.124 A 
HETATM    6  N   UNL     1     -44.464  58.898 -54.902  1.00  0.00    -0.242 NA
HETATM    7  C   UNL     1     -44.152  58.353 -56.089  1.00  0.00     0.086 A 
HETATM    8  C   UNL     1     -43.555  57.072 -56.210  1.00  0.00     0.088 A 
HETATM    9  N   UNL     1     -43.248  56.309 -55.149  1.00  0.00    -0.225 NA
HETATM   10  C   UNL     1     -44.442  59.069 -57.244  1.00  0.00     0.034 A 
HETATM   11  C   UNL     1     -44.174  58.551 -58.512  1.00  0.00     0.002 A 
HETATM   12  C   UNL     1     -43.594  57.296 -58.630  1.00  0.00     0.002 A 
HETATM   13  C   UNL     1     -43.285  56.572 -57.477  1.00  0.00     0.034 A 
ENDROOT
BRANCH   1  14
HETATM   14  C   UNL     1     -45.047  59.517 -51.795  1.00  0.00     0.262 C 
HETATM   15  N   UNL     1     -44.372  59.851 -50.633  1.00  0.00    -0.323 N 
HETATM   16  H   UNL     1     -43.614  59.220 -50.384  1.00  0.00     0.169 HD
HETATM   17  O   UNL     1     -45.995  60.134 -52.262  1.00  0.00    -0.267 OA
BRANCH  15  18
HETATM   18  C   UNL     1     -44.594  60.918 -49.749  1.00  0.00     0.036 A 
HETATM   19  C   UNL     1     -45.482  60.880 -48.676  1.00  0.00     0.036 A 
HETATM   20  C   UNL     1     -45.654  62.006 -47.853  1.00  0.00    -0.059 A 
HETATM   21  C   UNL     1     -46.623  61.957 -46.710  1.00  0.00     0.048 C 
HETATM   22  C   UNL     1     -44.886  63.155 -48.087  1.00  0.00     0.013 A 
HETATM   23  C   UNL     1     -43.994  63.211 -49.160  1.00  0.00    -0.059 A 
HETATM   24  C   UNL     1     -43.864  62.091 -49.991  1.00  0.00     0.036 A 
HETATM   25  C   UNL     1     -43.132  64.418 -49.382  1.00  0.00     0.048 C 
ENDBRANCH  15  18
ENDBRANCH   1  14
BRANCH   2  26
HETATM   26  N   UNL     1     -44.346  56.694 -50.518  1.00  0.00    -0.286 NA
HETATM   27  H   UNL     1     -43.529  56.800 -49.910  1.00  0.00     0.125 HD
HETATM   28  H   UNL     1     -45.116  57.193 -50.049  1.00  0.00     0.125 HD
ENDBRANCH   2  26
BRANCH   3  29
HETATM   29  N   UNL     1     -42.942  55.116 -52.314  1.00  0.00    -0.176 NA
HETATM   30  C   UNL     1     -41.656  55.118 -52.191  1.00  0.00     0.153 C 
BRANCH  30  31
HETATM   31  C   UNL     1     -41.008  53.899 -51.750  1.00  0.00     0.011 A 
HETATM   32  C   UNL     1     -40.619  52.781 -52.556  1.00  0.00     0.004 A 
HETATM   33  C   UNL     1     -40.006  51.852 -51.712  1.00  0.00     0.043 A 
HETATM   34  C   UNL     1     -40.710  52.478 -53.931  1.00  0.00     0.014 A 
HETATM   35  C   UNL     1     -39.483  50.638 -52.172  1.00  0.00     0.030 A 
HETATM   36  N   UNL     1     -40.032  52.378 -50.442  1.00  0.00    -0.364 N 
HETATM   37  C   UNL     1     -39.584  50.363 -53.538  1.00  0.00     0.002 A 
HETATM   38  C   UNL     1     -40.188  51.269 -54.407  1.00  0.00     0.001 A 
HETATM   39  H   UNL     1     -39.656  51.919 -49.624  1.00  0.00     0.165 HD
HETATM   40  C   UNL     1     -40.621  53.612 -50.453  1.00  0.00     0.102 A 
ENDBRANCH  30  31
ENDBRANCH   3  29
TORSDOF 5
ENDMDL
MODEL 4
REMARK VINA RESULT:     -10.0      3.144      9.011
REMARK  5 active torsions:
REMARK  status: ('A' for Active; 'I' for Inactive)
REMARK    1  A    between atoms: C_4  and  N_5 
REMARK       I    between atoms: N_5  and  C_6 
REMARK    2  A    between atoms: C_6  and  C_7 
REMARK    3  A    between atoms: C_8  and  N_9 
REMARK    4  A    between atoms: N_10  and  N_11 
REMARK    5  A    between atoms: C_12  and  C_13 
ROOT
HETATM    1  C   UNL     1     -43.158  55.933 -55.662  1.00  0.00     0.105 C 
HETATM    2  C   UNL     1     -43.116  56.439 -56.957  1.00  0.00     0.123 C 
HETATM    3  N   UNL     1     -43.397  57.798 -56.925  1.00  0.00    -0.202 N 
HETATM    4  C   UNL     1     -43.859  58.111 -55.660  1.00  0.00     0.183 A 
HETATM    5  C   UNL     1     -43.704  56.979 -54.863  1.00  0.00     0.124 A 
HETATM    6  N   UNL     1     -44.073  56.999 -53.555  1.00  0.00    -0.242 NA
HETATM    7  C   UNL     1     -44.647  58.139 -53.139  1.00  0.00     0.086 A 
HETATM    8  C   UNL     1     -44.808  59.268 -53.982  1.00  0.00     0.088 A 
HETATM    9  N   UNL     1     -44.392  59.289 -55.258  1.00  0.00    -0.225 NA
HETATM   10  C   UNL     1     -45.118  58.206 -51.833  1.00  0.00     0.034 A 
HETATM   11  C   UNL     1     -45.753  59.347 -51.341  1.00  0.00     0.002 A 
HETATM   12  C   UNL     1     -45.913  60.450 -52.168  1.00  0.00     0.002 A 
HETATM   13  C   UNL     1     -45.434  60.401 -53.478  1.00  0.00     0.034 A 
ENDROOT
BRANCH   1  14
HETATM   14  C   UNL     1     -42.741  54.593 -55.233  1.00  0.00     0.262 C 
HETATM   15  N   UNL     1     -41.735  54.628 -54.282  1.00  0.00    -0.323 N 
HETATM   16  H   UNL     1     -41.421  55.562 -54.029  1.00  0.00     0.169 HD
HETATM   17  O   UNL     1     -43.250  53.575 -55.684  1.00  0.00    -0.267 OA
BRANCH  15  18
HETATM   18  C   UNL     1     -41.082  53.567 -53.635  1.00  0.00     0.036 A 
HETATM   19  C   UNL     1     -40.558  52.452 -54.286  1.00  0.00     0.036 A 
HETATM   20  C   UNL     1     -39.937  51.427 -53.552  1.00  0.00    -0.059 A 
HETATM   21  C   UNL     1     -39.388  50.225 -54.262  1.00  0.00     0.048 C 
HETATM   22  C   UNL     1     -39.800  51.557 -52.163  1.00  0.00     0.013 A 
HETATM   23  C   UNL     1     -40.324  52.668 -51.496  1.00  0.00    -0.059 A 
HETATM   24  C   UNL     1     -40.972  53.661 -52.240  1.00  0.00     0.036 A 
HETATM   25  C   UNL     1     -40.133  52.837 -50.018  1.00  0.00     0.048 C 
ENDBRANCH  15  18
ENDBRANCH   1  14
BRANCH   2  26
HETATM   26  N   UNL     1     -42.814  55.837 -58.154  1.00  0.00    -0.286 NA
HETATM   27  H   UNL     1     -42.834  54.813 -58.137  1.00  0.00     0.125 HD
HETATM   28  H   UNL     1     -43.458  56.120 -58.907  1.00  0.00     0.125 HD
ENDBRANCH   2  26
BRANCH   3  29
HETATM   29  N   UNL     1     -43.302  58.564 -58.058  1.00  0.00    -0.176 NA
HETATM   30  C   UNL     1     -42.199  59.224 -58.184  1.00  0.00     0.153 C 
BRANCH  30  31
HETATM   31  C   UNL     1     -42.018  60.038 -59.369  1.00  0.00     0.011 A 
HETATM   32  C   UNL     1     -41.257  61.246 -59.486  1.00  0.00     0.004 A 
HETATM   33  C   UNL     1     -41.344  61.666 -60.815  1.00  0.00     0.043 A 
HETATM   34  C   UNL     1     -40.480  62.013 -58.592  1.00  0.00     0.014 A 
HETATM   35  C   UNL     1     -40.698  62.813 -61.293  1.00  0.00     0.030 A 
HETATM   36  N   UNL     1     -42.137  60.759 -61.477  1.00  0.00    -0.364 N 
HETATM   37  C   UNL     1     -39.934  63.553 -60.386  1.00  0.00     0.002 A 
HETATM   38  C   UNL     1     -39.825  63.160 -59.054  1.00  0.00     0.001 A 
HETATM   39  H   UNL     1     -42.373  60.813 -62.459  1.00  0.00     0.165 HD
HETATM   40  C   UNL     1     -42.538  59.770 -60.623  1.00  0.00     0.102 A 
ENDBRANCH  30  31
ENDBRANCH   3  29
TORSDOF 5
ENDMDL
MODEL 5
REMARK VINA RESULT:      -9.7      1.218      1.866
REMARK  5 active torsions:
REMARK  status: ('A' for Active; 'I' for Inactive)
REMARK    1  A    between atoms: C_4  and  N_5 
REMARK       I    between atoms: N_5  and  C_6 
REMARK    2  A    between atoms: C_6  and  C_7 
REMARK    3  A    between atoms: C_8  and  N_9 
REMARK    4  A    between atoms: N_10  and  N_11 
REMARK    5  A    between atoms: C_12  and  C_13 
ROOT
HETATM    1  C   UNL     1     -43.361  57.011 -55.960  1.00  0.00     0.105 C 
HETATM    2  C   UNL     1     -42.848  55.802 -55.502  1.00  0.00     0.123 C 
HETATM    3  N   UNL     1     -42.707  55.860 -54.122  1.00  0.00    -0.202 N 
HETATM    4  C   UNL     1     -42.890  57.172 -53.726  1.00  0.00     0.183 A 
HETATM    5  C   UNL     1     -43.309  57.894 -54.842  1.00  0.00     0.124 A 
HETATM    6  N   UNL     1     -43.572  59.223 -54.745  1.00  0.00    -0.242 NA
HETATM    7  C   UNL     1     -43.330  59.770 -53.544  1.00  0.00     0.086 A 
HETATM    8  C   UNL     1     -42.885  59.010 -52.432  1.00  0.00     0.088 A 
HETATM    9  N   UNL     1     -42.680  57.685 -52.491  1.00  0.00    -0.225 NA
HETATM   10  C   UNL     1     -43.506  61.141 -53.391  1.00  0.00     0.034 A 
HETATM   11  C   UNL     1     -43.242  61.781 -52.180  1.00  0.00     0.002 A 
HETATM   12  C   UNL     1     -42.803  61.038 -51.094  1.00  0.00     0.002 A 
HETATM   13  C   UNL     1     -42.634  59.659 -51.230  1.00  0.00     0.034 A 
ENDROOT
BRANCH   1  14
HETATM   14  C   UNL     1     -43.831  57.303 -57.319  1.00  0.00     0.262 C 
HETATM   15  N   UNL     1     -45.169  57.657 -57.353  1.00  0.00    -0.323 N 
HETATM   16  H   UNL     1     -45.635  57.651 -56.449  1.00  0.00     0.169 HD
HETATM   17  O   UNL     1     -43.094  57.234 -58.294  1.00  0.00    -0.267 OA
BRANCH  15  18
HETATM   18  C   UNL     1     -45.972  58.004 -58.451  1.00  0.00     0.036 A 
HETATM   19  C   UNL     1     -46.453  57.095 -59.393  1.00  0.00     0.036 A 
HETATM   20  C   UNL     1     -47.235  57.538 -60.473  1.00  0.00    -0.059 A 
HETATM   21  C   UNL     1     -47.735  56.553 -61.488  1.00  0.00     0.048 C 
HETATM   22  C   UNL     1     -47.575  58.894 -60.570  1.00  0.00     0.013 A 
HETATM   23  C   UNL     1     -47.098  59.817 -59.636  1.00  0.00    -0.059 A 
HETATM   24  C   UNL     1     -46.289  59.363 -58.587  1.00  0.00     0.036 A 
HETATM   25  C   UNL     1     -47.503  61.260 -59.705  1.00  0.00     0.048 C 
ENDBRANCH  15  18
ENDBRANCH   1  14
BRANCH   2  26
HETATM   26  N   UNL     1     -42.534  54.642 -56.168  1.00  0.00    -0.286 NA
HETATM   27  H   UNL     1     -42.380  54.753 -57.175  1.00  0.00     0.125 HD
HETATM   28  H   UNL     1     -41.681  54.199 -55.798  1.00  0.00     0.125 HD
ENDBRANCH   2  26
BRANCH   3  29
HETATM   29  N   UNL     1     -42.334  54.752 -53.405  1.00  0.00    -0.176 NA
HETATM   30  C   UNL     1     -41.069  54.655 -53.161  1.00  0.00     0.153 C 
BRANCH  30  31
HETATM   31  C   UNL     1     -40.605  53.521 -52.388  1.00  0.00     0.011 A 
HETATM   32  C   UNL     1     -40.294  52.208 -52.872  1.00  0.00     0.004 A 
HETATM   33  C   UNL     1     -39.860  51.454 -51.780  1.00  0.00     0.043 A 
HETATM   34  C   UNL     1     -40.317  51.595 -54.142  1.00  0.00     0.014 A 
HETATM   35  C   UNL     1     -39.453  50.119 -51.893  1.00  0.00     0.030 A 
HETATM   36  N   UNL     1     -39.918  52.269 -50.674  1.00  0.00    -0.364 N 
HETATM   37  C   UNL     1     -39.484  49.536 -53.162  1.00  0.00     0.002 A 
HETATM   38  C   UNL     1     -39.909  50.262 -54.273  1.00  0.00     0.001 A 
HETATM   39  H   UNL     1     -39.660  51.985 -49.738  1.00  0.00     0.165 HD
HETATM   40  C   UNL     1     -40.353  53.516 -51.028  1.00  0.00     0.102 A 
ENDBRANCH  30  31
ENDBRANCH   3  29
TORSDOF 5
ENDMDL
MODEL 6
REMARK VINA RESULT:      -9.3      3.432      9.125
REMARK  5 active torsions:
REMARK  status: ('A' for Active; 'I' for Inactive)
REMARK    1  A    between atoms: C_4  and  N_5 
REMARK       I    between atoms: N_5  and  C_6 
REMARK    2  A    between atoms: C_6  and  C_7 
REMARK    3  A    between atoms: C_8  and  N_9 
REMARK    4  A    between atoms: N_10  and  N_11 
REMARK    5  A    between atoms: C_12  and  C_13 
ROOT
HETATM    1  C   UNL     1     -42.941  56.998 -54.437  1.00  0.00     0.105 C 
HETATM    2  C   UNL     1     -43.169  57.292 -55.777  1.00  0.00     0.123 C 
HETATM    3  N   UNL     1     -43.081  58.665 -55.965  1.00  0.00    -0.202 N 
HETATM    4  C   UNL     1     -43.045  59.266 -54.721  1.00  0.00     0.183 A 
HETATM    5  C   UNL     1     -42.942  58.256 -53.767  1.00  0.00     0.124 A 
HETATM    6  N   UNL     1     -42.880  58.559 -52.444  1.00  0.00    -0.242 NA
HETATM    7  C   UNL     1     -42.999  59.863 -52.148  1.00  0.00     0.086 A 
HETATM    8  C   UNL     1     -43.123  60.866 -53.143  1.00  0.00     0.088 A 
HETATM    9  N   UNL     1     -43.121  60.592 -54.457  1.00  0.00    -0.225 NA
HETATM   10  C   UNL     1     -43.020  60.240 -50.810  1.00  0.00     0.034 A 
HETATM   11  C   UNL     1     -43.172  61.574 -50.428  1.00  0.00     0.002 A 
HETATM   12  C   UNL     1     -43.297  62.554 -51.402  1.00  0.00     0.002 A 
HETATM   13  C   UNL     1     -43.265  62.190 -52.749  1.00  0.00     0.034 A 
ENDROOT
BRANCH   1  14
HETATM   14  C   UNL     1     -42.760  55.664 -53.853  1.00  0.00     0.262 C 
HETATM   15  N   UNL     1     -41.588  55.558 -53.124  1.00  0.00    -0.323 N 
HETATM   16  H   UNL     1     -41.018  56.401 -53.107  1.00  0.00     0.169 HD
HETATM   17  O   UNL     1     -43.578  54.766 -54.010  1.00  0.00    -0.267 OA
BRANCH  15  18
HETATM   18  C   UNL     1     -41.070  54.458 -52.423  1.00  0.00     0.036 A 
HETATM   19  C   UNL     1     -41.028  54.359 -51.033  1.00  0.00     0.036 A 
HETATM   20  C   UNL     1     -40.471  53.226 -50.417  1.00  0.00    -0.059 A 
HETATM   21  C   UNL     1     -40.419  53.137 -48.920  1.00  0.00     0.048 C 
HETATM   22  C   UNL     1     -40.005  52.168 -51.209  1.00  0.00     0.013 A 
HETATM   23  C   UNL     1     -40.037  52.253 -52.604  1.00  0.00    -0.059 A 
HETATM   24  C   UNL     1     -40.562  53.406 -53.199  1.00  0.00     0.036 A 
HETATM   25  C   UNL     1     -39.589  51.102 -53.455  1.00  0.00     0.048 C 
ENDBRANCH  15  18
ENDBRANCH   1  14
BRANCH   2  26
HETATM   26  N   UNL     1     -43.404  56.473 -56.856  1.00  0.00    -0.286 NA
HETATM   27  H   UNL     1     -44.363  56.501 -57.215  1.00  0.00     0.125 HD
HETATM   28  H   UNL     1     -42.794  56.697 -57.655  1.00  0.00     0.125 HD
ENDBRANCH   2  26
BRANCH   3  29
HETATM   29  N   UNL     1     -43.147  59.209 -57.221  1.00  0.00    -0.176 NA
HETATM   30  C   UNL     1     -42.039  59.704 -57.665  1.00  0.00     0.153 C 
BRANCH  30  31
HETATM   31  C   UNL     1     -42.028  60.277 -58.996  1.00  0.00     0.011 A 
HETATM   32  C   UNL     1     -41.202  61.345 -59.475  1.00  0.00     0.004 A 
HETATM   33  C   UNL     1     -41.515  61.541 -60.822  1.00  0.00     0.043 A 
HETATM   34  C   UNL     1     -40.199  62.152 -58.897  1.00  0.00     0.014 A 
HETATM   35  C   UNL     1     -40.880  62.503 -61.617  1.00  0.00     0.030 A 
HETATM   36  N   UNL     1     -42.500  60.638 -61.146  1.00  0.00    -0.364 N 
HETATM   37  C   UNL     1     -39.889  63.287 -61.020  1.00  0.00     0.002 A 
HETATM   38  C   UNL     1     -39.551  63.115 -59.679  1.00  0.00     0.001 A 
HETATM   39  H   UNL     1     -42.922  60.554 -62.061  1.00  0.00     0.165 HD
HETATM   40  C   UNL     1     -42.808  59.866 -60.061  1.00  0.00     0.102 A 
ENDBRANCH  30  31
ENDBRANCH   3  29
TORSDOF 5
ENDMDL
MODEL 7
REMARK VINA RESULT:      -9.3      3.290      8.775
REMARK  5 active torsions:
REMARK  status: ('A' for Active; 'I' for Inactive)
REMARK    1  A    between atoms: C_4  and  N_5 
REMARK       I    between atoms: N_5  and  C_6 
REMARK    2  A    between atoms: C_6  and  C_7 
REMARK    3  A    between atoms: C_8  and  N_9 
REMARK    4  A    between atoms: N_10  and  N_11 
REMARK    5  A    between atoms: C_12  and  C_13 
ROOT
HETATM    1  C   UNL     1     -44.359  58.028 -51.791  1.00  0.00     0.105 C 
HETATM    2  C   UNL     1     -44.433  58.131 -53.176  1.00  0.00     0.123 C 
HETATM    3  N   UNL     1     -43.775  57.052 -53.750  1.00  0.00    -0.202 N 
HETATM    4  C   UNL     1     -43.074  56.398 -52.754  1.00  0.00     0.183 A 
HETATM    5  C   UNL     1     -43.432  56.975 -51.538  1.00  0.00     0.124 A 
HETATM    6  N   UNL     1     -42.896  56.522 -50.374  1.00  0.00    -0.242 NA
HETATM    7  C   UNL     1     -41.970  55.560 -50.505  1.00  0.00     0.086 A 
HETATM    8  C   UNL     1     -41.612  55.007 -51.762  1.00  0.00     0.088 A 
HETATM    9  N   UNL     1     -42.177  55.396 -52.915  1.00  0.00    -0.225 NA
HETATM   10  C   UNL     1     -41.325  55.101 -49.363  1.00  0.00     0.034 A 
HETATM   11  C   UNL     1     -40.329  54.124 -49.428  1.00  0.00     0.002 A 
HETATM   12  C   UNL     1     -39.977  53.587 -50.658  1.00  0.00     0.002 A 
HETATM   13  C   UNL     1     -40.626  54.030 -51.811  1.00  0.00     0.034 A 
ENDROOT
BRANCH   1  14
HETATM   14  C   UNL     1     -45.076  58.854 -50.813  1.00  0.00     0.262 C 
HETATM   15  N   UNL     1     -44.313  59.912 -50.350  1.00  0.00    -0.323 N 
HETATM   16  H   UNL     1     -43.372  59.960 -50.735  1.00  0.00     0.169 HD
HETATM   17  O   UNL     1     -46.225  58.608 -50.468  1.00  0.00    -0.267 OA
BRANCH  15  18
HETATM   18  C   UNL     1     -44.644  60.910 -49.421  1.00  0.00     0.036 A 
HETATM   19  C   UNL     1     -45.508  60.727 -48.342  1.00  0.00     0.036 A 
HETATM   20  C   UNL     1     -45.797  61.792 -47.473  1.00  0.00    -0.059 A 
HETATM   21  C   UNL     1     -46.740  61.586 -46.325  1.00  0.00     0.048 C 
HETATM   22  C   UNL     1     -45.169  63.030 -47.666  1.00  0.00     0.013 A 
HETATM   23  C   UNL     1     -44.303  63.231 -48.743  1.00  0.00    -0.059 A 
HETATM   24  C   UNL     1     -44.056  62.168 -49.620  1.00  0.00     0.036 A 
HETATM   25  C   UNL     1     -43.588  64.537 -48.922  1.00  0.00     0.048 C 
ENDBRANCH  15  18
ENDBRANCH   1  14
BRANCH   2  26
HETATM   26  N   UNL     1     -45.056  59.053 -53.983  1.00  0.00    -0.286 NA
HETATM   27  H   UNL     1     -45.940  59.417 -53.616  1.00  0.00     0.125 HD
HETATM   28  H   UNL     1     -44.463  59.876 -54.164  1.00  0.00     0.125 HD
ENDBRANCH   2  26
BRANCH   3  29
HETATM   29  N   UNL     1     -43.804  56.849 -55.106  1.00  0.00    -0.176 NA
HETATM   30  C   UNL     1     -42.733  57.199 -55.738  1.00  0.00     0.153 C 
BRANCH  30  31
HETATM   31  C   UNL     1     -42.684  56.993 -57.171  1.00  0.00     0.011 A 
HETATM   32  C   UNL     1     -42.446  57.978 -58.184  1.00  0.00     0.004 A 
HETATM   33  C   UNL     1     -42.461  57.321 -59.416  1.00  0.00     0.043 A 
HETATM   34  C   UNL     1     -42.197  59.367 -58.169  1.00  0.00     0.014 A 
HETATM   35  C   UNL     1     -42.243  57.982 -60.631  1.00  0.00     0.030 A 
HETATM   36  N   UNL     1     -42.711  55.993 -59.165  1.00  0.00    -0.364 N 
HETATM   37  C   UNL     1     -41.996  59.356 -60.587  1.00  0.00     0.002 A 
HETATM   38  C   UNL     1     -41.972  60.041 -59.375  1.00  0.00     0.001 A 
HETATM   39  H   UNL     1     -42.777  55.278 -59.877  1.00  0.00     0.165 HD
HETATM   40  C   UNL     1     -42.835  55.781 -57.821  1.00  0.00     0.102 A 
ENDBRANCH  30  31
ENDBRANCH   3  29
TORSDOF 5
ENDMDL
MODEL 8
REMARK VINA RESULT:      -9.3      2.147      6.580
REMARK  5 active torsions:
REMARK  status: ('A' for Active; 'I' for Inactive)
REMARK    1  A    between atoms: C_4  and  N_5 
REMARK       I    between atoms: N_5  and  C_6 
REMARK    2  A    between atoms: C_6  and  C_7 
REMARK    3  A    between atoms: C_8  and  N_9 
REMARK    4  A    between atoms: N_10  and  N_11 
REMARK    5  A    between atoms: C_12  and  C_13 
ROOT
HETATM    1  C   UNL     1     -44.035  57.763 -54.086  1.00  0.00     0.105 C 
HETATM    2  C   UNL     1     -43.698  56.551 -53.492  1.00  0.00     0.123 C 
HETATM    3  N   UNL     1     -43.089  55.734 -54.435  1.00  0.00    -0.202 N 
HETATM    4  C   UNL     1     -43.256  56.315 -55.678  1.00  0.00     0.183 A 
HETATM    5  C   UNL     1     -43.823  57.572 -55.483  1.00  0.00     0.124 A 
HETATM    6  N   UNL     1     -44.096  58.379 -56.542  1.00  0.00    -0.242 NA
HETATM    7  C   UNL     1     -43.851  57.844 -57.748  1.00  0.00     0.086 A 
HETATM    8  C   UNL     1     -43.291  56.552 -57.914  1.00  0.00     0.088 A 
HETATM    9  N   UNL     1     -42.955  55.766 -56.879  1.00  0.00    -0.225 NA
HETATM   10  C   UNL     1     -44.176  58.584 -58.880  1.00  0.00     0.034 A 
HETATM   11  C   UNL     1     -43.977  58.078 -60.166  1.00  0.00     0.002 A 
HETATM   12  C   UNL     1     -43.434  56.812 -60.327  1.00  0.00     0.002 A 
HETATM   13  C   UNL     1     -43.091  56.064 -59.199  1.00  0.00     0.034 A 
ENDROOT
BRANCH   1  14
HETATM   14  C   UNL     1     -44.523  58.966 -53.403  1.00  0.00     0.262 C 
HETATM   15  N   UNL     1     -43.712  59.344 -52.348  1.00  0.00    -0.323 N 
HETATM   16  H   UNL     1     -42.911  58.736 -52.187  1.00  0.00     0.169 HD
HETATM   17  O   UNL     1     -45.540  59.550 -53.755  1.00  0.00    -0.267 OA
BRANCH  15  18
HETATM   18  C   UNL     1     -43.842  60.427 -51.465  1.00  0.00     0.036 A 
HETATM   19  C   UNL     1     -43.366  61.712 -51.720  1.00  0.00     0.036 A 
HETATM   20  C   UNL     1     -43.525  62.732 -50.767  1.00  0.00    -0.059 A 
HETATM   21  C   UNL     1     -42.996  64.108 -51.048  1.00  0.00     0.048 C 
HETATM   22  C   UNL     1     -44.214  62.464 -49.577  1.00  0.00     0.013 A 
HETATM   23  C   UNL     1     -44.694  61.180 -49.304  1.00  0.00    -0.059 A 
HETATM   24  C   UNL     1     -44.493  60.168 -50.250  1.00  0.00     0.036 A 
HETATM   25  C   UNL     1     -45.477  60.901 -48.056  1.00  0.00     0.048 C 
ENDBRANCH  15  18
ENDBRANCH   1  14
BRANCH   2  26
HETATM   26  N   UNL     1     -43.834  56.109 -52.198  1.00  0.00    -0.286 NA
HETATM   27  H   UNL     1     -43.460  56.744 -51.486  1.00  0.00     0.125 HD
HETATM   28  H   UNL     1     -44.818  55.945 -51.943  1.00  0.00     0.125 HD
ENDBRANCH   2  26
BRANCH   3  29
HETATM   29  N   UNL     1     -42.550  54.525 -54.077  1.00  0.00    -0.176 NA
HETATM   30  C   UNL     1     -41.260  54.466 -54.112  1.00  0.00     0.153 C 
BRANCH  30  31
HETATM   31  C   UNL     1     -40.620  53.225 -53.724  1.00  0.00     0.011 A 
HETATM   32  C   UNL     1     -40.503  52.684 -52.402  1.00  0.00     0.004 A 
HETATM   33  C   UNL     1     -39.836  51.462 -52.511  1.00  0.00     0.043 A 
HETATM   34  C   UNL     1     -40.921  53.107 -51.123  1.00  0.00     0.014 A 
HETATM   35  C   UNL     1     -39.564  50.645 -51.407  1.00  0.00     0.030 A 
HETATM   36  N   UNL     1     -39.547  51.273 -53.841  1.00  0.00    -0.364 N 
HETATM   37  C   UNL     1     -39.991  51.087 -50.152  1.00  0.00     0.002 A 
HETATM   38  C   UNL     1     -40.660  52.300 -50.009  1.00  0.00     0.001 A 
HETATM   39  H   UNL     1     -39.064  50.467 -54.214  1.00  0.00     0.165 HD
HETATM   40  C   UNL     1     -40.023  52.319 -54.581  1.00  0.00     0.102 A 
ENDBRANCH  30  31
ENDBRANCH   3  29
TORSDOF 5
ENDMDL
MODEL 9
REMARK VINA RESULT:      -9.2      2.877      9.482
REMARK  5 active torsions:
REMARK  status: ('A' for Active; 'I' for Inactive)
REMARK    1  A    between atoms: C_4  and  N_5 
REMARK       I    between atoms: N_5  and  C_6 
REMARK    2  A    between atoms: C_6  and  C_7 
REMARK    3  A    between atoms: C_8  and  N_9 
REMARK    4  A    between atoms: N_10  and  N_11 
REMARK    5  A    between atoms: C_12  and  C_13 
ROOT
HETATM    1  C   UNL     1     -42.133  56.546 -54.380  1.00  0.00     0.105 C 
HETATM    2  C   UNL     1     -41.895  57.639 -53.553  1.00  0.00     0.123 C 
HETATM    3  N   UNL     1     -42.147  58.808 -54.257  1.00  0.00    -0.202 N 
HETATM    4  C   UNL     1     -42.304  58.480 -55.591  1.00  0.00     0.183 A 
HETATM    5  C   UNL     1     -42.313  57.090 -55.685  1.00  0.00     0.124 A 
HETATM    6  N   UNL     1     -42.461  56.480 -56.890  1.00  0.00    -0.242 NA
HETATM    7  C   UNL     1     -42.517  57.305 -57.947  1.00  0.00     0.086 A 
HETATM    8  C   UNL     1     -42.484  58.717 -57.820  1.00  0.00     0.088 A 
HETATM    9  N   UNL     1     -42.404  59.339 -56.633  1.00  0.00    -0.225 NA
HETATM   10  C   UNL     1     -42.592  56.749 -59.219  1.00  0.00     0.034 A 
HETATM   11  C   UNL     1     -42.622  57.546 -60.365  1.00  0.00     0.002 A 
HETATM   12  C   UNL     1     -42.586  58.927 -60.239  1.00  0.00     0.002 A 
HETATM   13  C   UNL     1     -42.523  59.499 -58.967  1.00  0.00     0.034 A 
ENDROOT
BRANCH   1  14
HETATM   14  C   UNL     1     -42.166  55.135 -53.978  1.00  0.00     0.262 C 
HETATM   15  N   UNL     1     -40.949  54.694 -53.487  1.00  0.00    -0.323 N 
HETATM   16  H   UNL     1     -40.210  55.394 -53.487  1.00  0.00     0.169 HD
HETATM   17  O   UNL     1     -43.177  54.452 -54.076  1.00  0.00    -0.267 OA
BRANCH  15  18
HETATM   18  C   UNL     1     -40.588  53.425 -53.007  1.00  0.00     0.036 A 
HETATM   19  C   UNL     1     -40.608  53.057 -51.663  1.00  0.00     0.036 A 
HETATM   20  C   UNL     1     -40.209  51.768 -51.272  1.00  0.00    -0.059 A 
HETATM   21  C   UNL     1     -40.222  51.388 -49.821  1.00  0.00     0.048 C 
HETATM   22  C   UNL     1     -39.840  50.833 -52.250  1.00  0.00     0.013 A 
HETATM   23  C   UNL     1     -39.811  51.188 -53.601  1.00  0.00    -0.059 A 
HETATM   24  C   UNL     1     -40.177  52.489 -53.967  1.00  0.00     0.036 A 
HETATM   25  C   UNL     1     -39.468  50.177 -54.654  1.00  0.00     0.048 C 
ENDBRANCH  15  18
ENDBRANCH   1  14
BRANCH   2  26
HETATM   26  N   UNL     1     -41.520  57.709 -52.233  1.00  0.00    -0.286 NA
HETATM   27  H   UNL     1     -40.699  58.293 -52.049  1.00  0.00     0.125 HD
HETATM   28  H   UNL     1     -42.272  58.080 -51.633  1.00  0.00     0.125 HD
ENDBRANCH   2  26
BRANCH   3  29
HETATM   29  N   UNL     1     -42.105  60.028 -53.634  1.00  0.00    -0.176 NA
HETATM   30  C   UNL     1     -43.254  60.578 -53.422  1.00  0.00     0.153 C 
BRANCH  30  31
HETATM   31  C   UNL     1     -43.288  61.860 -52.747  1.00  0.00     0.011 A 
HETATM   32  C   UNL     1     -43.654  62.115 -51.386  1.00  0.00     0.004 A 
HETATM   33  C   UNL     1     -43.512  63.487 -51.167  1.00  0.00     0.043 A 
HETATM   34  C   UNL     1     -44.072  61.305 -50.308  1.00  0.00     0.014 A 
HETATM   35  C   UNL     1     -43.770  64.089 -49.930  1.00  0.00     0.030 A 
HETATM   36  N   UNL     1     -43.090  64.046 -52.350  1.00  0.00    -0.364 N 
HETATM   37  C   UNL     1     -44.180  63.264 -48.879  1.00  0.00     0.002 A 
HETATM   38  C   UNL     1     -44.330  61.892 -49.063  1.00  0.00     0.001 A 
HETATM   39  H   UNL     1     -42.906  65.031 -52.485  1.00  0.00     0.165 HD
HETATM   40  C   UNL     1     -42.941  63.077 -53.303  1.00  0.00     0.102 A 
ENDBRANCH  30  31
ENDBRANCH   3  29
TORSDOF 5
ENDMDL
MODEL 10
REMARK VINA RESULT:      -9.1      3.230      9.528
REMARK  5 active torsions:
REMARK  status: ('A' for Active; 'I' for Inactive)
REMARK    1  A    between atoms: C_4  and  N_5 
REMARK       I    between atoms: N_5  and  C_6 
REMARK    2  A    between atoms: C_6  and  C_7 
REMARK    3  A    between atoms: C_8  and  N_9 
REMARK    4  A    between atoms: N_10  and  N_11 
REMARK    5  A    between atoms: C_12  and  C_13 
ROOT
HETATM    1  C   UNL     1     -42.177  56.667 -52.930  1.00  0.00     0.105 C 
HETATM    2  C   UNL     1     -42.052  57.599 -51.905  1.00  0.00     0.123 C 
HETATM    3  N   UNL     1     -42.271  58.871 -52.416  1.00  0.00    -0.202 N 
HETATM    4  C   UNL     1     -42.289  58.782 -53.795  1.00  0.00     0.183 A 
HETATM    5  C   UNL     1     -42.248  57.430 -54.131  1.00  0.00     0.124 A 
HETATM    6  N   UNL     1     -42.261  57.041 -55.433  1.00  0.00    -0.242 NA
HETATM    7  C   UNL     1     -42.241  58.039 -56.330  1.00  0.00     0.086 A 
HETATM    8  C   UNL     1     -42.263  59.407 -55.955  1.00  0.00     0.088 A 
HETATM    9  N   UNL     1     -42.315  59.810 -54.676  1.00  0.00    -0.225 NA
HETATM   10  C   UNL     1     -42.177  57.716 -57.680  1.00  0.00     0.034 A 
HETATM   11  C   UNL     1     -42.122  58.702 -58.667  1.00  0.00     0.002 A 
HETATM   12  C   UNL     1     -42.139  60.039 -58.299  1.00  0.00     0.002 A 
HETATM   13  C   UNL     1     -42.215  60.378 -56.947  1.00  0.00     0.034 A 
ENDROOT
BRANCH   1  14
HETATM   14  C   UNL     1     -42.206  55.207 -52.785  1.00  0.00     0.262 C 
HETATM   15  N   UNL     1     -40.941  54.646 -52.795  1.00  0.00    -0.323 N 
HETATM   16  H   UNL     1     -40.181  55.312 -52.914  1.00  0.00     0.169 HD
HETATM   17  O   UNL     1     -43.253  54.583 -52.668  1.00  0.00    -0.267 OA
BRANCH  15  18
HETATM   18  C   UNL     1     -40.560  53.300 -52.682  1.00  0.00     0.036 A 
HETATM   19  C   UNL     1     -40.167  52.500 -53.754  1.00  0.00     0.036 A 
HETATM   20  C   UNL     1     -39.822  51.154 -53.548  1.00  0.00    -0.059 A 
HETATM   21  C   UNL     1     -39.413  50.300 -54.711  1.00  0.00     0.048 C 
HETATM   22  C   UNL     1     -39.824  50.631 -52.247  1.00  0.00     0.013 A 
HETATM   23  C   UNL     1     -40.219  51.419 -51.163  1.00  0.00    -0.059 A 
HETATM   24  C   UNL     1     -40.596  52.748 -51.393  1.00  0.00     0.036 A 
HETATM   25  C   UNL     1     -40.173  50.881 -49.764  1.00  0.00     0.048 C 
ENDBRANCH  15  18
ENDBRANCH   1  14
BRANCH   2  26
HETATM   26  N   UNL     1     -41.808  57.440 -50.562  1.00  0.00    -0.286 NA
HETATM   27  H   UNL     1     -42.003  58.266 -49.989  1.00  0.00     0.125 HD
HETATM   28  H   UNL     1     -42.362  56.673 -50.153  1.00  0.00     0.125 HD
ENDBRANCH   2  26
BRANCH   3  29
HETATM   29  N   UNL     1     -42.325  59.962 -51.588  1.00  0.00    -0.176 NA
HETATM   30  C   UNL     1     -43.486  60.519 -51.487  1.00  0.00     0.153 C 
BRANCH  30  31
HETATM   31  C   UNL     1     -43.624  61.665 -50.612  1.00  0.00     0.011 A 
HETATM   32  C   UNL     1     -44.372  61.743 -49.392  1.00  0.00     0.004 A 
HETATM   33  C   UNL     1     -44.194  63.028 -48.876  1.00  0.00     0.043 A 
HETATM   34  C   UNL     1     -45.167  60.832 -48.664  1.00  0.00     0.014 A 
HETATM   35  C   UNL     1     -44.773  63.449 -47.673  1.00  0.00     0.030 A 
HETATM   36  N   UNL     1     -43.382  63.709 -49.751  1.00  0.00    -0.364 N 
HETATM   37  C   UNL     1     -45.554  62.527 -46.970  1.00  0.00     0.002 A 
HETATM   38  C   UNL     1     -45.750  61.237 -47.457  1.00  0.00     0.001 A 
HETATM   39  H   UNL     1     -43.086  64.668 -49.630  1.00  0.00     0.165 HD
HETATM   40  C   UNL     1     -43.024  62.899 -50.792  1.00  0.00     0.102 A 
ENDBRANCH  30  31
ENDBRANCH   3  29
TORSDOF 5
ENDMDL
