MODEL 1
REMARK VINA RESULT:      -7.4      0.000      0.000
REMARK  3 active torsions:
REMARK  status: ('A' for Active; 'I' for Inactive)
REMARK    1  A    between atoms: C_2  and  C_3 
REMARK    2  A    between atoms: C_7  and  N_8 
REMARK       I    between atoms: N_8  and  C_9 
REMARK    3  A    between atoms: C_9  and  C_10 
ROOT
HETATM    1  N   UNL     1     -43.056  55.422 -55.876  1.00  0.00    -0.311 N 
HETATM    2  C   UNL     1     -42.107  55.201 -54.890  1.00  0.00     0.234 C 
HETATM    3  O   UNL     1     -40.975  55.687 -54.907  1.00  0.00    -0.272 OA
HETATM    4  H   UNL     1     -43.975  54.995 -55.804  1.00  0.00     0.170 HD
ENDROOT
BRANCH   2   5
HETATM    5  C   UNL     1     -42.535  54.272 -53.765  1.00  0.00     0.138 C 
HETATM    6  C   UNL     1     -41.510  53.271 -53.370  1.00  0.00    -0.008 A 
HETATM    7  C   UNL     1     -40.962  53.636 -52.149  1.00  0.00     0.076 A 
HETATM    8  C   UNL     1     -41.054  52.153 -54.049  1.00  0.00     0.030 A 
HETATM    9  C   UNL     1     -39.943  52.917 -51.560  1.00  0.00     0.039 A 
HETATM   10  O   UNL     1     -41.493  54.787 -51.632  1.00  0.00    -0.349 OA
HETATM   11  C   UNL     1     -39.475  51.782 -52.226  1.00  0.00     0.022 A 
HETATM   12  C   UNL     1     -40.030  51.407 -53.461  1.00  0.00     0.011 A 
HETATM   13 BR   UNL     1     -39.371  49.872 -54.348  1.00  0.00    -0.051 Br
HETATM   14  C   UNL     1     -42.678  55.022 -52.437  1.00  0.00     0.194 C 
ENDBRANCH   2   5
BRANCH   1  15
HETATM   15  C   UNL     1     -42.815  56.252 -56.951  1.00  0.00     0.126 A 
HETATM   16  N   UNL     1     -42.170  57.460 -56.874  1.00  0.00    -0.262 N 
HETATM   17  N   UNL     1     -42.063  58.089 -58.058  1.00  0.00    -0.178 NA
HETATM   18  H   UNL     1     -41.792  57.893 -56.035  1.00  0.00     0.191 HD
HETATM   19  C   UNL     1     -42.661  57.257 -58.919  1.00  0.00     0.058 A 
HETATM   20  C   UNL     1     -43.144  56.091 -58.274  1.00  0.00     0.079 A 
BRANCH  19  21
HETATM   21  C   UNL     1     -42.761  57.611 -60.365  1.00  0.00     0.056 C 
HETATM   22  C   UNL     1     -42.016  58.896 -60.696  1.00  0.00     0.011 C 
ENDBRANCH  19  21
ENDBRANCH   1  15
TORSDOF 3
ENDMDL
MODEL 2
REMARK VINA RESULT:      -7.1      3.662      5.289
REMARK  3 active torsions:
REMARK  status: ('A' for Active; 'I' for Inactive)
REMARK    1  A    between atoms: C_2  and  C_3 
REMARK    2  A    between atoms: C_7  and  N_8 
REMARK       I    between atoms: N_8  and  C_9 
REMARK    3  A    between atoms: C_9  and  C_10 
ROOT
HETATM    1  N   UNL     1     -41.998  56.509 -52.151  1.00  0.00    -0.311 N 
HETATM    2  C   UNL     1     -41.934  55.276 -52.781  1.00  0.00     0.234 C 
HETATM    3  O   UNL     1     -42.908  54.541 -52.951  1.00  0.00    -0.272 OA
HETATM    4  H   UNL     1     -41.159  57.070 -52.043  1.00  0.00     0.170 HD
ENDROOT
BRANCH   2   5
HETATM    5  C   UNL     1     -40.549  54.846 -53.239  1.00  0.00     0.138 C 
HETATM    6  C   UNL     1     -40.292  53.386 -53.131  1.00  0.00    -0.008 A 
HETATM    7  C   UNL     1     -40.308  52.824 -54.400  1.00  0.00     0.076 A 
HETATM    8  C   UNL     1     -40.106  52.599 -52.007  1.00  0.00     0.030 A 
HETATM    9  C   UNL     1     -40.149  51.469 -54.603  1.00  0.00     0.039 A 
HETATM   10  O   UNL     1     -40.544  53.731 -55.398  1.00  0.00    -0.349 OA
HETATM   11  C   UNL     1     -39.954  50.660 -53.481  1.00  0.00     0.022 A 
HETATM   12  C   UNL     1     -39.933  51.225 -52.195  1.00  0.00     0.011 A 
HETATM   13 BR   UNL     1     -39.678  50.105 -50.692  1.00  0.00    -0.051 Br
HETATM   14  C   UNL     1     -40.375  55.020 -54.751  1.00  0.00     0.194 C 
ENDBRANCH   2   5
BRANCH   1  15
HETATM   15  C   UNL     1     -43.188  57.036 -51.694  1.00  0.00     0.126 A 
HETATM   16  N   UNL     1     -44.180  56.309 -51.086  1.00  0.00    -0.262 N 
HETATM   17  N   UNL     1     -45.249  57.047 -50.736  1.00  0.00    -0.178 NA
HETATM   18  H   UNL     1     -44.170  55.311 -50.895  1.00  0.00     0.191 HD
HETATM   19  C   UNL     1     -44.931  58.284 -51.136  1.00  0.00     0.058 A 
HETATM   20  C   UNL     1     -43.648  58.329 -51.736  1.00  0.00     0.079 A 
BRANCH  19  21
HETATM   21  C   UNL     1     -45.886  59.412 -50.932  1.00  0.00     0.056 C 
HETATM   22  C   UNL     1     -45.205  60.768 -51.031  1.00  0.00     0.011 C 
ENDBRANCH  19  21
ENDBRANCH   1  15
TORSDOF 3
ENDMDL
MODEL 3
REMARK VINA RESULT:      -6.9      3.026      3.713
REMARK  3 active torsions:
REMARK  status: ('A' for Active; 'I' for Inactive)
REMARK    1  A    between atoms: C_2  and  C_3 
REMARK    2  A    between atoms: C_7  and  N_8 
REMARK       I    between atoms: N_8  and  C_9 
REMARK    3  A    between atoms: C_9  and  C_10 
ROOT
HETATM    1  N   UNL     1     -42.082  55.893 -56.983  1.00  0.00    -0.311 N 
HETATM    2  C   UNL     1     -42.167  55.081 -55.862  1.00  0.00     0.234 C 
HETATM    3  O   UNL     1     -43.198  54.508 -55.506  1.00  0.00    -0.272 OA
HETATM    4  H   UNL     1     -41.201  56.335 -57.226  1.00  0.00     0.170 HD
ENDROOT
BRANCH   2   5
HETATM    5  C   UNL     1     -40.889  54.953 -55.048  1.00  0.00     0.138 C 
HETATM    6  C   UNL     1     -41.009  55.410 -53.639  1.00  0.00    -0.008 A 
HETATM    7  C   UNL     1     -41.028  54.305 -52.800  1.00  0.00     0.076 A 
HETATM    8  C   UNL     1     -41.141  56.691 -53.130  1.00  0.00     0.030 A 
HETATM    9  C   UNL     1     -41.185  54.424 -51.435  1.00  0.00     0.039 A 
HETATM   10  O   UNL     1     -40.928  53.111 -53.464  1.00  0.00    -0.349 OA
HETATM   11  C   UNL     1     -41.313  55.709 -50.903  1.00  0.00     0.022 A 
HETATM   12  C   UNL     1     -41.290  56.831 -51.748  1.00  0.00     0.011 A 
HETATM   13 BR   UNL     1     -41.478  58.559 -51.004  1.00  0.00    -0.051 Br
HETATM   14  C   UNL     1     -40.518  53.486 -54.805  1.00  0.00     0.194 C 
ENDBRANCH   2   5
BRANCH   1  15
HETATM   15  C   UNL     1     -43.156  56.092 -57.824  1.00  0.00     0.126 A 
HETATM   16  N   UNL     1     -44.193  56.953 -57.574  1.00  0.00    -0.262 N 
HETATM   17  N   UNL     1     -45.127  56.967 -58.542  1.00  0.00    -0.178 NA
HETATM   18  H   UNL     1     -44.305  57.546 -56.755  1.00  0.00     0.191 HD
HETATM   19  C   UNL     1     -44.673  56.084 -59.438  1.00  0.00     0.058 A 
HETATM   20  C   UNL     1     -43.439  55.513 -59.037  1.00  0.00     0.079 A 
BRANCH  19  21
HETATM   21  C   UNL     1     -45.451  55.800 -60.679  1.00  0.00     0.056 C 
HETATM   22  C   UNL     1     -46.909  56.216 -60.553  1.00  0.00     0.011 C 
ENDBRANCH  19  21
ENDBRANCH   1  15
TORSDOF 3
ENDMDL
MODEL 4
REMARK VINA RESULT:      -6.9      4.164      6.866
REMARK  3 active torsions:
REMARK  status: ('A' for Active; 'I' for Inactive)
REMARK    1  A    between atoms: C_2  and  C_3 
REMARK    2  A    between atoms: C_7  and  N_8 
REMARK       I    between atoms: N_8  and  C_9 
REMARK    3  A    between atoms: C_9  and  C_10 
ROOT
HETATM    1  N   UNL     1     -41.586  54.498 -52.999  1.00  0.00    -0.311 N 
HETATM    2  C   UNL     1     -42.827  54.685 -52.410  1.00  0.00     0.234 C 
HETATM    3  O   UNL     1     -43.394  53.836 -51.720  1.00  0.00    -0.272 OA
HETATM    4  H   UNL     1     -41.170  55.239 -53.555  1.00  0.00     0.170 HD
ENDROOT
BRANCH   2   5
HETATM    5  C   UNL     1     -43.492  56.023 -52.693  1.00  0.00     0.138 C 
HETATM    6  C   UNL     1     -42.577  57.191 -52.623  1.00  0.00    -0.008 A 
HETATM    7  C   UNL     1     -42.317  57.647 -53.907  1.00  0.00     0.076 A 
HETATM    8  C   UNL     1     -41.976  57.782 -51.524  1.00  0.00     0.030 A 
HETATM    9  C   UNL     1     -41.453  58.693 -54.153  1.00  0.00     0.039 A 
HETATM   10  O   UNL     1     -42.956  56.929 -54.883  1.00  0.00    -0.349 OA
HETATM   11  C   UNL     1     -40.843  59.307 -53.056  1.00  0.00     0.022 A 
HETATM   12  C   UNL     1     -41.105  58.852 -51.753  1.00  0.00     0.011 A 
HETATM   13 BR   UNL     1     -40.257  59.691 -50.286  1.00  0.00    -0.051 Br
HETATM   14  C   UNL     1     -43.932  56.137 -54.156  1.00  0.00     0.194 C 
ENDBRANCH   2   5
BRANCH   1  15
HETATM   15  C   UNL     1     -40.859  53.341 -52.820  1.00  0.00     0.126 A 
HETATM   16  N   UNL     1     -40.208  53.000 -51.662  1.00  0.00    -0.262 N 
HETATM   17  N   UNL     1     -39.560  51.824 -51.736  1.00  0.00    -0.178 NA
HETATM   18  H   UNL     1     -40.178  53.541 -50.802  1.00  0.00     0.191 HD
HETATM   19  C   UNL     1     -39.801  51.401 -52.982  1.00  0.00     0.058 A 
HETATM   20  C   UNL     1     -40.615  52.314 -53.699  1.00  0.00     0.079 A 
BRANCH  19  21
HETATM   21  C   UNL     1     -39.231  50.110 -53.465  1.00  0.00     0.056 C 
HETATM   22  C   UNL     1     -39.782  49.709 -54.826  1.00  0.00     0.011 C 
ENDBRANCH  19  21
ENDBRANCH   1  15
TORSDOF 3
ENDMDL
MODEL 5
REMARK VINA RESULT:      -6.6      4.084      7.052
REMARK  3 active torsions:
REMARK  status: ('A' for Active; 'I' for Inactive)
REMARK    1  A    between atoms: C_2  and  C_3 
REMARK    2  A    between atoms: C_7  and  N_8 
REMARK       I    between atoms: N_8  and  C_9 
REMARK    3  A    between atoms: C_9  and  C_10 
ROOT
HETATM    1  N   UNL     1     -42.050  54.884 -53.996  1.00  0.00    -0.311 N 
HETATM    2  C   UNL     1     -43.087  55.406 -53.238  1.00  0.00     0.234 C 
HETATM    3  O   UNL     1     -43.420  54.967 -52.136  1.00  0.00    -0.272 OA
HETATM    4  H   UNL     1     -41.821  55.294 -54.897  1.00  0.00     0.170 HD
ENDROOT
BRANCH   2   5
HETATM    5  C   UNL     1     -43.839  56.568 -53.868  1.00  0.00     0.138 C 
HETATM    6  C   UNL     1     -43.312  57.910 -53.506  1.00  0.00    -0.008 A 
HETATM    7  C   UNL     1     -42.638  58.446 -54.593  1.00  0.00     0.076 A 
HETATM    8  C   UNL     1     -43.375  58.592 -52.302  1.00  0.00     0.030 A 
HETATM    9  C   UNL     1     -41.997  59.665 -54.530  1.00  0.00     0.039 A 
HETATM   10  O   UNL     1     -42.634  57.629 -55.692  1.00  0.00    -0.349 OA
HETATM   11  C   UNL     1     -42.055  60.371 -53.325  1.00  0.00     0.022 A 
HETATM   12  C   UNL     1     -42.740  59.835 -52.223  1.00  0.00     0.011 A 
HETATM   13 BR   UNL     1     -42.794  60.804 -50.600  1.00  0.00    -0.051 Br
HETATM   14  C   UNL     1     -43.631  56.619 -55.385  1.00  0.00     0.194 C 
ENDBRANCH   2   5
BRANCH   1  15
HETATM   15  C   UNL     1     -41.271  53.839 -53.547  1.00  0.00     0.126 A 
HETATM   16  N   UNL     1     -40.740  53.747 -52.287  1.00  0.00    -0.262 N 
HETATM   17  N   UNL     1     -40.008  52.635 -52.091  1.00  0.00    -0.178 NA
HETATM   18  H   UNL     1     -40.848  54.420 -51.532  1.00  0.00     0.191 HD
HETATM   19  C   UNL     1     -40.072  51.998 -53.266  1.00  0.00     0.058 A 
HETATM   20  C   UNL     1     -40.855  52.709 -54.209  1.00  0.00     0.079 A 
BRANCH  19  21
HETATM   21  C   UNL     1     -39.361  50.700 -53.460  1.00  0.00     0.056 C 
HETATM   22  C   UNL     1     -39.927  49.902 -54.624  1.00  0.00     0.011 C 
ENDBRANCH  19  21
ENDBRANCH   1  15
TORSDOF 3
ENDMDL
MODEL 6
REMARK VINA RESULT:      -6.5     14.369     15.312
REMARK  3 active torsions:
REMARK  status: ('A' for Active; 'I' for Inactive)
REMARK    1  A    between atoms: C_2  and  C_3 
REMARK    2  A    between atoms: C_7  and  N_8 
REMARK       I    between atoms: N_8  and  C_9 
REMARK    3  A    between atoms: C_9  and  C_10 
ROOT
HETATM    1  N   UNL     1     -36.490  42.163 -54.201  1.00  0.00    -0.311 N 
HETATM    2  C   UNL     1     -35.567  41.498 -53.409  1.00  0.00     0.234 C 
HETATM    3  O   UNL     1     -34.708  40.734 -53.851  1.00  0.00    -0.272 OA
HETATM    4  H   UNL     1     -37.172  42.784 -53.776  1.00  0.00     0.170 HD
ENDROOT
BRANCH   2   5
HETATM    5  C   UNL     1     -35.690  41.743 -51.913  1.00  0.00     0.138 C 
HETATM    6  C   UNL     1     -36.076  40.544 -51.124  1.00  0.00    -0.008 A 
HETATM    7  C   UNL     1     -34.971  40.084 -50.422  1.00  0.00     0.076 A 
HETATM    8  C   UNL     1     -37.287  39.875 -51.060  1.00  0.00     0.030 A 
HETATM    9  C   UNL     1     -35.019  38.948 -49.642  1.00  0.00     0.039 A 
HETATM   10  O   UNL     1     -33.842  40.833 -50.625  1.00  0.00    -0.349 OA
HETATM   11  C   UNL     1     -36.235  38.264 -49.560  1.00  0.00     0.022 A 
HETATM   12  C   UNL     1     -37.357  38.728 -50.266  1.00  0.00     0.011 A 
HETATM   13 BR   UNL     1     -38.987  37.776 -50.148  1.00  0.00    -0.051 Br
HETATM   14  C   UNL     1     -34.329  42.037 -51.274  1.00  0.00     0.194 C 
ENDBRANCH   2   5
BRANCH   1  15
HETATM   15  C   UNL     1     -36.491  42.049 -55.575  1.00  0.00     0.126 A 
HETATM   16  N   UNL     1     -35.410  42.302 -56.379  1.00  0.00    -0.262 N 
HETATM   17  N   UNL     1     -35.661  42.128 -57.689  1.00  0.00    -0.178 NA
HETATM   18  H   UNL     1     -34.486  42.599 -56.077  1.00  0.00     0.191 HD
HETATM   19  C   UNL     1     -36.946  41.754 -57.723  1.00  0.00     0.058 A 
HETATM   20  C   UNL     1     -37.508  41.685 -56.423  1.00  0.00     0.079 A 
BRANCH  19  21
HETATM   21  C   UNL     1     -37.616  41.471 -59.025  1.00  0.00     0.056 C 
HETATM   22  C   UNL     1     -37.324  42.541 -60.068  1.00  0.00     0.011 C 
ENDBRANCH  19  21
ENDBRANCH   1  15
TORSDOF 3
ENDMDL
MODEL 7
REMARK VINA RESULT:      -6.5      3.379      6.915
REMARK  3 active torsions:
REMARK  status: ('A' for Active; 'I' for Inactive)
REMARK    1  A    between atoms: C_2  and  C_3 
REMARK    2  A    between atoms: C_7  and  N_8 
REMARK       I    between atoms: N_8  and  C_9 
REMARK    3  A    between atoms: C_9  and  C_10 
ROOT
HETATM    1  N   UNL     1     -40.870  55.466 -53.857  1.00  0.00    -0.311 N 
HETATM    2  C   UNL     1     -42.146  56.000 -53.770  1.00  0.00     0.234 C 
HETATM    3  O   UNL     1     -43.112  55.397 -53.299  1.00  0.00    -0.272 OA
HETATM    4  H   UNL     1     -40.114  56.015 -54.254  1.00  0.00     0.170 HD
ENDROOT
BRANCH   2   5
HETATM    5  C   UNL     1     -42.309  57.404 -54.332  1.00  0.00     0.138 C 
HETATM    6  C   UNL     1     -42.942  57.459 -55.675  1.00  0.00    -0.008 A 
HETATM    7  C   UNL     1     -44.241  57.929 -55.549  1.00  0.00     0.076 A 
HETATM    8  C   UNL     1     -42.440  57.080 -56.909  1.00  0.00     0.030 A 
HETATM    9  C   UNL     1     -45.090  58.036 -56.630  1.00  0.00     0.039 A 
HETATM   10  O   UNL     1     -44.596  58.220 -54.258  1.00  0.00    -0.349 OA
HETATM   11  C   UNL     1     -44.598  57.666 -57.885  1.00  0.00     0.022 A 
HETATM   12  C   UNL     1     -43.283  57.192 -58.018  1.00  0.00     0.011 A 
HETATM   13 BR   UNL     1     -42.646  56.686 -59.725  1.00  0.00    -0.051 Br
HETATM   14  C   UNL     1     -43.336  58.215 -53.536  1.00  0.00     0.194 C 
ENDBRANCH   2   5
BRANCH   1  15
HETATM   15  C   UNL     1     -40.569  54.208 -53.377  1.00  0.00     0.126 A 
HETATM   16  N   UNL     1     -40.516  53.874 -52.049  1.00  0.00    -0.262 N 
HETATM   17  N   UNL     1     -40.194  52.586 -51.831  1.00  0.00    -0.178 NA
HETATM   18  H   UNL     1     -40.689  54.492 -51.260  1.00  0.00     0.191 HD
HETATM   19  C   UNL     1     -40.032  52.083 -53.060  1.00  0.00     0.058 A 
HETATM   20  C   UNL     1     -40.262  53.059 -54.062  1.00  0.00     0.079 A 
BRANCH  19  21
HETATM   21  C   UNL     1     -39.650  50.653 -53.247  1.00  0.00     0.056 C 
HETATM   22  C   UNL     1     -40.324  50.029 -54.459  1.00  0.00     0.011 C 
ENDBRANCH  19  21
ENDBRANCH   1  15
TORSDOF 3
ENDMDL
MODEL 8
REMARK VINA RESULT:      -6.3      3.725      7.482
REMARK  3 active torsions:
REMARK  status: ('A' for Active; 'I' for Inactive)
REMARK    1  A    between atoms: C_2  and  C_3 
REMARK    2  A    between atoms: C_7  and  N_8 
REMARK       I    between atoms: N_8  and  C_9 
REMARK    3  A    between atoms: C_9  and  C_10 
ROOT
HETATM    1  N   UNL     1     -41.585  56.411 -55.646  1.00  0.00    -0.311 N 
HETATM    2  C   UNL     1     -42.505  56.316 -56.679  1.00  0.00     0.234 C 
HETATM    3  O   UNL     1     -42.950  55.249 -57.105  1.00  0.00    -0.272 OA
HETATM    4  H   UNL     1     -41.258  57.322 -55.338  1.00  0.00     0.170 HD
ENDROOT
BRANCH   2   5
HETATM    5  C   UNL     1     -42.928  57.637 -57.303  1.00  0.00     0.138 C 
HETATM    6  C   UNL     1     -44.308  57.641 -57.857  1.00  0.00    -0.008 A 
HETATM    7  C   UNL     1     -45.134  58.377 -57.020  1.00  0.00     0.076 A 
HETATM    8  C   UNL     1     -44.814  57.009 -58.980  1.00  0.00     0.030 A 
HETATM    9  C   UNL     1     -46.486  58.509 -57.258  1.00  0.00     0.039 A 
HETATM   10  O   UNL     1     -44.487  58.901 -55.933  1.00  0.00    -0.349 OA
HETATM   11  C   UNL     1     -47.014  57.884 -58.390  1.00  0.00     0.022 A 
HETATM   12  C   UNL     1     -46.180  57.141 -59.242  1.00  0.00     0.011 A 
HETATM   13 BR   UNL     1     -46.922  56.295 -60.762  1.00  0.00    -0.051 Br
HETATM   14  C   UNL     1     -43.079  58.737 -56.247  1.00  0.00     0.194 C 
ENDBRANCH   2   5
BRANCH   1  15
HETATM   15  C   UNL     1     -41.120  55.299 -54.976  1.00  0.00     0.126 A 
HETATM   16  N   UNL     1     -40.456  54.255 -55.566  1.00  0.00    -0.262 N 
HETATM   17  N   UNL     1     -40.109  53.282 -54.705  1.00  0.00    -0.178 NA
HETATM   18  H   UNL     1     -40.222  54.164 -56.552  1.00  0.00     0.191 HD
HETATM   19  C   UNL     1     -40.570  53.717 -53.526  1.00  0.00     0.058 A 
HETATM   20  C   UNL     1     -41.206  54.979 -53.644  1.00  0.00     0.079 A 
BRANCH  19  21
HETATM   21  C   UNL     1     -40.390  52.895 -52.295  1.00  0.00     0.056 C 
HETATM   22  C   UNL     1     -39.583  51.632 -52.558  1.00  0.00     0.011 C 
ENDBRANCH  19  21
ENDBRANCH   1  15
TORSDOF 3
ENDMDL
MODEL 9
REMARK VINA RESULT:      -6.3      3.634      8.008
REMARK  3 active torsions:
REMARK  status: ('A' for Active; 'I' for Inactive)
REMARK    1  A    between atoms: C_2  and  C_3 
REMARK    2  A    between atoms: C_7  and  N_8 
REMARK       I    between atoms: N_8  and  C_9 
REMARK    3  A    between atoms: C_9  and  C_10 
ROOT
HETATM    1  N   UNL     1     -43.496  55.291 -56.481  1.00  0.00    -0.311 N 
HETATM    2  C   UNL     1     -43.042  56.412 -57.159  1.00  0.00     0.234 C 
HETATM    3  O   UNL     1     -42.230  57.214 -56.694  1.00  0.00    -0.272 OA
HETATM    4  H   UNL     1     -44.164  54.666 -56.920  1.00  0.00     0.170 HD
ENDROOT
BRANCH   2   5
HETATM    5  C   UNL     1     -43.638  56.627 -58.541  1.00  0.00     0.138 C 
HETATM    6  C   UNL     1     -43.347  57.958 -59.136  1.00  0.00    -0.008 A 
HETATM    7  C   UNL     1     -42.406  57.813 -60.144  1.00  0.00     0.076 A 
HETATM    8  C   UNL     1     -43.831  59.209 -58.790  1.00  0.00     0.030 A 
HETATM    9  C   UNL     1     -41.904  58.893 -60.839  1.00  0.00     0.039 A 
HETATM   10  O   UNL     1     -42.000  56.518 -60.333  1.00  0.00    -0.349 OA
HETATM   11  C   UNL     1     -42.386  60.162 -60.509  1.00  0.00     0.022 A 
HETATM   12  C   UNL     1     -43.342  60.314 -59.492  1.00  0.00     0.011 A 
HETATM   13 BR   UNL     1     -43.969  62.044 -59.056  1.00  0.00    -0.051 Br
HETATM   14  C   UNL     1     -42.970  55.733 -59.591  1.00  0.00     0.194 C 
ENDBRANCH   2   5
BRANCH   1  15
HETATM   15  C   UNL     1     -43.034  54.960 -55.224  1.00  0.00     0.126 A 
HETATM   16  N   UNL     1     -43.403  55.594 -54.066  1.00  0.00    -0.262 N 
HETATM   17  N   UNL     1     -42.810  55.094 -52.967  1.00  0.00    -0.178 NA
HETATM   18  H   UNL     1     -44.051  56.373 -53.981  1.00  0.00     0.191 HD
HETATM   19  C   UNL     1     -42.036  54.110 -53.439  1.00  0.00     0.058 A 
HETATM   20  C   UNL     1     -42.145  53.984 -54.847  1.00  0.00     0.079 A 
BRANCH  19  21
HETATM   21  C   UNL     1     -41.190  53.304 -52.511  1.00  0.00     0.056 C 
HETATM   22  C   UNL     1     -40.206  52.413 -53.255  1.00  0.00     0.011 C 
ENDBRANCH  19  21
ENDBRANCH   1  15
TORSDOF 3
ENDMDL
MODEL 10
REMARK VINA RESULT:      -6.3     14.887     17.450
REMARK  3 active torsions:
REMARK  status: ('A' for Active; 'I' for Inactive)
REMARK    1  A    between atoms: C_2  and  C_3 
REMARK    2  A    between atoms: C_7  and  N_8 
REMARK       I    between atoms: N_8  and  C_9 
REMARK    3  A    between atoms: C_9  and  C_10 
ROOT
HETATM    1  N   UNL     1     -34.129  41.225 -54.148  1.00  0.00    -0.311 N 
HETATM    2  C   UNL     1     -33.654  40.843 -55.393  1.00  0.00     0.234 C 
HETATM    3  O   UNL     1     -32.660  40.135 -55.561  1.00  0.00    -0.272 OA
HETATM    4  H   UNL     1     -34.956  41.809 -54.075  1.00  0.00     0.170 HD
ENDROOT
BRANCH   2   5
HETATM    5  C   UNL     1     -34.428  41.386 -56.584  1.00  0.00     0.138 C 
HETATM    6  C   UNL     1     -35.535  40.511 -57.048  1.00  0.00    -0.008 A 
HETATM    7  C   UNL     1     -36.748  41.072 -56.676  1.00  0.00     0.076 A 
HETATM    8  C   UNL     1     -35.487  39.291 -57.703  1.00  0.00     0.030 A 
HETATM    9  C   UNL     1     -37.952  40.449 -56.930  1.00  0.00     0.039 A 
HETATM   10  O   UNL     1     -36.620  42.256 -56.001  1.00  0.00    -0.349 OA
HETATM   11  C   UNL     1     -37.924  39.221 -57.596  1.00  0.00     0.022 A 
HETATM   12  C   UNL     1     -36.698  38.651 -57.978  1.00  0.00     0.011 A 
HETATM   13 BR   UNL     1     -36.687  36.982 -58.868  1.00  0.00    -0.051 Br
HETATM   14  C   UNL     1     -35.234  42.635 -56.212  1.00  0.00     0.194 C 
ENDBRANCH   2   5
BRANCH   1  15
HETATM   15  C   UNL     1     -33.537  40.798 -52.977  1.00  0.00     0.126 A 
HETATM   16  N   UNL     1     -32.186  40.795 -52.743  1.00  0.00    -0.262 N 
HETATM   17  N   UNL     1     -31.852  40.324 -51.528  1.00  0.00    -0.178 NA
HETATM   18  H   UNL     1     -31.458  41.099 -53.384  1.00  0.00     0.191 HD
HETATM   19  C   UNL     1     -33.028  40.015 -50.969  1.00  0.00     0.058 A 
HETATM   20  C   UNL     1     -34.114  40.299 -51.835  1.00  0.00     0.079 A 
BRANCH  19  21
HETATM   21  C   UNL     1     -33.082  39.440 -49.593  1.00  0.00     0.056 C 
HETATM   22  C   UNL     1     -31.895  39.867 -48.743  1.00  0.00     0.011 C 
ENDBRANCH  19  21
ENDBRANCH   1  15
TORSDOF 3
ENDMDL
