MODEL 1
REMARK VINA RESULT:      -8.4      0.000      0.000
REMARK  10 active torsions:
REMARK  status: ('A' for Active; 'I' for Inactive)
REMARK    1  A    between atoms: N_2  and  C_3 
REMARK    2  A    between atoms: C_3  and  C_4 
REMARK       I    between atoms: C_4  and  N_5 
REMARK    3  A    between atoms: N_5  and  C_6 
REMARK    4  A    between atoms: C_6  and  C_7 
REMARK    5  A    between atoms: C_7  and  C_8 
REMARK    6  A    between atoms: C_8  and  C_9 
REMARK       I    between atoms: C_9  and  N_10 
REMARK    7  A    between atoms: N_10  and  C_11 
REMARK    8  A    between atoms: C_11  and  C_12 
REMARK    9  A    between atoms: C_12  and  C_13 
REMARK   10  A    between atoms: C_13  and  N_14 
ROOT
HETATM    1  C   UNL     1     -43.167  56.728 -55.905  1.00  0.00     0.235 C 
HETATM    2  N   UNL     1     -43.573  56.153 -57.097  1.00  0.00    -0.360 N 
HETATM    3  O   UNL     1     -42.396  57.681 -55.857  1.00  0.00    -0.272 OA
HETATM    4  H   UNL     1     -44.175  55.338 -57.083  1.00  0.00     0.162 HD
ENDROOT
BRANCH   2   5
HETATM    5  C   UNL     1     -43.110  56.643 -58.378  1.00  0.00     0.123 C 
BRANCH   5   6
HETATM    6  C   UNL     1     -42.986  55.521 -59.405  1.00  0.00     0.029 C 
BRANCH   6   7
HETATM    7  C   UNL     1     -44.253  54.674 -59.441  1.00  0.00     0.104 C 
BRANCH   7   8
HETATM    8  C   UNL     1     -45.204  55.174 -60.503  1.00  0.00     0.217 C 
HETATM    9  N   UNL     1     -46.240  55.950 -60.032  1.00  0.00    -0.361 N 
HETATM   10  H   UNL     1     -46.370  56.009 -59.026  1.00  0.00     0.162 HD
HETATM   11  O   UNL     1     -45.030  54.960 -61.699  1.00  0.00    -0.274 OA
BRANCH   9  12
HETATM   12  C   UNL     1     -47.335  56.368 -60.885  1.00  0.00     0.124 C 
BRANCH  12  13
HETATM   13  C   UNL     1     -47.450  57.888 -61.033  1.00  0.00     0.047 C 
BRANCH  13  14
HETATM   14  C   UNL     1     -46.434  58.638 -60.172  1.00  0.00     0.236 C 
BRANCH  14  15
HETATM   15  N   UNL     1     -45.313  59.260 -61.015  1.00  0.00    -0.071 N 
HETATM   16  H   UNL     1     -45.041  58.547 -61.706  1.00  0.00     0.279 HD
HETATM   17  C   UNL     1     -45.788  60.482 -61.766  1.00  0.00     0.235 C 
HETATM   18  C   UNL     1     -44.724  61.072 -62.685  1.00  0.00     0.028 C 
HETATM   19  C   UNL     1     -43.650  61.850 -61.934  1.00  0.00     0.002 C 
HETATM   20  C   UNL     1     -42.488  61.005 -61.430  1.00  0.00     0.002 C 
HETATM   21  C   UNL     1     -42.829  59.601 -60.942  1.00  0.00     0.028 C 
HETATM   22  C   UNL     1     -44.105  59.503 -60.120  1.00  0.00     0.235 C 
ENDBRANCH  14  15
ENDBRANCH  13  14
ENDBRANCH  12  13
ENDBRANCH   9  12
ENDBRANCH   7   8
ENDBRANCH   6   7
ENDBRANCH   5   6
ENDBRANCH   2   5
BRANCH   1  23
HETATM   23  C   UNL     1     -43.821  56.099 -54.674  1.00  0.00     0.235 C 
BRANCH  23  24
HETATM   24  N   UNL     1     -42.837  55.453 -53.827  1.00  0.00    -0.299 N 
HETATM   25  C   UNL     1     -42.399  56.077 -52.674  1.00  0.00     0.214 A 
HETATM   26  N   UNL     1     -41.570  55.580 -51.815  1.00  0.00    -0.235 NA
HETATM   27  C   UNL     1     -41.114  54.342 -52.134  1.00  0.00     0.115 A 
HETATM   28  C   UNL     1     -41.416  53.620 -53.270  1.00  0.00     0.075 A 
HETATM   29  S   UNL     1     -40.066  53.486 -51.095  1.00  0.00    -0.073 SA
HETATM   30  C   UNL     1     -42.340  54.214 -54.222  1.00  0.00     0.262 A 
HETATM   31  C   UNL     1     -40.746  52.354 -53.306  1.00  0.00    -0.026 A 
HETATM   32  O   UNL     1     -42.666  53.660 -55.271  1.00  0.00    -0.267 OA
HETATM   33  C   UNL     1     -40.006  52.155 -52.154  1.00  0.00    -0.008 A 
HETATM   34  C   UNL     1     -40.826  51.314 -54.383  1.00  0.00     0.041 C 
HETATM   35  C   UNL     1     -39.196  50.935 -51.843  1.00  0.00     0.047 C 
HETATM   36  C   UNL     1     -39.583  49.781 -52.780  1.00  0.00     0.005 C 
HETATM   37  C   UNL     1     -39.724  50.253 -54.234  1.00  0.00     0.005 C 
ENDBRANCH  23  24
ENDBRANCH   1  23
TORSDOF 10
ENDMDL
MODEL 2
REMARK VINA RESULT:      -8.3      3.086      5.334
REMARK  10 active torsions:
REMARK  status: ('A' for Active; 'I' for Inactive)
REMARK    1  A    between atoms: N_2  and  C_3 
REMARK    2  A    between atoms: C_3  and  C_4 
REMARK       I    between atoms: C_4  and  N_5 
REMARK    3  A    between atoms: N_5  and  C_6 
REMARK    4  A    between atoms: C_6  and  C_7 
REMARK    5  A    between atoms: C_7  and  C_8 
REMARK    6  A    between atoms: C_8  and  C_9 
REMARK       I    between atoms: C_9  and  N_10 
REMARK    7  A    between atoms: N_10  and  C_11 
REMARK    8  A    between atoms: C_11  and  C_12 
REMARK    9  A    between atoms: C_12  and  C_13 
REMARK   10  A    between atoms: C_13  and  N_14 
ROOT
HETATM    1  C   UNL     1     -40.941  58.215 -50.768  1.00  0.00     0.235 C 
HETATM    2  N   UNL     1     -42.042  59.008 -50.497  1.00  0.00    -0.360 N 
HETATM    3  O   UNL     1     -39.940  58.641 -51.337  1.00  0.00    -0.272 OA
HETATM    4  H   UNL     1     -42.862  58.599 -50.066  1.00  0.00     0.162 HD
ENDROOT
BRANCH   2   5
HETATM    5  C   UNL     1     -42.086  60.406 -50.870  1.00  0.00     0.123 C 
BRANCH   5   6
HETATM    6  C   UNL     1     -43.185  60.688 -51.891  1.00  0.00     0.029 C 
BRANCH   6   7
HETATM    7  C   UNL     1     -42.590  61.095 -53.233  1.00  0.00     0.104 C 
BRANCH   7   8
HETATM    8  C   UNL     1     -42.347  59.884 -54.103  1.00  0.00     0.217 C 
HETATM    9  N   UNL     1     -43.478  59.352 -54.680  1.00  0.00    -0.361 N 
HETATM   10  H   UNL     1     -44.380  59.708 -54.377  1.00  0.00     0.162 HD
HETATM   11  O   UNL     1     -41.222  59.448 -54.330  1.00  0.00    -0.274 OA
BRANCH   9  12
HETATM   12  C   UNL     1     -43.453  58.095 -55.403  1.00  0.00     0.124 C 
BRANCH  12  13
HETATM   13  C   UNL     1     -43.517  58.261 -56.924  1.00  0.00     0.047 C 
BRANCH  13  14
HETATM   14  C   UNL     1     -44.954  58.312 -57.446  1.00  0.00     0.236 C 
BRANCH  14  15
HETATM   15  N   UNL     1     -45.303  57.078 -58.288  1.00  0.00    -0.071 N 
HETATM   16  H   UNL     1     -45.628  56.359 -57.628  1.00  0.00     0.279 HD
HETATM   17  C   UNL     1     -46.425  57.361 -59.260  1.00  0.00     0.235 C 
HETATM   18  C   UNL     1     -46.858  56.132 -60.050  1.00  0.00     0.028 C 
HETATM   19  C   UNL     1     -45.882  55.759 -61.159  1.00  0.00     0.002 C 
HETATM   20  C   UNL     1     -44.740  54.851 -60.722  1.00  0.00     0.002 C 
HETATM   21  C   UNL     1     -44.180  55.089 -59.324  1.00  0.00     0.028 C 
HETATM   22  C   UNL     1     -44.029  56.552 -58.936  1.00  0.00     0.235 C 
ENDBRANCH  14  15
ENDBRANCH  13  14
ENDBRANCH  12  13
ENDBRANCH   9  12
ENDBRANCH   7   8
ENDBRANCH   6   7
ENDBRANCH   5   6
ENDBRANCH   2   5
BRANCH   1  23
HETATM   23  C   UNL     1     -41.075  56.787 -50.237  1.00  0.00     0.235 C 
BRANCH  23  24
HETATM   24  N   UNL     1     -41.219  55.833 -51.319  1.00  0.00    -0.299 N 
HETATM   25  C   UNL     1     -41.894  56.190 -52.471  1.00  0.00     0.214 A 
HETATM   26  N   UNL     1     -42.040  55.448 -53.520  1.00  0.00    -0.235 NA
HETATM   27  C   UNL     1     -41.474  54.220 -53.417  1.00  0.00     0.115 A 
HETATM   28  C   UNL     1     -40.820  53.704 -52.317  1.00  0.00     0.075 A 
HETATM   29  S   UNL     1     -41.496  53.118 -54.719  1.00  0.00    -0.073 SA
HETATM   30  C   UNL     1     -40.686  54.558 -51.149  1.00  0.00     0.262 A 
HETATM   31  C   UNL     1     -40.361  52.365 -52.534  1.00  0.00    -0.026 A 
HETATM   32  O   UNL     1     -40.132  54.192 -50.113  1.00  0.00    -0.267 OA
HETATM   33  C   UNL     1     -40.643  51.950 -53.824  1.00  0.00    -0.008 A 
HETATM   34  C   UNL     1     -39.624  51.488 -51.566  1.00  0.00     0.041 C 
HETATM   35  C   UNL     1     -40.289  50.615 -54.403  1.00  0.00     0.047 C 
HETATM   36  C   UNL     1     -39.249  49.907 -53.521  1.00  0.00     0.005 C 
HETATM   37  C   UNL     1     -39.596  50.023 -52.030  1.00  0.00     0.005 C 
ENDBRANCH  23  24
ENDBRANCH   1  23
TORSDOF 10
ENDMDL
MODEL 3
REMARK VINA RESULT:      -8.2      1.986      3.685
REMARK  10 active torsions:
REMARK  status: ('A' for Active; 'I' for Inactive)
REMARK    1  A    between atoms: N_2  and  C_3 
REMARK    2  A    between atoms: C_3  and  C_4 
REMARK       I    between atoms: C_4  and  N_5 
REMARK    3  A    between atoms: N_5  and  C_6 
REMARK    4  A    between atoms: C_6  and  C_7 
REMARK    5  A    between atoms: C_7  and  C_8 
REMARK    6  A    between atoms: C_8  and  C_9 
REMARK       I    between atoms: C_9  and  N_10 
REMARK    7  A    between atoms: N_10  and  C_11 
REMARK    8  A    between atoms: C_11  and  C_12 
REMARK    9  A    between atoms: C_12  and  C_13 
REMARK   10  A    between atoms: C_13  and  N_14 
ROOT
HETATM    1  C   UNL     1     -42.993  57.917 -55.269  1.00  0.00     0.235 C 
HETATM    2  N   UNL     1     -43.744  59.072 -55.143  1.00  0.00    -0.360 N 
HETATM    3  O   UNL     1     -41.870  57.907 -55.763  1.00  0.00    -0.272 OA
HETATM    4  H   UNL     1     -44.685  59.022 -54.771  1.00  0.00     0.162 HD
ENDROOT
BRANCH   2   5
HETATM    5  C   UNL     1     -43.249  60.358 -55.589  1.00  0.00     0.123 C 
BRANCH   5   6
HETATM    6  C   UNL     1     -43.427  60.545 -57.093  1.00  0.00     0.029 C 
BRANCH   6   7
HETATM    7  C   UNL     1     -42.078  60.595 -57.799  1.00  0.00     0.104 C 
BRANCH   7   8
HETATM    8  C   UNL     1     -42.090  59.739 -59.044  1.00  0.00     0.217 C 
HETATM    9  N   UNL     1     -41.880  58.396 -58.822  1.00  0.00    -0.361 N 
HETATM   10  H   UNL     1     -41.596  58.106 -57.891  1.00  0.00     0.162 HD
HETATM   11  O   UNL     1     -42.335  60.195 -60.157  1.00  0.00    -0.274 OA
BRANCH   9  12
HETATM   12  C   UNL     1     -41.691  57.459 -59.913  1.00  0.00     0.124 C 
BRANCH  12  13
HETATM   13  C   UNL     1     -42.510  56.173 -59.766  1.00  0.00     0.047 C 
BRANCH  13  14
HETATM   14  C   UNL     1     -43.379  56.175 -58.508  1.00  0.00     0.236 C 
BRANCH  14  15
HETATM   15  N   UNL     1     -44.859  56.412 -58.833  1.00  0.00    -0.071 N 
HETATM   16  H   UNL     1     -45.387  55.695 -58.319  1.00  0.00     0.279 HD
HETATM   17  C   UNL     1     -45.328  57.768 -58.357  1.00  0.00     0.235 C 
HETATM   18  C   UNL     1     -46.818  58.001 -58.583  1.00  0.00     0.028 C 
HETATM   19  C   UNL     1     -47.162  58.301 -60.037  1.00  0.00     0.002 C 
HETATM   20  C   UNL     1     -47.408  57.070 -60.899  1.00  0.00     0.002 C 
HETATM   21  C   UNL     1     -46.542  55.850 -60.605  1.00  0.00     0.028 C 
HETATM   22  C   UNL     1     -45.080  56.157 -60.318  1.00  0.00     0.235 C 
ENDBRANCH  14  15
ENDBRANCH  13  14
ENDBRANCH  12  13
ENDBRANCH   9  12
ENDBRANCH   7   8
ENDBRANCH   6   7
ENDBRANCH   5   6
ENDBRANCH   2   5
BRANCH   1  23
HETATM   23  C   UNL     1     -43.676  56.681 -54.680  1.00  0.00     0.235 C 
BRANCH  23  24
HETATM   24  N   UNL     1     -42.788  55.964 -53.787  1.00  0.00    -0.299 N 
HETATM   25  C   UNL     1     -42.461  56.502 -52.556  1.00  0.00     0.214 A 
HETATM   26  N   UNL     1     -41.727  55.935 -51.655  1.00  0.00    -0.235 NA
HETATM   27  C   UNL     1     -41.253  54.715 -52.010  1.00  0.00     0.115 A 
HETATM   28  C   UNL     1     -41.446  54.075 -53.218  1.00  0.00     0.075 A 
HETATM   29  S   UNL     1     -40.322  53.774 -50.934  1.00  0.00    -0.073 SA
HETATM   30  C   UNL     1     -42.264  54.746 -54.214  1.00  0.00     0.262 A 
HETATM   31  C   UNL     1     -40.787  52.805 -53.274  1.00  0.00    -0.026 A 
HETATM   32  O   UNL     1     -42.489  54.270 -55.326  1.00  0.00    -0.267 OA
HETATM   33  C   UNL     1     -40.168  52.517 -52.071  1.00  0.00    -0.008 A 
HETATM   34  C   UNL     1     -40.768  51.841 -54.422  1.00  0.00     0.041 C 
HETATM   35  C   UNL     1     -39.404  51.267 -51.765  1.00  0.00     0.047 C 
HETATM   36  C   UNL     1     -39.706  50.184 -52.813  1.00  0.00     0.005 C 
HETATM   37  C   UNL     1     -39.696  50.755 -54.237  1.00  0.00     0.005 C 
ENDBRANCH  23  24
ENDBRANCH   1  23
TORSDOF 10
ENDMDL
MODEL 4
REMARK VINA RESULT:      -8.0      3.612      8.864
REMARK  10 active torsions:
REMARK  status: ('A' for Active; 'I' for Inactive)
REMARK    1  A    between atoms: N_2  and  C_3 
REMARK    2  A    between atoms: C_3  and  C_4 
REMARK       I    between atoms: C_4  and  N_5 
REMARK    3  A    between atoms: N_5  and  C_6 
REMARK    4  A    between atoms: C_6  and  C_7 
REMARK    5  A    between atoms: C_7  and  C_8 
REMARK    6  A    between atoms: C_8  and  C_9 
REMARK       I    between atoms: C_9  and  N_10 
REMARK    7  A    between atoms: N_10  and  C_11 
REMARK    8  A    between atoms: C_11  and  C_12 
REMARK    9  A    between atoms: C_12  and  C_13 
REMARK   10  A    between atoms: C_13  and  N_14 
ROOT
HETATM    1  C   UNL     1     -42.475  59.788 -54.122  1.00  0.00     0.235 C 
HETATM    2  N   UNL     1     -42.804  60.929 -53.412  1.00  0.00    -0.360 N 
HETATM    3  O   UNL     1     -42.440  58.674 -53.609  1.00  0.00    -0.272 OA
HETATM    4  H   UNL     1     -42.774  61.832 -53.870  1.00  0.00     0.162 HD
ENDROOT
BRANCH   2   5
HETATM    5  C   UNL     1     -43.131  60.884 -52.003  1.00  0.00     0.123 C 
BRANCH   5   6
HETATM    6  C   UNL     1     -44.605  61.188 -51.751  1.00  0.00     0.029 C 
BRANCH   6   7
HETATM    7  C   UNL     1     -45.483  60.018 -52.179  1.00  0.00     0.104 C 
BRANCH   7   8
HETATM    8  C   UNL     1     -45.365  58.872 -51.201  1.00  0.00     0.217 C 
HETATM    9  N   UNL     1     -44.506  57.868 -51.590  1.00  0.00    -0.361 N 
HETATM   10  H   UNL     1     -44.137  57.897 -52.536  1.00  0.00     0.162 HD
HETATM   11  O   UNL     1     -45.939  58.868 -50.116  1.00  0.00    -0.274 OA
BRANCH   9  12
HETATM   12  C   UNL     1     -44.403  56.621 -50.858  1.00  0.00     0.124 C 
BRANCH  12  13
HETATM   13  C   UNL     1     -43.099  55.862 -51.121  1.00  0.00     0.047 C 
BRANCH  13  14
HETATM   14  C   UNL     1     -43.329  54.370 -51.362  1.00  0.00     0.236 C 
BRANCH  14  15
HETATM   15  N   UNL     1     -42.729  53.904 -52.694  1.00  0.00    -0.071 N 
HETATM   16  H   UNL     1     -43.058  52.941 -52.839  1.00  0.00     0.279 HD
HETATM   17  C   UNL     1     -43.215  54.744 -53.853  1.00  0.00     0.235 C 
HETATM   18  C   UNL     1     -42.709  54.252 -55.204  1.00  0.00     0.028 C 
HETATM   19  C   UNL     1     -41.247  54.600 -55.458  1.00  0.00     0.002 C 
HETATM   20  C   UNL     1     -40.249  53.585 -54.918  1.00  0.00     0.002 C 
HETATM   21  C   UNL     1     -40.606  52.917 -53.595  1.00  0.00     0.028 C 
HETATM   22  C   UNL     1     -41.213  53.845 -52.554  1.00  0.00     0.235 C 
ENDBRANCH  14  15
ENDBRANCH  13  14
ENDBRANCH  12  13
ENDBRANCH   9  12
ENDBRANCH   7   8
ENDBRANCH   6   7
ENDBRANCH   5   6
ENDBRANCH   2   5
BRANCH   1  23
HETATM   23  C   UNL     1     -42.224  60.049 -55.609  1.00  0.00     0.235 C 
BRANCH  23  24
HETATM   24  N   UNL     1     -43.325  59.569 -56.421  1.00  0.00    -0.299 N 
HETATM   25  C   UNL     1     -44.487  60.311 -56.520  1.00  0.00     0.214 A 
HETATM   26  N   UNL     1     -45.511  60.016 -57.253  1.00  0.00    -0.235 NA
HETATM   27  C   UNL     1     -45.381  58.860 -57.951  1.00  0.00     0.115 A 
HETATM   28  C   UNL     1     -44.311  57.990 -57.912  1.00  0.00     0.075 A 
HETATM   29  S   UNL     1     -46.593  58.331 -59.029  1.00  0.00    -0.073 SA
HETATM   30  C   UNL     1     -43.183  58.344 -57.067  1.00  0.00     0.262 A 
HETATM   31  C   UNL     1     -44.505  56.848 -58.755  1.00  0.00    -0.026 A 
HETATM   32  O   UNL     1     -42.185  57.633 -56.952  1.00  0.00    -0.267 OA
HETATM   33  C   UNL     1     -45.702  56.941 -59.443  1.00  0.00    -0.008 A 
HETATM   34  C   UNL     1     -43.565  55.698 -58.958  1.00  0.00     0.041 C 
HETATM   35  C   UNL     1     -46.218  55.937 -60.426  1.00  0.00     0.047 C 
HETATM   36  C   UNL     1     -45.094  54.985 -60.861  1.00  0.00     0.005 C 
HETATM   37  C   UNL     1     -44.252  54.518 -59.665  1.00  0.00     0.005 C 
ENDBRANCH  23  24
ENDBRANCH   1  23
TORSDOF 10
ENDMDL
MODEL 5
REMARK VINA RESULT:      -7.9      2.051      3.931
REMARK  10 active torsions:
REMARK  status: ('A' for Active; 'I' for Inactive)
REMARK    1  A    between atoms: N_2  and  C_3 
REMARK    2  A    between atoms: C_3  and  C_4 
REMARK       I    between atoms: C_4  and  N_5 
REMARK    3  A    between atoms: N_5  and  C_6 
REMARK    4  A    between atoms: C_6  and  C_7 
REMARK    5  A    between atoms: C_7  and  C_8 
REMARK    6  A    between atoms: C_8  and  C_9 
REMARK       I    between atoms: C_9  and  N_10 
REMARK    7  A    between atoms: N_10  and  C_11 
REMARK    8  A    between atoms: C_11  and  C_12 
REMARK    9  A    between atoms: C_12  and  C_13 
REMARK   10  A    between atoms: C_13  and  N_14 
ROOT
HETATM    1  C   UNL     1     -43.297  57.342 -53.966  1.00  0.00     0.235 C 
HETATM    2  N   UNL     1     -43.159  58.703 -53.763  1.00  0.00    -0.360 N 
HETATM    3  O   UNL     1     -44.358  56.749 -53.791  1.00  0.00    -0.272 OA
HETATM    4  H   UNL     1     -42.251  59.138 -53.876  1.00  0.00     0.162 HD
ENDROOT
BRANCH   2   5
HETATM    5  C   UNL     1     -44.267  59.527 -53.327  1.00  0.00     0.123 C 
BRANCH   5   6
HETATM    6  C   UNL     1     -44.595  60.621 -54.340  1.00  0.00     0.029 C 
BRANCH   6   7
HETATM    7  C   UNL     1     -45.484  60.082 -55.454  1.00  0.00     0.104 C 
BRANCH   7   8
HETATM    8  C   UNL     1     -44.651  59.540 -56.592  1.00  0.00     0.217 C 
HETATM    9  N   UNL     1     -43.669  60.393 -57.046  1.00  0.00    -0.361 N 
HETATM   10  H   UNL     1     -43.669  61.347 -56.696  1.00  0.00     0.162 HD
HETATM   11  O   UNL     1     -44.793  58.403 -57.032  1.00  0.00    -0.274 OA
BRANCH   9  12
HETATM   12  C   UNL     1     -42.893  60.106 -58.237  1.00  0.00     0.124 C 
BRANCH  12  13
HETATM   13  C   UNL     1     -43.597  60.504 -59.537  1.00  0.00     0.047 C 
BRANCH  13  14
HETATM   14  C   UNL     1     -43.620  59.369 -60.561  1.00  0.00     0.236 C 
BRANCH  14  15
HETATM   15  N   UNL     1     -44.153  58.063 -59.958  1.00  0.00    -0.071 N 
HETATM   16  H   UNL     1     -44.142  58.189 -58.938  1.00  0.00     0.279 HD
HETATM   17  C   UNL     1     -45.578  57.791 -60.380  1.00  0.00     0.235 C 
HETATM   18  C   UNL     1     -46.170  56.547 -59.727  1.00  0.00     0.028 C 
HETATM   19  C   UNL     1     -45.656  55.249 -60.337  1.00  0.00     0.002 C 
HETATM   20  C   UNL     1     -44.359  54.731 -59.729  1.00  0.00     0.002 C 
HETATM   21  C   UNL     1     -43.336  55.781 -59.312  1.00  0.00     0.028 C 
HETATM   22  C   UNL     1     -43.177  56.940 -60.285  1.00  0.00     0.235 C 
ENDBRANCH  14  15
ENDBRANCH  13  14
ENDBRANCH  12  13
ENDBRANCH   9  12
ENDBRANCH   7   8
ENDBRANCH   6   7
ENDBRANCH   5   6
ENDBRANCH   2   5
BRANCH   1  23
HETATM   23  C   UNL     1     -42.023  56.672 -54.483  1.00  0.00     0.235 C 
BRANCH  23  24
HETATM   24  N   UNL     1     -41.497  55.724 -53.520  1.00  0.00    -0.299 N 
HETATM   25  C   UNL     1     -41.386  56.080 -52.189  1.00  0.00     0.214 A 
HETATM   26  N   UNL     1     -40.985  55.307 -51.232  1.00  0.00    -0.235 NA
HETATM   27  C   UNL     1     -40.644  54.057 -51.633  1.00  0.00     0.115 A 
HETATM   28  C   UNL     1     -40.649  53.576 -52.927  1.00  0.00     0.075 A 
HETATM   29  S   UNL     1     -40.156  52.866 -50.513  1.00  0.00    -0.073 SA
HETATM   30  C   UNL     1     -41.091  54.474 -53.980  1.00  0.00     0.262 A 
HETATM   31  C   UNL     1     -40.209  52.215 -53.004  1.00  0.00    -0.026 A 
HETATM   32  O   UNL     1     -41.122  54.150 -55.166  1.00  0.00    -0.267 OA
HETATM   33  C   UNL     1     -39.944  51.710 -51.743  1.00  0.00    -0.008 A 
HETATM   34  C   UNL     1     -40.076  51.371 -54.236  1.00  0.00     0.041 C 
HETATM   35  C   UNL     1     -39.485  50.316 -51.445  1.00  0.00     0.047 C 
HETATM   36  C   UNL     1     -39.703  49.407 -52.665  1.00  0.00     0.005 C 
HETATM   37  C   UNL     1     -39.267  50.092 -53.968  1.00  0.00     0.005 C 
ENDBRANCH  23  24
ENDBRANCH   1  23
TORSDOF 10
ENDMDL
MODEL 6
REMARK VINA RESULT:      -7.8      3.450      9.358
REMARK  10 active torsions:
REMARK  status: ('A' for Active; 'I' for Inactive)
REMARK    1  A    between atoms: N_2  and  C_3 
REMARK    2  A    between atoms: C_3  and  C_4 
REMARK       I    between atoms: C_4  and  N_5 
REMARK    3  A    between atoms: N_5  and  C_6 
REMARK    4  A    between atoms: C_6  and  C_7 
REMARK    5  A    between atoms: C_7  and  C_8 
REMARK    6  A    between atoms: C_8  and  C_9 
REMARK       I    between atoms: C_9  and  N_10 
REMARK    7  A    between atoms: N_10  and  C_11 
REMARK    8  A    between atoms: C_11  and  C_12 
REMARK    9  A    between atoms: C_12  and  C_13 
REMARK   10  A    between atoms: C_13  and  N_14 
ROOT
HETATM    1  C   UNL     1     -42.322  59.637 -51.903  1.00  0.00     0.235 C 
HETATM    2  N   UNL     1     -43.568  59.196 -52.311  1.00  0.00    -0.360 N 
HETATM    3  O   UNL     1     -42.081  59.969 -50.747  1.00  0.00    -0.272 OA
HETATM    4  H   UNL     1     -43.730  58.976 -53.286  1.00  0.00     0.162 HD
ENDROOT
BRANCH   2   5
HETATM    5  C   UNL     1     -44.682  59.096 -51.391  1.00  0.00     0.123 C 
BRANCH   5   6
HETATM    6  C   UNL     1     -44.971  57.649 -51.001  1.00  0.00     0.029 C 
BRANCH   6   7
HETATM    7  C   UNL     1     -44.026  56.693 -51.720  1.00  0.00     0.104 C 
BRANCH   7   8
HETATM    8  C   UNL     1     -43.320  55.793 -50.733  1.00  0.00     0.217 C 
HETATM    9  N   UNL     1     -42.167  56.321 -50.194  1.00  0.00    -0.361 N 
HETATM   10  H   UNL     1     -41.808  57.184 -50.591  1.00  0.00     0.162 HD
HETATM   11  O   UNL     1     -43.772  54.705 -50.389  1.00  0.00    -0.274 OA
BRANCH   9  12
HETATM   12  C   UNL     1     -41.277  55.531 -49.365  1.00  0.00     0.124 C 
BRANCH  12  13
HETATM   13  C   UNL     1     -40.295  54.672 -50.166  1.00  0.00     0.047 C 
BRANCH  13  14
HETATM   14  C   UNL     1     -40.543  53.175 -49.983  1.00  0.00     0.236 C 
BRANCH  14  15
HETATM   15  N   UNL     1     -40.689  52.448 -51.326  1.00  0.00    -0.071 N 
HETATM   16  H   UNL     1     -41.467  51.784 -51.213  1.00  0.00     0.279 HD
HETATM   17  C   UNL     1     -41.047  53.400 -52.443  1.00  0.00     0.235 C 
HETATM   18  C   UNL     1     -41.289  52.699 -53.775  1.00  0.00     0.028 C 
HETATM   19  C   UNL     1     -40.002  52.251 -54.458  1.00  0.00     0.002 C 
HETATM   20  C   UNL     1     -39.500  50.878 -54.031  1.00  0.00     0.002 C 
HETATM   21  C   UNL     1     -39.701  50.505 -52.566  1.00  0.00     0.028 C 
HETATM   22  C   UNL     1     -39.430  51.629 -51.578  1.00  0.00     0.235 C 
ENDBRANCH  14  15
ENDBRANCH  13  14
ENDBRANCH  12  13
ENDBRANCH   9  12
ENDBRANCH   7   8
ENDBRANCH   6   7
ENDBRANCH   5   6
ENDBRANCH   2   5
BRANCH   1  23
HETATM   23  C   UNL     1     -41.273  59.607 -53.017  1.00  0.00     0.235 C 
BRANCH  23  24
HETATM   24  N   UNL     1     -41.528  58.530 -53.952  1.00  0.00    -0.299 N 
HETATM   25  C   UNL     1     -41.125  57.242 -53.651  1.00  0.00     0.214 A 
HETATM   26  N   UNL     1     -41.343  56.194 -54.378  1.00  0.00    -0.235 NA
HETATM   27  C   UNL     1     -42.016  56.445 -55.529  1.00  0.00     0.115 A 
HETATM   28  C   UNL     1     -42.431  57.678 -55.989  1.00  0.00     0.075 A 
HETATM   29  S   UNL     1     -42.461  55.186 -56.591  1.00  0.00    -0.073 SA
HETATM   30  C   UNL     1     -42.158  58.837 -55.156  1.00  0.00     0.262 A 
HETATM   31  C   UNL     1     -43.096  57.592 -57.255  1.00  0.00    -0.026 A 
HETATM   32  O   UNL     1     -42.475  59.982 -55.477  1.00  0.00    -0.267 OA
HETATM   33  C   UNL     1     -43.202  56.276 -57.667  1.00  0.00    -0.008 A 
HETATM   34  C   UNL     1     -43.670  58.720 -58.058  1.00  0.00     0.041 C 
HETATM   35  C   UNL     1     -43.857  55.813 -58.932  1.00  0.00     0.047 C 
HETATM   36  C   UNL     1     -44.722  56.934 -59.529  1.00  0.00     0.005 C 
HETATM   37  C   UNL     1     -43.999  58.287 -59.496  1.00  0.00     0.005 C 
ENDBRANCH  23  24
ENDBRANCH   1  23
TORSDOF 10
ENDMDL
MODEL 7
REMARK VINA RESULT:      -7.8      3.312      5.805
REMARK  10 active torsions:
REMARK  status: ('A' for Active; 'I' for Inactive)
REMARK    1  A    between atoms: N_2  and  C_3 
REMARK    2  A    between atoms: C_3  and  C_4 
REMARK       I    between atoms: C_4  and  N_5 
REMARK    3  A    between atoms: N_5  and  C_6 
REMARK    4  A    between atoms: C_6  and  C_7 
REMARK    5  A    between atoms: C_7  and  C_8 
REMARK    6  A    between atoms: C_8  and  C_9 
REMARK       I    between atoms: C_9  and  N_10 
REMARK    7  A    between atoms: N_10  and  C_11 
REMARK    8  A    between atoms: C_11  and  C_12 
REMARK    9  A    between atoms: C_12  and  C_13 
REMARK   10  A    between atoms: C_13  and  N_14 
ROOT
HETATM    1  C   UNL     1     -42.730  59.026 -51.622  1.00  0.00     0.235 C 
HETATM    2  N   UNL     1     -43.366  59.782 -50.654  1.00  0.00    -0.360 N 
HETATM    3  O   UNL     1     -41.711  59.401 -52.195  1.00  0.00    -0.272 OA
HETATM    4  H   UNL     1     -44.230  59.450 -50.244  1.00  0.00     0.162 HD
ENDROOT
BRANCH   2   5
HETATM    5  C   UNL     1     -42.867  61.080 -50.249  1.00  0.00     0.123 C 
BRANCH   5   6
HETATM    6  C   UNL     1     -43.755  62.214 -50.753  1.00  0.00     0.029 C 
BRANCH   6   7
HETATM    7  C   UNL     1     -43.170  62.844 -52.011  1.00  0.00     0.104 C 
BRANCH   7   8
HETATM    8  C   UNL     1     -43.738  62.194 -53.252  1.00  0.00     0.217 C 
HETATM    9  N   UNL     1     -42.797  61.661 -54.106  1.00  0.00    -0.361 N 
HETATM   10  H   UNL     1     -41.819  61.863 -53.921  1.00  0.00     0.162 HD
HETATM   11  O   UNL     1     -44.945  62.091 -53.451  1.00  0.00    -0.274 OA
BRANCH   9  12
HETATM   12  C   UNL     1     -43.152  61.154 -55.417  1.00  0.00     0.124 C 
BRANCH  12  13
HETATM   13  C   UNL     1     -42.493  59.814 -55.755  1.00  0.00     0.047 C 
BRANCH  13  14
HETATM   14  C   UNL     1     -41.910  59.789 -57.168  1.00  0.00     0.236 C 
BRANCH  14  15
HETATM   15  N   UNL     1     -41.969  58.388 -57.790  1.00  0.00    -0.071 N 
HETATM   16  H   UNL     1     -40.997  58.055 -57.846  1.00  0.00     0.279 HD
HETATM   17  C   UNL     1     -42.745  57.422 -56.924  1.00  0.00     0.235 C 
HETATM   18  C   UNL     1     -42.747  55.998 -57.468  1.00  0.00     0.028 C 
HETATM   19  C   UNL     1     -43.683  55.813 -58.656  1.00  0.00     0.002 C 
HETATM   20  C   UNL     1     -43.063  56.136 -60.009  1.00  0.00     0.002 C 
HETATM   21  C   UNL     1     -42.080  57.300 -60.047  1.00  0.00     0.028 C 
HETATM   22  C   UNL     1     -42.487  58.508 -59.217  1.00  0.00     0.235 C 
ENDBRANCH  14  15
ENDBRANCH  13  14
ENDBRANCH  12  13
ENDBRANCH   9  12
ENDBRANCH   7   8
ENDBRANCH   6   7
ENDBRANCH   5   6
ENDBRANCH   2   5
BRANCH   1  23
HETATM   23  C   UNL     1     -43.385  57.663 -51.857  1.00  0.00     0.235 C 
BRANCH  23  24
HETATM   24  N   UNL     1     -42.490  56.580 -51.502  1.00  0.00    -0.299 N 
HETATM   25  C   UNL     1     -41.964  56.506 -50.225  1.00  0.00     0.214 A 
HETATM   26  N   UNL     1     -41.202  55.562 -49.777  1.00  0.00    -0.235 NA
HETATM   27  C   UNL     1     -40.918  54.596 -50.686  1.00  0.00     0.115 A 
HETATM   28  C   UNL     1     -41.322  54.562 -52.006  1.00  0.00     0.075 A 
HETATM   29  S   UNL     1     -39.986  53.230 -50.270  1.00  0.00    -0.073 SA
HETATM   30  C   UNL     1     -42.165  55.646 -52.482  1.00  0.00     0.262 A 
HETATM   31  C   UNL     1     -40.826  53.410 -52.698  1.00  0.00    -0.026 A 
HETATM   32  O   UNL     1     -42.570  55.717 -53.642  1.00  0.00    -0.267 OA
HETATM   33  C   UNL     1     -40.111  52.591 -51.843  1.00  0.00    -0.008 A 
HETATM   34  C   UNL     1     -41.052  53.047 -54.135  1.00  0.00     0.041 C 
HETATM   35  C   UNL     1     -39.468  51.293 -52.221  1.00  0.00     0.047 C 
HETATM   36  C   UNL     1     -40.012  50.797 -53.569  1.00  0.00     0.005 C 
HETATM   37  C   UNL     1     -40.099  51.933 -54.598  1.00  0.00     0.005 C 
ENDBRANCH  23  24
ENDBRANCH   1  23
TORSDOF 10
ENDMDL
MODEL 8
REMARK VINA RESULT:      -7.7      2.406      5.010
REMARK  10 active torsions:
REMARK  status: ('A' for Active; 'I' for Inactive)
REMARK    1  A    between atoms: N_2  and  C_3 
REMARK    2  A    between atoms: C_3  and  C_4 
REMARK       I    between atoms: C_4  and  N_5 
REMARK    3  A    between atoms: N_5  and  C_6 
REMARK    4  A    between atoms: C_6  and  C_7 
REMARK    5  A    between atoms: C_7  and  C_8 
REMARK    6  A    between atoms: C_8  and  C_9 
REMARK       I    between atoms: C_9  and  N_10 
REMARK    7  A    between atoms: N_10  and  C_11 
REMARK    8  A    between atoms: C_11  and  C_12 
REMARK    9  A    between atoms: C_12  and  C_13 
REMARK   10  A    between atoms: C_13  and  N_14 
ROOT
HETATM    1  C   UNL     1     -42.994  56.350 -56.085  1.00  0.00     0.235 C 
HETATM    2  N   UNL     1     -43.595  55.635 -57.105  1.00  0.00    -0.360 N 
HETATM    3  O   UNL     1     -42.096  57.163 -56.283  1.00  0.00    -0.272 OA
HETATM    4  H   UNL     1     -44.300  54.941 -56.885  1.00  0.00     0.162 HD
ENDROOT
BRANCH   2   5
HETATM    5  C   UNL     1     -43.201  55.799 -58.488  1.00  0.00     0.123 C 
BRANCH   5   6
HETATM    6  C   UNL     1     -44.346  56.329 -59.347  1.00  0.00     0.029 C 
BRANCH   6   7
HETATM    7  C   UNL     1     -43.953  57.632 -60.033  1.00  0.00     0.104 C 
BRANCH   7   8
HETATM    8  C   UNL     1     -43.756  58.735 -59.020  1.00  0.00     0.217 C 
HETATM    9  N   UNL     1     -44.845  58.979 -58.213  1.00  0.00    -0.361 N 
HETATM   10  H   UNL     1     -45.720  58.519 -58.443  1.00  0.00     0.162 HD
HETATM   11  O   UNL     1     -42.687  59.323 -58.882  1.00  0.00    -0.274 OA
BRANCH   9  12
HETATM   12  C   UNL     1     -44.890  60.110 -57.306  1.00  0.00     0.124 C 
BRANCH  12  13
HETATM   13  C   UNL     1     -44.892  59.710 -55.828  1.00  0.00     0.047 C 
BRANCH  13  14
HETATM   14  C   UNL     1     -43.576  60.050 -55.128  1.00  0.00     0.236 C 
BRANCH  14  15
HETATM   15  N   UNL     1     -43.595  59.658 -53.645  1.00  0.00    -0.071 N 
HETATM   16  H   UNL     1     -43.028  58.804 -53.565  1.00  0.00     0.279 HD
HETATM   17  C   UNL     1     -42.966  60.721 -52.775  1.00  0.00     0.235 C 
HETATM   18  C   UNL     1     -42.886  60.324 -51.306  1.00  0.00     0.028 C 
HETATM   19  C   UNL     1     -44.228  60.415 -50.588  1.00  0.00     0.002 C 
HETATM   20  C   UNL     1     -45.091  59.165 -50.693  1.00  0.00     0.002 C 
HETATM   21  C   UNL     1     -45.036  58.409 -52.016  1.00  0.00     0.028 C 
HETATM   22  C   UNL     1     -45.021  59.291 -53.256  1.00  0.00     0.235 C 
ENDBRANCH  14  15
ENDBRANCH  13  14
ENDBRANCH  12  13
ENDBRANCH   9  12
ENDBRANCH   7   8
ENDBRANCH   6   7
ENDBRANCH   5   6
ENDBRANCH   2   5
BRANCH   1  23
HETATM   23  C   UNL     1     -43.600  56.071 -54.708  1.00  0.00     0.235 C 
BRANCH  23  24
HETATM   24  N   UNL     1     -42.647  55.412 -53.836  1.00  0.00    -0.299 N 
HETATM   25  C   UNL     1     -42.206  56.044 -52.689  1.00  0.00     0.214 A 
HETATM   26  N   UNL     1     -41.403  55.539 -51.810  1.00  0.00    -0.235 NA
HETATM   27  C   UNL     1     -40.980  54.283 -52.099  1.00  0.00     0.115 A 
HETATM   28  C   UNL     1     -41.288  53.549 -53.227  1.00  0.00     0.075 A 
HETATM   29  S   UNL     1     -39.972  53.415 -51.031  1.00  0.00    -0.073 SA
HETATM   30  C   UNL     1     -42.181  54.152 -54.202  1.00  0.00     0.262 A 
HETATM   31  C   UNL     1     -40.655  52.264 -53.231  1.00  0.00    -0.026 A 
HETATM   32  O   UNL     1     -42.509  53.589 -55.246  1.00  0.00    -0.267 OA
HETATM   33  C   UNL     1     -39.937  52.064 -52.066  1.00  0.00    -0.008 A 
HETATM   34  C   UNL     1     -40.751  51.207 -54.290  1.00  0.00     0.041 C 
HETATM   35  C   UNL     1     -39.167  50.827 -51.722  1.00  0.00     0.047 C 
HETATM   36  C   UNL     1     -39.575  49.668 -52.644  1.00  0.00     0.005 C 
HETATM   37  C   UNL     1     -39.682  50.117 -54.107  1.00  0.00     0.005 C 
ENDBRANCH  23  24
ENDBRANCH   1  23
TORSDOF 10
ENDMDL
MODEL 9
REMARK VINA RESULT:      -7.5      2.242      3.942
REMARK  10 active torsions:
REMARK  status: ('A' for Active; 'I' for Inactive)
REMARK    1  A    between atoms: N_2  and  C_3 
REMARK    2  A    between atoms: C_3  and  C_4 
REMARK       I    between atoms: C_4  and  N_5 
REMARK    3  A    between atoms: N_5  and  C_6 
REMARK    4  A    between atoms: C_6  and  C_7 
REMARK    5  A    between atoms: C_7  and  C_8 
REMARK    6  A    between atoms: C_8  and  C_9 
REMARK       I    between atoms: C_9  and  N_10 
REMARK    7  A    between atoms: N_10  and  C_11 
REMARK    8  A    between atoms: C_11  and  C_12 
REMARK    9  A    between atoms: C_12  and  C_13 
REMARK   10  A    between atoms: C_13  and  N_14 
ROOT
HETATM    1  C   UNL     1     -43.203  57.006 -52.660  1.00  0.00     0.235 C 
HETATM    2  N   UNL     1     -43.307  57.736 -53.831  1.00  0.00    -0.360 N 
HETATM    3  O   UNL     1     -44.112  56.299 -52.235  1.00  0.00    -0.272 OA
HETATM    4  H   UNL     1     -42.547  58.341 -54.115  1.00  0.00     0.162 HD
ENDROOT
BRANCH   2   5
HETATM    5  C   UNL     1     -44.507  57.712 -54.641  1.00  0.00     0.123 C 
BRANCH   5   6
HETATM    6  C   UNL     1     -44.225  58.110 -56.087  1.00  0.00     0.029 C 
BRANCH   6   7
HETATM    7  C   UNL     1     -42.743  58.404 -56.291  1.00  0.00     0.104 C 
BRANCH   7   8
HETATM    8  C   UNL     1     -42.553  59.634 -57.148  1.00  0.00     0.217 C 
HETATM    9  N   UNL     1     -43.703  60.111 -57.736  1.00  0.00    -0.361 N 
HETATM   10  H   UNL     1     -44.541  59.540 -57.675  1.00  0.00     0.162 HD
HETATM   11  O   UNL     1     -41.470  60.202 -57.257  1.00  0.00    -0.274 OA
BRANCH   9  12
HETATM   12  C   UNL     1     -43.676  61.175 -58.721  1.00  0.00     0.124 C 
BRANCH  12  13
HETATM   13  C   UNL     1     -43.270  60.704 -60.121  1.00  0.00     0.047 C 
BRANCH  13  14
HETATM   14  C   UNL     1     -44.349  59.849 -60.786  1.00  0.00     0.236 C 
BRANCH  14  15
HETATM   15  N   UNL     1     -44.009  58.354 -60.736  1.00  0.00    -0.071 N 
HETATM   16  H   UNL     1     -44.069  58.011 -61.703  1.00  0.00     0.279 HD
HETATM   17  C   UNL     1     -42.601  58.115 -60.242  1.00  0.00     0.235 C 
HETATM   18  C   UNL     1     -42.199  56.645 -60.265  1.00  0.00     0.028 C 
HETATM   19  C   UNL     1     -42.821  55.836 -59.132  1.00  0.00     0.002 C 
HETATM   20  C   UNL     1     -44.204  55.276 -59.436  1.00  0.00     0.002 C 
HETATM   21  C   UNL     1     -45.123  56.154 -60.279  1.00  0.00     0.028 C 
HETATM   22  C   UNL     1     -45.086  57.635 -59.934  1.00  0.00     0.235 C 
ENDBRANCH  14  15
ENDBRANCH  13  14
ENDBRANCH  12  13
ENDBRANCH   9  12
ENDBRANCH   7   8
ENDBRANCH   6   7
ENDBRANCH   5   6
ENDBRANCH   2   5
BRANCH   1  23
HETATM   23  C   UNL     1     -41.832  57.123 -51.991  1.00  0.00     0.235 C 
BRANCH  23  24
HETATM   24  N   UNL     1     -41.384  55.843 -51.480  1.00  0.00    -0.299 N 
HETATM   25  C   UNL     1     -41.357  55.613 -50.117  1.00  0.00     0.214 A 
HETATM   26  N   UNL     1     -41.030  54.499 -49.546  1.00  0.00    -0.235 NA
HETATM   27  C   UNL     1     -40.680  53.513 -50.409  1.00  0.00     0.115 A 
HETATM   28  C   UNL     1     -40.605  53.609 -51.784  1.00  0.00     0.075 A 
HETATM   29  S   UNL     1     -40.283  51.948 -49.858  1.00  0.00    -0.073 SA
HETATM   30  C   UNL     1     -40.965  54.879 -52.393  1.00  0.00     0.262 A 
HETATM   31  C   UNL     1     -40.179  52.385 -52.393  1.00  0.00    -0.026 A 
HETATM   32  O   UNL     1     -40.921  55.074 -53.607  1.00  0.00    -0.267 OA
HETATM   33  C   UNL     1     -40.005  51.395 -51.443  1.00  0.00    -0.008 A 
HETATM   34  C   UNL     1     -39.976  52.121 -53.855  1.00  0.00     0.041 C 
HETATM   35  C   UNL     1     -39.585  49.986 -51.725  1.00  0.00     0.047 C 
HETATM   36  C   UNL     1     -39.734  49.671 -53.221  1.00  0.00     0.005 C 
HETATM   37  C   UNL     1     -39.203  50.814 -54.097  1.00  0.00     0.005 C 
ENDBRANCH  23  24
ENDBRANCH   1  23
TORSDOF 10
ENDMDL
MODEL 10
REMARK VINA RESULT:      -7.4      3.373      9.396
REMARK  10 active torsions:
REMARK  status: ('A' for Active; 'I' for Inactive)
REMARK    1  A    between atoms: N_2  and  C_3 
REMARK    2  A    between atoms: C_3  and  C_4 
REMARK       I    between atoms: C_4  and  N_5 
REMARK    3  A    between atoms: N_5  and  C_6 
REMARK    4  A    between atoms: C_6  and  C_7 
REMARK    5  A    between atoms: C_7  and  C_8 
REMARK    6  A    between atoms: C_8  and  C_9 
REMARK       I    between atoms: C_9  and  N_10 
REMARK    7  A    between atoms: N_10  and  C_11 
REMARK    8  A    between atoms: C_11  and  C_12 
REMARK    9  A    between atoms: C_12  and  C_13 
REMARK   10  A    between atoms: C_13  and  N_14 
ROOT
HETATM    1  C   UNL     1     -42.156  54.956 -54.432  1.00  0.00     0.235 C 
HETATM    2  N   UNL     1     -41.077  54.830 -55.289  1.00  0.00    -0.360 N 
HETATM    3  O   UNL     1     -42.290  54.264 -53.427  1.00  0.00    -0.272 OA
HETATM    4  H   UNL     1     -41.034  55.392 -56.130  1.00  0.00     0.162 HD
ENDROOT
BRANCH   2   5
HETATM    5  C   UNL     1     -40.024  53.863 -55.054  1.00  0.00     0.123 C 
BRANCH   5   6
HETATM    6  C   UNL     1     -40.574  52.539 -54.532  1.00  0.00     0.029 C 
BRANCH   6   7
HETATM    7  C   UNL     1     -39.479  51.725 -53.852  1.00  0.00     0.104 C 
BRANCH   7   8
HETATM    8  C   UNL     1     -39.637  51.762 -52.350  1.00  0.00     0.217 C 
HETATM    9  N   UNL     1     -40.128  52.948 -51.850  1.00  0.00    -0.361 N 
HETATM   10  H   UNL     1     -40.209  53.735 -52.487  1.00  0.00     0.162 HD
HETATM   11  O   UNL     1     -39.408  50.790 -51.637  1.00  0.00    -0.274 OA
BRANCH   9  12
HETATM   12  C   UNL     1     -40.181  53.218 -50.427  1.00  0.00     0.124 C 
BRANCH  12  13
HETATM   13  C   UNL     1     -40.571  54.660 -50.090  1.00  0.00     0.047 C 
BRANCH  13  14
HETATM   14  C   UNL     1     -42.082  54.838 -49.944  1.00  0.00     0.236 C 
BRANCH  14  15
HETATM   15  N   UNL     1     -42.522  56.280 -50.233  1.00  0.00    -0.071 N 
HETATM   16  H   UNL     1     -42.799  56.684 -49.329  1.00  0.00     0.279 HD
HETATM   17  C   UNL     1     -41.389  57.111 -50.789  1.00  0.00     0.235 C 
HETATM   18  C   UNL     1     -41.766  58.572 -51.003  1.00  0.00     0.028 C 
HETATM   19  C   UNL     1     -42.639  58.791 -52.233  1.00  0.00     0.002 C 
HETATM   20  C   UNL     1     -44.133  58.628 -51.989  1.00  0.00     0.002 C 
HETATM   21  C   UNL     1     -44.547  57.544 -51.000  1.00  0.00     0.028 C 
HETATM   22  C   UNL     1     -43.765  56.244 -51.112  1.00  0.00     0.235 C 
ENDBRANCH  14  15
ENDBRANCH  13  14
ENDBRANCH  12  13
ENDBRANCH   9  12
ENDBRANCH   7   8
ENDBRANCH   6   7
ENDBRANCH   5   6
ENDBRANCH   2   5
BRANCH   1  23
HETATM   23  C   UNL     1     -43.119  56.076 -54.830  1.00  0.00     0.235 C 
BRANCH  23  24
HETATM   24  N   UNL     1     -42.915  56.483 -56.206  1.00  0.00    -0.299 N 
HETATM   25  C   UNL     1     -43.137  55.586 -57.233  1.00  0.00     0.214 A 
HETATM   26  N   UNL     1     -43.042  55.846 -58.497  1.00  0.00    -0.235 NA
HETATM   27  C   UNL     1     -42.676  57.123 -58.776  1.00  0.00     0.115 A 
HETATM   28  C   UNL     1     -42.369  58.111 -57.862  1.00  0.00     0.075 A 
HETATM   29  S   UNL     1     -42.563  57.685 -60.383  1.00  0.00    -0.073 SA
HETATM   30  C   UNL     1     -42.472  57.780 -56.451  1.00  0.00     0.262 A 
HETATM   31  C   UNL     1     -41.999  59.341 -58.494  1.00  0.00    -0.026 A 
HETATM   32  O   UNL     1     -42.209  58.583 -55.555  1.00  0.00    -0.267 OA
HETATM   33  C   UNL     1     -42.100  59.240 -59.870  1.00  0.00    -0.008 A 
HETATM   34  C   UNL     1     -41.595  60.621 -57.824  1.00  0.00     0.041 C 
HETATM   35  C   UNL     1     -41.811  60.338 -60.845  1.00  0.00     0.047 C 
HETATM   36  C   UNL     1     -41.752  61.694 -60.124  1.00  0.00     0.005 C 
HETATM   37  C   UNL     1     -40.954  61.606 -58.816  1.00  0.00     0.005 C 
ENDBRANCH  23  24
ENDBRANCH   1  23
TORSDOF 10
ENDMDL
