MODEL 1
REMARK VINA RESULT:      -9.8      0.000      0.000
REMARK  5 active torsions:
REMARK  status: ('A' for Active; 'I' for Inactive)
REMARK    1  A    between atoms: C_2  and  N_3 
REMARK    2  A    between atoms: C_5  and  C_6 
REMARK    3  A    between atoms: C_6  and  C_7 
REMARK       I    between atoms: C_7  and  N_8 
REMARK    4  A    between atoms: N_8  and  C_9 
REMARK    5  A    between atoms: C_16  and  O_17 
ROOT
HETATM    1  C   UNL     1     -41.835  55.045 -55.384  1.00  0.00     0.224 C 
HETATM    2  N   UNL     1     -41.488  56.322 -55.009  1.00  0.00    -0.351 N 
HETATM    3  O   UNL     1     -42.919  54.748 -55.878  1.00  0.00    -0.273 OA
HETATM    4  H   UNL     1     -40.715  56.435 -54.359  1.00  0.00     0.163 HD
ENDROOT
BRANCH   2   5
HETATM    5  C   UNL     1     -42.417  57.421 -55.147  1.00  0.00     0.135 C 
HETATM    6  C   UNL     1     -42.259  57.999 -56.511  1.00  0.00     0.040 A 
HETATM    7  C   UNL     1     -42.278  59.341 -56.836  1.00  0.00    -0.021 A 
HETATM    8  N   UNL     1     -42.143  57.282 -57.671  1.00  0.00    -0.357 N 
HETATM    9  C   UNL     1     -42.134  59.442 -58.248  1.00  0.00     0.002 A 
HETATM   10  C   UNL     1     -42.411  60.412 -55.805  1.00  0.00     0.042 C 
HETATM   11  C   UNL     1     -42.040  58.140 -58.743  1.00  0.00     0.043 A 
HETATM   12  C   UNL     1     -42.074  60.514 -59.159  1.00  0.00     0.051 A 
HETATM   13  C   UNL     1     -41.880  57.864 -60.105  1.00  0.00     0.033 A 
HETATM   14  C   UNL     1     -41.817  58.951 -60.990  1.00  0.00     0.039 A 
HETATM   15  C   UNL     1     -41.914  60.264 -60.529  1.00  0.00     0.069 A 
HETATM   16  C   UNL     1     -42.895  59.834 -54.459  1.00  0.00     0.007 C 
HETATM   17  C   UNL     1     -42.172  58.524 -54.092  1.00  0.00     0.032 C 
HETATM   18  H   UNL     1     -42.126  56.273 -57.731  1.00  0.00     0.166 HD
BRANCH  15  19
HETATM   19  O   UNL     1     -41.873  61.391 -61.307  1.00  0.00    -0.356 OA
HETATM   20  C   UNL     1     -40.890  62.365 -60.978  1.00  0.00     0.210 C 
ENDBRANCH  15  19
ENDBRANCH   2   5
BRANCH   1  21
HETATM   21  C   UNL     1     -40.750  54.022 -55.181  1.00  0.00     0.164 C 
BRANCH  21  22
HETATM   22  C   UNL     1     -40.650  53.530 -53.756  1.00  0.00     0.075 A 
HETATM   23  N   UNL     1     -40.947  54.386 -52.828  1.00  0.00    -0.172 NA
HETATM   24  N   UNL     1     -40.846  54.015 -51.508  1.00  0.00    -0.230 N 
HETATM   25  C   UNL     1     -40.344  52.783 -51.088  1.00  0.00     0.275 A 
HETATM   26  C   UNL     1     -40.057  51.794 -52.142  1.00  0.00     0.046 A 
HETATM   27  O   UNL     1     -40.140  52.484 -49.913  1.00  0.00    -0.266 OA
HETATM   28  C   UNL     1     -40.224  52.143 -53.478  1.00  0.00     0.006 A 
HETATM   29  C   UNL     1     -39.622  50.506 -51.797  1.00  0.00     0.018 A 
HETATM   30  C   UNL     1     -39.975  51.195 -54.478  1.00  0.00     0.014 A 
HETATM   31  C   UNL     1     -39.547  49.911 -54.132  1.00  0.00     0.001 A 
HETATM   32  C   UNL     1     -39.365  49.568 -52.794  1.00  0.00     0.001 A 
BRANCH  24  33
HETATM   33  C   UNL     1     -41.075  55.072 -50.508  1.00  0.00     0.105 C 
HETATM   34  C   UNL     1     -42.418  54.922 -49.791  1.00  0.00     0.034 C 
HETATM   35  C   UNL     1     -40.957  56.453 -51.156  1.00  0.00     0.034 C 
ENDBRANCH  24  33
ENDBRANCH  21  22
ENDBRANCH   1  21
TORSDOF 5
ENDMDL
MODEL 2
REMARK VINA RESULT:      -9.3      1.940      8.863
REMARK  5 active torsions:
REMARK  status: ('A' for Active; 'I' for Inactive)
REMARK    1  A    between atoms: C_2  and  N_3 
REMARK    2  A    between atoms: C_5  and  C_6 
REMARK    3  A    between atoms: C_6  and  C_7 
REMARK       I    between atoms: C_7  and  N_8 
REMARK    4  A    between atoms: N_8  and  C_9 
REMARK    5  A    between atoms: C_16  and  O_17 
ROOT
HETATM    1  C   UNL     1     -42.255  58.750 -54.428  1.00  0.00     0.224 C 
HETATM    2  N   UNL     1     -42.373  57.581 -53.713  1.00  0.00    -0.351 N 
HETATM    3  O   UNL     1     -41.327  59.542 -54.296  1.00  0.00    -0.273 OA
HETATM    4  H   UNL     1     -43.287  57.140 -53.665  1.00  0.00     0.163 HD
ENDROOT
BRANCH   2   5
HETATM    5  C   UNL     1     -41.398  57.216 -52.709  1.00  0.00     0.135 C 
HETATM    6  C   UNL     1     -41.061  55.775 -52.885  1.00  0.00     0.040 A 
HETATM    7  C   UNL     1     -40.868  54.854 -51.875  1.00  0.00    -0.021 A 
HETATM    8  N   UNL     1     -40.817  55.156 -54.080  1.00  0.00    -0.357 N 
HETATM    9  C   UNL     1     -40.526  53.616 -52.486  1.00  0.00     0.002 A 
HETATM   10  C   UNL     1     -41.035  55.199 -50.433  1.00  0.00     0.042 C 
HETATM   11  C   UNL     1     -40.513  53.829 -53.866  1.00  0.00     0.043 A 
HETATM   12  C   UNL     1     -40.224  52.327 -52.003  1.00  0.00     0.051 A 
HETATM   13  C   UNL     1     -40.221  52.813 -54.781  1.00  0.00     0.033 A 
HETATM   14  C   UNL     1     -39.931  51.539 -54.273  1.00  0.00     0.039 A 
HETATM   15  C   UNL     1     -39.928  51.291 -52.900  1.00  0.00     0.069 A 
HETATM   16  C   UNL     1     -41.058  56.728 -50.225  1.00  0.00     0.007 C 
HETATM   17  C   UNL     1     -41.927  57.447 -51.275  1.00  0.00     0.032 C 
HETATM   18  H   UNL     1     -40.864  55.601 -54.986  1.00  0.00     0.166 HD
BRANCH  15  19
HETATM   19  O   UNL     1     -39.651  50.090 -52.303  1.00  0.00    -0.356 OA
HETATM   20  C   UNL     1     -39.526  50.088 -50.887  1.00  0.00     0.210 C 
ENDBRANCH  15  19
ENDBRANCH   2   5
BRANCH   1  21
HETATM   21  C   UNL     1     -43.351  58.972 -55.436  1.00  0.00     0.164 C 
BRANCH  21  22
HETATM   22  C   UNL     1     -42.840  59.138 -56.848  1.00  0.00     0.075 A 
HETATM   23  N   UNL     1     -42.457  60.330 -57.187  1.00  0.00    -0.172 NA
HETATM   24  N   UNL     1     -42.012  60.560 -58.467  1.00  0.00    -0.230 N 
HETATM   25  C   UNL     1     -42.035  59.597 -59.477  1.00  0.00     0.275 A 
HETATM   26  C   UNL     1     -42.420  58.231 -59.078  1.00  0.00     0.046 A 
HETATM   27  O   UNL     1     -41.751  59.821 -60.652  1.00  0.00    -0.266 OA
HETATM   28  C   UNL     1     -42.806  57.981 -57.765  1.00  0.00     0.006 A 
HETATM   29  C   UNL     1     -42.395  57.192 -60.018  1.00  0.00     0.018 A 
HETATM   30  C   UNL     1     -43.148  56.678 -57.381  1.00  0.00     0.014 A 
HETATM   31  C   UNL     1     -43.116  55.642 -58.318  1.00  0.00     0.001 A 
HETATM   32  C   UNL     1     -42.745  55.898 -59.636  1.00  0.00     0.001 A 
BRANCH  24  33
HETATM   33  C   UNL     1     -41.714  61.958 -58.820  1.00  0.00     0.105 C 
HETATM   34  C   UNL     1     -40.224  62.288 -58.707  1.00  0.00     0.034 C 
HETATM   35  C   UNL     1     -42.547  62.913 -57.962  1.00  0.00     0.034 C 
ENDBRANCH  24  33
ENDBRANCH  21  22
ENDBRANCH   1  21
TORSDOF 5
ENDMDL
MODEL 3
REMARK VINA RESULT:      -9.2      1.967      8.903
REMARK  5 active torsions:
REMARK  status: ('A' for Active; 'I' for Inactive)
REMARK    1  A    between atoms: C_2  and  N_3 
REMARK    2  A    between atoms: C_5  and  C_6 
REMARK    3  A    between atoms: C_6  and  C_7 
REMARK       I    between atoms: C_7  and  N_8 
REMARK    4  A    between atoms: N_8  and  C_9 
REMARK    5  A    between atoms: C_16  and  O_17 
ROOT
HETATM    1  C   UNL     1     -42.365  58.950 -54.574  1.00  0.00     0.224 C 
HETATM    2  N   UNL     1     -42.554  57.887 -53.722  1.00  0.00    -0.351 N 
HETATM    3  O   UNL     1     -41.359  59.652 -54.580  1.00  0.00    -0.273 OA
HETATM    4  H   UNL     1     -43.502  57.550 -53.579  1.00  0.00     0.163 HD
ENDROOT
BRANCH   2   5
HETATM    5  C   UNL     1     -41.562  57.539 -52.730  1.00  0.00     0.135 C 
HETATM    6  C   UNL     1     -41.187  56.109 -52.923  1.00  0.00     0.040 A 
HETATM    7  C   UNL     1     -40.961  55.183 -51.925  1.00  0.00    -0.021 A 
HETATM    8  N   UNL     1     -40.936  55.509 -54.127  1.00  0.00    -0.357 N 
HETATM    9  C   UNL     1     -40.590  53.961 -52.551  1.00  0.00     0.002 A 
HETATM   10  C   UNL     1     -41.126  55.509 -50.478  1.00  0.00     0.042 C 
HETATM   11  C   UNL     1     -40.594  54.189 -53.929  1.00  0.00     0.043 A 
HETATM   12  C   UNL     1     -40.250  52.676 -52.084  1.00  0.00     0.051 A 
HETATM   13  C   UNL     1     -40.282  53.190 -54.857  1.00  0.00     0.033 A 
HETATM   14  C   UNL     1     -39.954  51.919 -54.365  1.00  0.00     0.039 A 
HETATM   15  C   UNL     1     -39.933  51.658 -52.994  1.00  0.00     0.069 A 
HETATM   16  C   UNL     1     -41.189  57.034 -50.253  1.00  0.00     0.007 C 
HETATM   17  C   UNL     1     -42.085  57.740 -51.289  1.00  0.00     0.032 C 
HETATM   18  H   UNL     1     -41.001  55.962 -55.028  1.00  0.00     0.166 HD
BRANCH  15  19
HETATM   19  O   UNL     1     -39.619  50.459 -52.412  1.00  0.00    -0.356 OA
HETATM   20  C   UNL     1     -39.686  50.394 -50.993  1.00  0.00     0.210 C 
ENDBRANCH  15  19
ENDBRANCH   2   5
BRANCH   1  21
HETATM   21  C   UNL     1     -43.491  59.170 -55.548  1.00  0.00     0.164 C 
BRANCH  21  22
HETATM   22  C   UNL     1     -43.195  58.647 -56.934  1.00  0.00     0.075 A 
HETATM   23  N   UNL     1     -43.320  57.367 -57.106  1.00  0.00    -0.172 NA
HETATM   24  N   UNL     1     -43.034  56.818 -58.334  1.00  0.00    -0.230 N 
HETATM   25  C   UNL     1     -42.515  57.548 -59.404  1.00  0.00     0.275 A 
HETATM   26  C   UNL     1     -42.424  59.008 -59.224  1.00  0.00     0.046 A 
HETATM   27  O   UNL     1     -42.146  57.050 -60.466  1.00  0.00    -0.266 OA
HETATM   28  C   UNL     1     -42.778  59.575 -58.004  1.00  0.00     0.006 A 
HETATM   29  C   UNL     1     -41.984  59.819 -60.280  1.00  0.00     0.018 A 
HETATM   30  C   UNL     1     -42.715  60.965 -57.842  1.00  0.00     0.014 A 
HETATM   31  C   UNL     1     -42.282  61.772 -58.898  1.00  0.00     0.001 A 
HETATM   32  C   UNL     1     -41.912  61.201 -60.113  1.00  0.00     0.001 A 
BRANCH  24  33
HETATM   33  C   UNL     1     -43.074  55.349 -58.424  1.00  0.00     0.105 C 
HETATM   34  C   UNL     1     -44.246  54.843 -59.267  1.00  0.00     0.034 C 
HETATM   35  C   UNL     1     -43.106  54.731 -57.024  1.00  0.00     0.034 C 
ENDBRANCH  24  33
ENDBRANCH  21  22
ENDBRANCH   1  21
TORSDOF 5
ENDMDL
MODEL 4
REMARK VINA RESULT:      -8.7      2.903      4.891
REMARK  5 active torsions:
REMARK  status: ('A' for Active; 'I' for Inactive)
REMARK    1  A    between atoms: C_2  and  N_3 
REMARK    2  A    between atoms: C_5  and  C_6 
REMARK    3  A    between atoms: C_6  and  C_7 
REMARK       I    between atoms: C_7  and  N_8 
REMARK    4  A    between atoms: N_8  and  C_9 
REMARK    5  A    between atoms: C_16  and  O_17 
ROOT
HETATM    1  C   UNL     1     -42.351  55.163 -55.137  1.00  0.00     0.224 C 
HETATM    2  N   UNL     1     -41.692  56.275 -55.607  1.00  0.00    -0.351 N 
HETATM    3  O   UNL     1     -43.544  55.146 -54.848  1.00  0.00    -0.273 OA
HETATM    4  H   UNL     1     -40.678  56.291 -55.545  1.00  0.00     0.163 HD
ENDROOT
BRANCH   2   5
HETATM    5  C   UNL     1     -42.376  57.539 -55.765  1.00  0.00     0.135 C 
HETATM    6  C   UNL     1     -42.411  58.221 -54.440  1.00  0.00     0.040 A 
HETATM    7  C   UNL     1     -43.474  58.927 -53.914  1.00  0.00    -0.021 A 
HETATM    8  N   UNL     1     -41.362  58.315 -53.567  1.00  0.00    -0.357 N 
HETATM    9  C   UNL     1     -43.064  59.443 -52.654  1.00  0.00     0.002 A 
HETATM   10  C   UNL     1     -44.783  59.047 -54.621  1.00  0.00     0.042 C 
HETATM   11  C   UNL     1     -41.743  59.035 -52.456  1.00  0.00     0.043 A 
HETATM   12  C   UNL     1     -43.685  60.219 -51.655  1.00  0.00     0.051 A 
HETATM   13  C   UNL     1     -41.021  59.361 -51.303  1.00  0.00     0.033 A 
HETATM   14  C   UNL     1     -41.665  60.129 -50.323  1.00  0.00     0.039 A 
HETATM   15  C   UNL     1     -42.982  60.559 -50.491  1.00  0.00     0.069 A 
HETATM   16  C   UNL     1     -44.658  58.637 -56.103  1.00  0.00     0.007 C 
HETATM   17  C   UNL     1     -43.820  57.356 -56.285  1.00  0.00     0.032 C 
HETATM   18  H   UNL     1     -40.448  57.909 -53.709  1.00  0.00     0.166 HD
BRANCH  15  19
HETATM   19  O   UNL     1     -43.697  61.317 -49.602  1.00  0.00    -0.356 OA
HETATM   20  C   UNL     1     -45.070  60.987 -49.433  1.00  0.00     0.210 C 
ENDBRANCH  15  19
ENDBRANCH   2   5
BRANCH   1  21
HETATM   21  C   UNL     1     -41.494  53.929 -55.040  1.00  0.00     0.164 C 
BRANCH  21  22
HETATM   22  C   UNL     1     -41.227  53.496 -53.618  1.00  0.00     0.075 A 
HETATM   23  N   UNL     1     -41.596  54.318 -52.685  1.00  0.00    -0.172 NA
HETATM   24  N   UNL     1     -41.354  54.002 -51.369  1.00  0.00    -0.230 N 
HETATM   25  C   UNL     1     -40.636  52.875 -50.966  1.00  0.00     0.275 A 
HETATM   26  C   UNL     1     -40.264  51.917 -52.021  1.00  0.00     0.046 A 
HETATM   27  O   UNL     1     -40.312  52.642 -49.803  1.00  0.00    -0.266 OA
HETATM   28  C   UNL     1     -40.569  52.201 -53.349  1.00  0.00     0.006 A 
HETATM   29  C   UNL     1     -39.608  50.723 -51.687  1.00  0.00     0.018 A 
HETATM   30  C   UNL     1     -40.237  51.279 -54.349  1.00  0.00     0.014 A 
HETATM   31  C   UNL     1     -39.589  50.087 -54.012  1.00  0.00     0.001 A 
HETATM   32  C   UNL     1     -39.270  49.811 -52.685  1.00  0.00     0.001 A 
BRANCH  24  33
HETATM   33  C   UNL     1     -41.682  55.034 -50.373  1.00  0.00     0.105 C 
HETATM   34  C   UNL     1     -42.911  55.859 -50.764  1.00  0.00     0.034 C 
HETATM   35  C   UNL     1     -40.476  55.943 -50.129  1.00  0.00     0.034 C 
ENDBRANCH  24  33
ENDBRANCH  21  22
ENDBRANCH   1  21
TORSDOF 5
ENDMDL
MODEL 5
REMARK VINA RESULT:      -8.6      2.625      3.721
REMARK  5 active torsions:
REMARK  status: ('A' for Active; 'I' for Inactive)
REMARK    1  A    between atoms: C_2  and  N_3 
REMARK    2  A    between atoms: C_5  and  C_6 
REMARK    3  A    between atoms: C_6  and  C_7 
REMARK       I    between atoms: C_7  and  N_8 
REMARK    4  A    between atoms: N_8  and  C_9 
REMARK    5  A    between atoms: C_16  and  O_17 
ROOT
HETATM    1  C   UNL     1     -42.507  55.073 -55.990  1.00  0.00     0.224 C 
HETATM    2  N   UNL     1     -43.331  55.248 -57.077  1.00  0.00    -0.351 N 
HETATM    3  O   UNL     1     -41.537  55.784 -55.744  1.00  0.00    -0.273 OA
HETATM    4  H   UNL     1     -43.914  54.468 -57.365  1.00  0.00     0.163 HD
ENDROOT
BRANCH   2   5
HETATM    5  C   UNL     1     -43.080  56.292 -58.045  1.00  0.00     0.135 C 
HETATM    6  C   UNL     1     -43.846  57.503 -57.637  1.00  0.00     0.040 A 
HETATM    7  C   UNL     1     -44.529  58.359 -58.478  1.00  0.00    -0.021 A 
HETATM    8  N   UNL     1     -43.932  57.998 -56.363  1.00  0.00    -0.357 N 
HETATM    9  C   UNL     1     -45.078  59.398 -57.677  1.00  0.00     0.002 A 
HETATM   10  C   UNL     1     -44.624  58.128 -59.949  1.00  0.00     0.042 C 
HETATM   11  C   UNL     1     -44.700  59.142 -56.357  1.00  0.00     0.043 A 
HETATM   12  C   UNL     1     -45.864  60.537 -57.941  1.00  0.00     0.051 A 
HETATM   13  C   UNL     1     -45.079  59.966 -55.293  1.00  0.00     0.033 A 
HETATM   14  C   UNL     1     -45.867  61.089 -55.584  1.00  0.00     0.039 A 
HETATM   15  C   UNL     1     -46.257  61.379 -56.892  1.00  0.00     0.069 A 
HETATM   16  C   UNL     1     -43.586  57.088 -60.419  1.00  0.00     0.007 C 
HETATM   17  C   UNL     1     -43.504  55.875 -59.472  1.00  0.00     0.032 C 
HETATM   18  H   UNL     1     -43.504  57.583 -55.548  1.00  0.00     0.166 HD
BRANCH  15  19
HETATM   19  O   UNL     1     -47.015  62.451 -57.282  1.00  0.00    -0.356 OA
HETATM   20  C   UNL     1     -47.705  62.335 -58.520  1.00  0.00     0.210 C 
ENDBRANCH  15  19
ENDBRANCH   2   5
BRANCH   1  21
HETATM   21  C   UNL     1     -42.914  53.946 -55.079  1.00  0.00     0.164 C 
BRANCH  21  22
HETATM   22  C   UNL     1     -42.300  54.036 -53.702  1.00  0.00     0.075 A 
HETATM   23  N   UNL     1     -42.734  54.992 -52.938  1.00  0.00    -0.172 NA
HETATM   24  N   UNL     1     -42.195  55.153 -51.684  1.00  0.00    -0.230 N 
HETATM   25  C   UNL     1     -41.123  54.402 -51.202  1.00  0.00     0.275 A 
HETATM   26  C   UNL     1     -40.666  53.284 -52.048  1.00  0.00     0.046 A 
HETATM   27  O   UNL     1     -40.557  54.613 -50.131  1.00  0.00    -0.266 OA
HETATM   28  C   UNL     1     -41.257  53.076 -53.290  1.00  0.00     0.006 A 
HETATM   29  C   UNL     1     -39.644  52.436 -51.599  1.00  0.00     0.018 A 
HETATM   30  C   UNL     1     -40.841  51.999 -54.083  1.00  0.00     0.014 A 
HETATM   31  C   UNL     1     -39.826  51.150 -53.631  1.00  0.00     0.001 A 
HETATM   32  C   UNL     1     -39.224  51.371 -52.394  1.00  0.00     0.001 A 
BRANCH  24  33
HETATM   33  C   UNL     1     -42.642  56.331 -50.922  1.00  0.00     0.105 C 
HETATM   34  C   UNL     1     -44.153  56.549 -51.010  1.00  0.00     0.034 C 
HETATM   35  C   UNL     1     -41.886  57.580 -51.380  1.00  0.00     0.034 C 
ENDBRANCH  24  33
ENDBRANCH  21  22
ENDBRANCH   1  21
TORSDOF 5
ENDMDL
MODEL 6
REMARK VINA RESULT:      -8.6      4.885      7.689
REMARK  5 active torsions:
REMARK  status: ('A' for Active; 'I' for Inactive)
REMARK    1  A    between atoms: C_2  and  N_3 
REMARK    2  A    between atoms: C_5  and  C_6 
REMARK    3  A    between atoms: C_6  and  C_7 
REMARK       I    between atoms: C_7  and  N_8 
REMARK    4  A    between atoms: N_8  and  C_9 
REMARK    5  A    between atoms: C_16  and  O_17 
ROOT
HETATM    1  C   UNL     1     -41.452  58.118 -50.793  1.00  0.00     0.224 C 
HETATM    2  N   UNL     1     -42.593  58.810 -51.126  1.00  0.00    -0.351 N 
HETATM    3  O   UNL     1     -40.359  58.646 -50.612  1.00  0.00    -0.273 OA
HETATM    4  H   UNL     1     -43.365  58.291 -51.535  1.00  0.00     0.163 HD
ENDROOT
BRANCH   2   5
HETATM    5  C   UNL     1     -42.569  60.242 -51.319  1.00  0.00     0.135 C 
HETATM    6  C   UNL     1     -43.663  60.843 -50.505  1.00  0.00     0.040 A 
HETATM    7  C   UNL     1     -44.492  61.878 -50.889  1.00  0.00    -0.021 A 
HETATM    8  N   UNL     1     -43.968  60.509 -49.213  1.00  0.00    -0.357 N 
HETATM    9  C   UNL     1     -45.358  62.161 -49.796  1.00  0.00     0.002 A 
HETATM   10  C   UNL     1     -44.418  62.503 -52.242  1.00  0.00     0.042 C 
HETATM   11  C   UNL     1     -45.017  61.282 -48.766  1.00  0.00     0.043 A 
HETATM   12  C   UNL     1     -46.404  63.079 -49.578  1.00  0.00     0.051 A 
HETATM   13  C   UNL     1     -45.679  61.275 -47.534  1.00  0.00     0.033 A 
HETATM   14  C   UNL     1     -46.720  62.196 -47.346  1.00  0.00     0.039 A 
HETATM   15  C   UNL     1     -47.082  63.093 -48.351  1.00  0.00     0.069 A 
HETATM   16  C   UNL     1     -43.106  62.125 -52.960  1.00  0.00     0.007 C 
HETATM   17  C   UNL     1     -42.763  60.630 -52.803  1.00  0.00     0.032 C 
HETATM   18  H   UNL     1     -43.501  59.796 -48.671  1.00  0.00     0.166 HD
BRANCH  15  19
HETATM   19  O   UNL     1     -48.075  64.033 -48.267  1.00  0.00    -0.356 OA
HETATM   20  C   UNL     1     -49.094  63.985 -49.257  1.00  0.00     0.210 C 
ENDBRANCH  15  19
ENDBRANCH   2   5
BRANCH   1  21
HETATM   21  C   UNL     1     -41.654  56.636 -50.622  1.00  0.00     0.164 C 
BRANCH  21  22
HETATM   22  C   UNL     1     -41.788  55.895 -51.932  1.00  0.00     0.075 A 
HETATM   23  N   UNL     1     -42.505  56.468 -52.849  1.00  0.00    -0.172 NA
HETATM   24  N   UNL     1     -42.697  55.834 -54.053  1.00  0.00    -0.230 N 
HETATM   25  C   UNL     1     -42.241  54.544 -54.328  1.00  0.00     0.275 A 
HETATM   26  C   UNL     1     -41.383  53.916 -53.308  1.00  0.00     0.046 A 
HETATM   27  O   UNL     1     -42.505  53.922 -55.355  1.00  0.00    -0.266 OA
HETATM   28  C   UNL     1     -41.130  54.585 -52.114  1.00  0.00     0.006 A 
HETATM   29  C   UNL     1     -40.823  52.652 -53.542  1.00  0.00     0.018 A 
HETATM   30  C   UNL     1     -40.294  53.999 -51.155  1.00  0.00     0.014 A 
HETATM   31  C   UNL     1     -39.732  52.742 -51.394  1.00  0.00     0.001 A 
HETATM   32  C   UNL     1     -39.999  52.066 -52.582  1.00  0.00     0.001 A 
BRANCH  24  33
HETATM   33  C   UNL     1     -43.623  56.481 -54.997  1.00  0.00     0.105 C 
HETATM   34  C   UNL     1     -42.911  57.433 -55.960  1.00  0.00     0.034 C 
HETATM   35  C   UNL     1     -44.735  57.208 -54.239  1.00  0.00     0.034 C 
ENDBRANCH  24  33
ENDBRANCH  21  22
ENDBRANCH   1  21
TORSDOF 5
ENDMDL
MODEL 7
REMARK VINA RESULT:      -8.5      2.551      3.956
REMARK  5 active torsions:
REMARK  status: ('A' for Active; 'I' for Inactive)
REMARK    1  A    between atoms: C_2  and  N_3 
REMARK    2  A    between atoms: C_5  and  C_6 
REMARK    3  A    between atoms: C_6  and  C_7 
REMARK       I    between atoms: C_7  and  N_8 
REMARK    4  A    between atoms: N_8  and  C_9 
REMARK    5  A    between atoms: C_16  and  O_17 
ROOT
HETATM    1  C   UNL     1     -43.184  55.019 -55.274  1.00  0.00     0.224 C 
HETATM    2  N   UNL     1     -43.524  55.960 -56.218  1.00  0.00    -0.351 N 
HETATM    3  O   UNL     1     -42.380  54.113 -55.470  1.00  0.00    -0.273 OA
HETATM    4  H   UNL     1     -44.385  56.482 -56.085  1.00  0.00     0.163 HD
ENDROOT
BRANCH   2   5
HETATM    5  C   UNL     1     -42.963  55.920 -57.550  1.00  0.00     0.135 C 
HETATM    6  C   UNL     1     -42.653  57.315 -57.971  1.00  0.00     0.040 A 
HETATM    7  C   UNL     1     -42.855  57.853 -59.226  1.00  0.00    -0.021 A 
HETATM    8  N   UNL     1     -42.049  58.265 -57.192  1.00  0.00    -0.357 N 
HETATM    9  C   UNL     1     -42.384  59.195 -59.198  1.00  0.00     0.002 A 
HETATM   10  C   UNL     1     -43.482  57.079 -60.337  1.00  0.00     0.042 C 
HETATM   11  C   UNL     1     -41.896  59.430 -57.911  1.00  0.00     0.043 A 
HETATM   12  C   UNL     1     -42.323  60.240 -60.142  1.00  0.00     0.051 A 
HETATM   13  C   UNL     1     -41.360  60.663 -57.524  1.00  0.00     0.033 A 
HETATM   14  C   UNL     1     -41.317  61.687 -58.482  1.00  0.00     0.039 A 
HETATM   15  C   UNL     1     -41.789  61.484 -59.779  1.00  0.00     0.069 A 
HETATM   16  C   UNL     1     -43.505  55.569 -60.022  1.00  0.00     0.007 C 
HETATM   17  C   UNL     1     -43.934  55.281 -58.570  1.00  0.00     0.032 C 
HETATM   18  H   UNL     1     -41.766  58.135 -56.231  1.00  0.00     0.166 HD
BRANCH  15  19
HETATM   19  O   UNL     1     -41.786  62.411 -60.787  1.00  0.00    -0.356 OA
HETATM   20  C   UNL     1     -40.593  62.527 -61.552  1.00  0.00     0.210 C 
ENDBRANCH  15  19
ENDBRANCH   2   5
BRANCH   1  21
HETATM   21  C   UNL     1     -43.853  55.212 -53.939  1.00  0.00     0.164 C 
BRANCH  21  22
HETATM   22  C   UNL     1     -43.017  56.000 -52.959  1.00  0.00     0.075 A 
HETATM   23  N   UNL     1     -43.074  57.292 -53.059  1.00  0.00    -0.172 NA
HETATM   24  N   UNL     1     -42.313  58.071 -52.220  1.00  0.00    -0.230 N 
HETATM   25  C   UNL     1     -41.391  57.552 -51.311  1.00  0.00     0.275 A 
HETATM   26  C   UNL     1     -41.365  56.086 -51.160  1.00  0.00     0.046 A 
HETATM   27  O   UNL     1     -40.622  58.238 -50.639  1.00  0.00    -0.266 OA
HETATM   28  C   UNL     1     -42.184  55.297 -51.961  1.00  0.00     0.006 A 
HETATM   29  C   UNL     1     -40.519  55.492 -50.212  1.00  0.00     0.018 A 
HETATM   30  C   UNL     1     -42.178  53.906 -51.800  1.00  0.00     0.014 A 
HETATM   31  C   UNL     1     -41.339  53.317 -50.850  1.00  0.00     0.001 A 
HETATM   32  C   UNL     1     -40.507  54.107 -50.061  1.00  0.00     0.001 A 
BRANCH  24  33
HETATM   33  C   UNL     1     -42.329  59.521 -52.473  1.00  0.00     0.105 C 
HETATM   34  C   UNL     1     -43.728  60.125 -52.341  1.00  0.00     0.034 C 
HETATM   35  C   UNL     1     -41.734  59.829 -53.849  1.00  0.00     0.034 C 
ENDBRANCH  24  33
ENDBRANCH  21  22
ENDBRANCH   1  21
TORSDOF 5
ENDMDL
MODEL 8
REMARK VINA RESULT:      -8.4      3.136      8.292
REMARK  5 active torsions:
REMARK  status: ('A' for Active; 'I' for Inactive)
REMARK    1  A    between atoms: C_2  and  N_3 
REMARK    2  A    between atoms: C_5  and  C_6 
REMARK    3  A    between atoms: C_6  and  C_7 
REMARK       I    between atoms: C_7  and  N_8 
REMARK    4  A    between atoms: N_8  and  C_9 
REMARK    5  A    between atoms: C_16  and  O_17 
ROOT
HETATM    1  C   UNL     1     -43.511  56.207 -50.745  1.00  0.00     0.224 C 
HETATM    2  N   UNL     1     -42.311  56.805 -50.440  1.00  0.00    -0.351 N 
HETATM    3  O   UNL     1     -43.697  54.994 -50.723  1.00  0.00    -0.273 OA
HETATM    4  H   UNL     1     -42.157  57.758 -50.757  1.00  0.00     0.163 HD
ENDROOT
BRANCH   2   5
HETATM    5  C   UNL     1     -41.150  56.017 -50.093  1.00  0.00     0.135 C 
HETATM    6  C   UNL     1     -40.914  55.026 -51.182  1.00  0.00     0.040 A 
HETATM    7  C   UNL     1     -40.533  53.709 -51.019  1.00  0.00    -0.021 A 
HETATM    8  N   UNL     1     -40.967  55.292 -52.523  1.00  0.00    -0.357 N 
HETATM    9  C   UNL     1     -40.382  53.144 -52.315  1.00  0.00     0.002 A 
HETATM   10  C   UNL     1     -40.359  53.087 -49.674  1.00  0.00     0.042 C 
HETATM   11  C   UNL     1     -40.672  54.151 -53.238  1.00  0.00     0.043 A 
HETATM   12  C   UNL     1     -40.027  51.869 -52.801  1.00  0.00     0.051 A 
HETATM   13  C   UNL     1     -40.630  53.939 -54.620  1.00  0.00     0.033 A 
HETATM   14  C   UNL     1     -40.280  52.661 -55.075  1.00  0.00     0.039 A 
HETATM   15  C   UNL     1     -39.979  51.632 -54.182  1.00  0.00     0.069 A 
HETATM   16  C   UNL     1     -40.279  54.161 -48.568  1.00  0.00     0.007 C 
HETATM   17  C   UNL     1     -41.335  55.269 -48.753  1.00  0.00     0.032 C 
HETATM   18  H   UNL     1     -41.199  56.187 -52.930  1.00  0.00     0.166 HD
BRANCH  15  19
HETATM   19  O   UNL     1     -39.619  50.355 -54.522  1.00  0.00    -0.356 OA
HETATM   20  C   UNL     1     -39.495  49.417 -53.461  1.00  0.00     0.210 C 
ENDBRANCH  15  19
ENDBRANCH   2   5
BRANCH   1  21
HETATM   21  C   UNL     1     -44.618  57.173 -51.076  1.00  0.00     0.164 C 
BRANCH  21  22
HETATM   22  C   UNL     1     -44.189  58.277 -52.012  1.00  0.00     0.075 A 
HETATM   23  N   UNL     1     -44.067  59.460 -51.493  1.00  0.00    -0.172 NA
HETATM   24  N   UNL     1     -43.711  60.519 -52.294  1.00  0.00    -0.230 N 
HETATM   25  C   UNL     1     -43.562  60.423 -53.678  1.00  0.00     0.275 A 
HETATM   26  C   UNL     1     -43.648  59.071 -54.260  1.00  0.00     0.046 A 
HETATM   27  O   UNL     1     -43.360  61.383 -54.420  1.00  0.00    -0.266 OA
HETATM   28  C   UNL     1     -43.941  57.986 -53.439  1.00  0.00     0.006 A 
HETATM   29  C   UNL     1     -43.434  58.882 -55.632  1.00  0.00     0.018 A 
HETATM   30  C   UNL     1     -43.998  56.699 -53.988  1.00  0.00     0.014 A 
HETATM   31  C   UNL     1     -43.778  56.512 -55.355  1.00  0.00     0.001 A 
HETATM   32  C   UNL     1     -43.501  57.601 -56.178  1.00  0.00     0.001 A 
BRANCH  24  33
HETATM   33  C   UNL     1     -43.716  61.850 -51.667  1.00  0.00     0.105 C 
HETATM   34  C   UNL     1     -42.936  61.882 -50.351  1.00  0.00     0.034 C 
HETATM   35  C   UNL     1     -45.152  62.336 -51.458  1.00  0.00     0.034 C 
ENDBRANCH  24  33
ENDBRANCH  21  22
ENDBRANCH   1  21
TORSDOF 5
ENDMDL
MODEL 9
REMARK VINA RESULT:      -8.4      2.230      9.532
REMARK  5 active torsions:
REMARK  status: ('A' for Active; 'I' for Inactive)
REMARK    1  A    between atoms: C_2  and  N_3 
REMARK    2  A    between atoms: C_5  and  C_6 
REMARK    3  A    between atoms: C_6  and  C_7 
REMARK       I    between atoms: C_7  and  N_8 
REMARK    4  A    between atoms: N_8  and  C_9 
REMARK    5  A    between atoms: C_16  and  O_17 
ROOT
HETATM    1  C   UNL     1     -43.338  57.677 -54.736  1.00  0.00     0.224 C 
HETATM    2  N   UNL     1     -43.294  56.921 -53.588  1.00  0.00    -0.351 N 
HETATM    3  O   UNL     1     -42.388  58.324 -55.166  1.00  0.00    -0.273 OA
HETATM    4  H   UNL     1     -44.174  56.662 -53.152  1.00  0.00     0.163 HD
ENDROOT
BRANCH   2   5
HETATM    5  C   UNL     1     -42.099  56.866 -52.775  1.00  0.00     0.135 C 
HETATM    6  C   UNL     1     -41.560  55.477 -52.828  1.00  0.00     0.040 A 
HETATM    7  C   UNL     1     -41.026  54.768 -51.772  1.00  0.00    -0.021 A 
HETATM    8  N   UNL     1     -41.444  54.712 -53.957  1.00  0.00    -0.357 N 
HETATM    9  C   UNL     1     -40.598  53.508 -52.274  1.00  0.00     0.002 A 
HETATM   10  C   UNL     1     -40.974  55.316 -50.384  1.00  0.00     0.042 C 
HETATM   11  C   UNL     1     -40.883  53.495 -53.641  1.00  0.00     0.043 A 
HETATM   12  C   UNL     1     -39.995  52.370 -51.702  1.00  0.00     0.051 A 
HETATM   13  C   UNL     1     -40.600  52.394 -54.457  1.00  0.00     0.033 A 
HETATM   14  C   UNL     1     -40.005  51.273 -53.860  1.00  0.00     0.039 A 
HETATM   15  C   UNL     1     -39.702  51.255 -52.499  1.00  0.00     0.069 A 
HETATM   16  C   UNL     1     -41.219  56.840 -50.377  1.00  0.00     0.007 C 
HETATM   17  C   UNL     1     -42.380  57.249 -51.304  1.00  0.00     0.032 C 
HETATM   18  H   UNL     1     -41.736  54.993 -54.883  1.00  0.00     0.166 HD
BRANCH  15  19
HETATM   19  O   UNL     1     -39.116  50.218 -51.822  1.00  0.00    -0.356 OA
HETATM   20  C   UNL     1     -39.709  49.838 -50.587  1.00  0.00     0.210 C 
ENDBRANCH  15  19
ENDBRANCH   2   5
BRANCH   1  21
HETATM   21  C   UNL     1     -44.653  57.618 -55.466  1.00  0.00     0.164 C 
BRANCH  21  22
HETATM   22  C   UNL     1     -44.570  58.109 -56.892  1.00  0.00     0.075 A 
HETATM   23  N   UNL     1     -44.247  57.227 -57.788  1.00  0.00    -0.172 NA
HETATM   24  N   UNL     1     -44.121  57.612 -59.101  1.00  0.00    -0.230 N 
HETATM   25  C   UNL     1     -44.224  58.935 -59.532  1.00  0.00     0.275 A 
HETATM   26  C   UNL     1     -44.642  59.926 -58.524  1.00  0.00     0.046 A 
HETATM   27  O   UNL     1     -43.998  59.307 -60.682  1.00  0.00    -0.266 OA
HETATM   28  C   UNL     1     -44.838  59.527 -57.206  1.00  0.00     0.006 A 
HETATM   29  C   UNL     1     -44.842  61.263 -58.895  1.00  0.00     0.018 A 
HETATM   30  C   UNL     1     -45.258  60.464 -56.254  1.00  0.00     0.014 A 
HETATM   31  C   UNL     1     -45.464  61.795 -56.627  1.00  0.00     0.001 A 
HETATM   32  C   UNL     1     -45.251  62.196 -57.944  1.00  0.00     0.001 A 
BRANCH  24  33
HETATM   33  C   UNL     1     -43.630  56.591 -60.042  1.00  0.00     0.105 C 
HETATM   34  C   UNL     1     -44.292  55.228 -59.828  1.00  0.00     0.034 C 
HETATM   35  C   UNL     1     -42.107  56.473 -59.954  1.00  0.00     0.034 C 
ENDBRANCH  24  33
ENDBRANCH  21  22
ENDBRANCH   1  21
TORSDOF 5
ENDMDL
MODEL 10
REMARK VINA RESULT:      -8.1      3.554      7.452
REMARK  5 active torsions:
REMARK  status: ('A' for Active; 'I' for Inactive)
REMARK    1  A    between atoms: C_2  and  N_3 
REMARK    2  A    between atoms: C_5  and  C_6 
REMARK    3  A    between atoms: C_6  and  C_7 
REMARK       I    between atoms: C_7  and  N_8 
REMARK    4  A    between atoms: N_8  and  C_9 
REMARK    5  A    between atoms: C_16  and  O_17 
ROOT
HETATM    1  C   UNL     1     -41.179  58.665 -52.928  1.00  0.00     0.224 C 
HETATM    2  N   UNL     1     -42.065  57.615 -52.990  1.00  0.00    -0.351 N 
HETATM    3  O   UNL     1     -40.079  58.665 -53.471  1.00  0.00    -0.273 OA
HETATM    4  H   UNL     1     -42.804  57.571 -52.294  1.00  0.00     0.163 HD
ENDROOT
BRANCH   2   5
HETATM    5  C   UNL     1     -41.731  56.396 -53.692  1.00  0.00     0.135 C 
HETATM    6  C   UNL     1     -42.120  56.558 -55.122  1.00  0.00     0.040 A 
HETATM    7  C   UNL     1     -42.706  55.598 -55.922  1.00  0.00    -0.021 A 
HETATM    8  N   UNL     1     -41.887  57.668 -55.888  1.00  0.00    -0.357 N 
HETATM    9  C   UNL     1     -42.866  56.161 -57.219  1.00  0.00     0.002 A 
HETATM   10  C   UNL     1     -43.082  54.248 -55.409  1.00  0.00     0.042 C 
HETATM   11  C   UNL     1     -42.356  57.460 -57.167  1.00  0.00     0.043 A 
HETATM   12  C   UNL     1     -43.395  55.695 -58.439  1.00  0.00     0.051 A 
HETATM   13  C   UNL     1     -42.361  58.314 -58.274  1.00  0.00     0.033 A 
HETATM   14  C   UNL     1     -42.899  57.827 -59.474  1.00  0.00     0.039 A 
HETATM   15  C   UNL     1     -43.411  56.532 -59.563  1.00  0.00     0.069 A 
HETATM   16  C   UNL     1     -42.402  53.958 -54.054  1.00  0.00     0.007 C 
HETATM   17  C   UNL     1     -42.459  55.167 -53.101  1.00  0.00     0.032 C 
HETATM   18  H   UNL     1     -41.446  58.517 -55.563  1.00  0.00     0.166 HD
BRANCH  15  19
HETATM   19  O   UNL     1     -43.949  55.959 -60.684  1.00  0.00    -0.356 OA
HETATM   20  C   UNL     1     -44.828  54.859 -60.487  1.00  0.00     0.210 C 
ENDBRANCH  15  19
ENDBRANCH   2   5
BRANCH   1  21
HETATM   21  C   UNL     1     -41.687  59.859 -52.164  1.00  0.00     0.164 C 
BRANCH  21  22
HETATM   22  C   UNL     1     -43.135  60.181 -52.449  1.00  0.00     0.075 A 
HETATM   23  N   UNL     1     -43.541  59.988 -53.666  1.00  0.00    -0.172 NA
HETATM   24  N   UNL     1     -44.838  60.291 -54.003  1.00  0.00    -0.230 N 
HETATM   25  C   UNL     1     -45.742  60.896 -53.129  1.00  0.00     0.275 A 
HETATM   26  C   UNL     1     -45.298  61.066 -51.734  1.00  0.00     0.046 A 
HETATM   27  O   UNL     1     -46.865  61.278 -53.451  1.00  0.00    -0.266 OA
HETATM   28  C   UNL     1     -44.006  60.696 -51.373  1.00  0.00     0.006 A 
HETATM   29  C   UNL     1     -46.175  61.595 -50.777  1.00  0.00     0.018 A 
HETATM   30  C   UNL     1     -43.592  60.834 -50.042  1.00  0.00     0.014 A 
HETATM   31  C   UNL     1     -44.470  61.356 -49.088  1.00  0.00     0.001 A 
HETATM   32  C   UNL     1     -45.758  61.742 -49.455  1.00  0.00     0.001 A 
BRANCH  24  33
HETATM   33  C   UNL     1     -45.194  60.168 -55.426  1.00  0.00     0.105 C 
HETATM   34  C   UNL     1     -45.389  58.714 -55.860  1.00  0.00     0.034 C 
HETATM   35  C   UNL     1     -44.145  60.859 -56.300  1.00  0.00     0.034 C 
ENDBRANCH  24  33
ENDBRANCH  21  22
ENDBRANCH   1  21
TORSDOF 5
ENDMDL
