MODEL 1
REMARK VINA RESULT:      -8.3      0.000      0.000
REMARK  5 active torsions:
REMARK  status: ('A' for Active; 'I' for Inactive)
REMARK    1  A    between atoms: C_5  and  O_6 
REMARK    2  A    between atoms: O_6  and  C_7 
REMARK    3  A    between atoms: C_7  and  C_8 
REMARK       I    between atoms: C_8  and  N_9 
REMARK    4  A    between atoms: N_9  and  N_10 
REMARK    5  A    between atoms: C_11  and  C_12 
ROOT
HETATM    1  C   UNL     1     -42.771  56.008 -55.878  1.00  0.00     0.261 C 
HETATM    2  N   UNL     1     -41.716  55.113 -55.989  1.00  0.00    -0.246 N 
HETATM    3  O   UNL     1     -43.573  56.048 -54.946  1.00  0.00    -0.269 OA
HETATM    4  H   UNL     1     -41.078  55.182 -56.777  1.00  0.00     0.192 HD
ENDROOT
BRANCH   2   5
HETATM    5  N   UNL     1     -41.517  54.187 -55.009  1.00  0.00    -0.184 NA
HETATM    6  C   UNL     1     -40.574  54.432 -54.159  1.00  0.00     0.152 C 
BRANCH   6   7
HETATM    7  C   UNL     1     -40.313  53.472 -53.105  1.00  0.00     0.011 A 
HETATM    8  C   UNL     1     -40.039  52.072 -53.236  1.00  0.00     0.004 A 
HETATM    9  C   UNL     1     -39.871  51.558 -51.947  1.00  0.00     0.043 A 
HETATM   10  C   UNL     1     -39.932  51.184 -54.327  1.00  0.00     0.014 A 
HETATM   11  C   UNL     1     -39.601  50.207 -51.696  1.00  0.00     0.030 A 
HETATM   12  N   UNL     1     -40.028  52.603 -51.068  1.00  0.00    -0.364 N 
HETATM   13  C   UNL     1     -39.504  49.350 -52.795  1.00  0.00     0.002 A 
HETATM   14  C   UNL     1     -39.667  49.828 -54.092  1.00  0.00     0.001 A 
HETATM   15  H   UNL     1     -39.962  52.525 -50.063  1.00  0.00     0.165 HD
HETATM   16  C   UNL     1     -40.300  53.755 -51.751  1.00  0.00     0.102 A 
ENDBRANCH   6   7
ENDBRANCH   2   5
BRANCH   1  17
HETATM   17  C   UNL     1     -42.936  56.900 -57.102  1.00  0.00     0.280 C 
BRANCH  17  18
HETATM   18  O   UNL     1     -42.863  56.148 -58.316  1.00  0.00    -0.342 OA
BRANCH  18  19
HETATM   19  C   UNL     1     -44.029  56.258 -59.030  1.00  0.00     0.069 A 
HETATM   20  C   UNL     1     -44.312  55.259 -59.958  1.00  0.00     0.037 A 
HETATM   21  C   UNL     1     -45.480  55.328 -60.722  1.00  0.00     0.009 A 
HETATM   22  C   UNL     1     -46.378  56.390 -60.551  1.00  0.00    -0.062 A 
HETATM   23  C   UNL     1     -47.641  56.470 -61.357  1.00  0.00     0.048 C 
HETATM   24  C   UNL     1     -46.105  57.363 -59.582  1.00  0.00     0.009 A 
HETATM   25  C   UNL     1     -44.935  57.296 -58.820  1.00  0.00     0.037 A 
ENDBRANCH  18  19
ENDBRANCH  17  18
ENDBRANCH   1  17
TORSDOF 5
ENDMDL
MODEL 2
REMARK VINA RESULT:      -7.7      1.285      1.523
REMARK  5 active torsions:
REMARK  status: ('A' for Active; 'I' for Inactive)
REMARK    1  A    between atoms: C_5  and  O_6 
REMARK    2  A    between atoms: O_6  and  C_7 
REMARK    3  A    between atoms: C_7  and  C_8 
REMARK       I    between atoms: C_8  and  N_9 
REMARK    4  A    between atoms: N_9  and  N_10 
REMARK    5  A    between atoms: C_11  and  C_12 
ROOT
HETATM    1  C   UNL     1     -43.279  57.178 -54.580  1.00  0.00     0.261 C 
HETATM    2  N   UNL     1     -43.029  55.833 -54.814  1.00  0.00    -0.246 N 
HETATM    3  O   UNL     1     -43.033  57.775 -53.532  1.00  0.00    -0.269 OA
HETATM    4  H   UNL     1     -43.228  55.435 -55.727  1.00  0.00     0.192 HD
ENDROOT
BRANCH   2   5
HETATM    5  N   UNL     1     -42.466  55.076 -53.830  1.00  0.00    -0.184 NA
HETATM    6  C   UNL     1     -41.417  54.392 -54.150  1.00  0.00     0.152 C 
BRANCH   6   7
HETATM    7  C   UNL     1     -40.789  53.560 -53.143  1.00  0.00     0.011 A 
HETATM    8  C   UNL     1     -40.395  52.186 -53.254  1.00  0.00     0.004 A 
HETATM    9  C   UNL     1     -39.849  51.808 -52.025  1.00  0.00     0.043 A 
HETATM   10  C   UNL     1     -40.465  51.219 -54.278  1.00  0.00     0.014 A 
HETATM   11  C   UNL     1     -39.369  50.518 -51.769  1.00  0.00     0.030 A 
HETATM   12  N   UNL     1     -39.900  52.908 -51.201  1.00  0.00    -0.364 N 
HETATM   13  C   UNL     1     -39.454  49.580 -52.801  1.00  0.00     0.002 A 
HETATM   14  C   UNL     1     -39.993  49.921 -54.037  1.00  0.00     0.001 A 
HETATM   15  H   UNL     1     -39.574  52.927 -50.245  1.00  0.00     0.165 HD
HETATM   16  C   UNL     1     -40.468  53.963 -51.859  1.00  0.00     0.102 A 
ENDBRANCH   6   7
ENDBRANCH   2   5
BRANCH   1  17
HETATM   17  C   UNL     1     -44.016  57.862 -55.725  1.00  0.00     0.280 C 
BRANCH  17  18
HETATM   18  O   UNL     1     -43.178  58.018 -56.873  1.00  0.00    -0.342 OA
BRANCH  18  19
HETATM   19  C   UNL     1     -43.682  57.327 -57.944  1.00  0.00     0.069 A 
HETATM   20  C   UNL     1     -42.909  56.291 -58.464  1.00  0.00     0.037 A 
HETATM   21  C   UNL     1     -43.369  55.562 -59.564  1.00  0.00     0.009 A 
HETATM   22  C   UNL     1     -44.612  55.857 -60.141  1.00  0.00    -0.062 A 
HETATM   23  C   UNL     1     -45.122  55.075 -61.316  1.00  0.00     0.048 C 
HETATM   24  C   UNL     1     -45.399  56.870 -59.580  1.00  0.00     0.009 A 
HETATM   25  C   UNL     1     -44.938  57.601 -58.482  1.00  0.00     0.037 A 
ENDBRANCH  18  19
ENDBRANCH  17  18
ENDBRANCH   1  17
TORSDOF 5
ENDMDL
MODEL 3
REMARK VINA RESULT:      -7.7      1.167      1.749
REMARK  5 active torsions:
REMARK  status: ('A' for Active; 'I' for Inactive)
REMARK    1  A    between atoms: C_5  and  O_6 
REMARK    2  A    between atoms: O_6  and  C_7 
REMARK    3  A    between atoms: C_7  and  C_8 
REMARK       I    between atoms: C_8  and  N_9 
REMARK    4  A    between atoms: N_9  and  N_10 
REMARK    5  A    between atoms: C_11  and  C_12 
ROOT
HETATM    1  C   UNL     1     -43.211  56.748 -56.729  1.00  0.00     0.261 C 
HETATM    2  N   UNL     1     -41.996  56.081 -56.649  1.00  0.00    -0.246 N 
HETATM    3  O   UNL     1     -43.944  57.005 -55.775  1.00  0.00    -0.269 OA
HETATM    4  H   UNL     1     -41.437  55.949 -57.488  1.00  0.00     0.192 HD
ENDROOT
BRANCH   2   5
HETATM    5  N   UNL     1     -41.542  55.659 -55.435  1.00  0.00    -0.184 NA
HETATM    6  C   UNL     1     -41.447  54.383 -55.259  1.00  0.00     0.152 C 
BRANCH   6   7
HETATM    7  C   UNL     1     -40.982  53.884 -53.980  1.00  0.00     0.011 A 
HETATM    8  C   UNL     1     -40.494  52.573 -53.669  1.00  0.00     0.004 A 
HETATM    9  C   UNL     1     -40.180  52.556 -52.308  1.00  0.00     0.043 A 
HETATM   10  C   UNL     1     -40.303  51.388 -54.412  1.00  0.00     0.014 A 
HETATM   11  C   UNL     1     -39.684  51.421 -51.654  1.00  0.00     0.030 A 
HETATM   12  N   UNL     1     -40.457  53.808 -51.811  1.00  0.00    -0.364 N 
HETATM   13  C   UNL     1     -39.508  50.262 -52.414  1.00  0.00     0.002 A 
HETATM   14  C   UNL     1     -39.812  50.242 -53.771  1.00  0.00     0.001 A 
HETATM   15  H   UNL     1     -40.328  54.088 -50.848  1.00  0.00     0.165 HD
HETATM   16  C   UNL     1     -40.945  54.611 -52.803  1.00  0.00     0.102 A 
ENDBRANCH   6   7
ENDBRANCH   2   5
BRANCH   1  17
HETATM   17  C   UNL     1     -43.639  57.050 -58.160  1.00  0.00     0.280 C 
BRANCH  17  18
HETATM   18  O   UNL     1     -44.723  57.980 -58.201  1.00  0.00    -0.342 OA
BRANCH  18  19
HETATM   19  C   UNL     1     -45.620  57.642 -59.181  1.00  0.00     0.069 A 
HETATM   20  C   UNL     1     -46.383  58.667 -59.737  1.00  0.00     0.037 A 
HETATM   21  C   UNL     1     -47.322  58.377 -60.731  1.00  0.00     0.009 A 
HETATM   22  C   UNL     1     -47.493  57.062 -61.184  1.00  0.00    -0.062 A 
HETATM   23  C   UNL     1     -48.490  56.739 -62.257  1.00  0.00     0.048 C 
HETATM   24  C   UNL     1     -46.688  56.048 -60.649  1.00  0.00     0.009 A 
HETATM   25  C   UNL     1     -45.751  56.337 -59.654  1.00  0.00     0.037 A 
ENDBRANCH  18  19
ENDBRANCH  17  18
ENDBRANCH   1  17
TORSDOF 5
ENDMDL
MODEL 4
REMARK VINA RESULT:      -7.6      1.978      9.531
REMARK  5 active torsions:
REMARK  status: ('A' for Active; 'I' for Inactive)
REMARK    1  A    between atoms: C_5  and  O_6 
REMARK    2  A    between atoms: O_6  and  C_7 
REMARK    3  A    between atoms: C_7  and  C_8 
REMARK       I    between atoms: C_8  and  N_9 
REMARK    4  A    between atoms: N_9  and  N_10 
REMARK    5  A    between atoms: C_11  and  C_12 
ROOT
HETATM    1  C   UNL     1     -42.341  54.813 -55.437  1.00  0.00     0.261 C 
HETATM    2  N   UNL     1     -42.175  55.359 -56.702  1.00  0.00    -0.246 N 
HETATM    3  O   UNL     1     -43.423  54.591 -54.895  1.00  0.00    -0.269 OA
HETATM    4  H   UNL     1     -41.240  55.467 -57.085  1.00  0.00     0.192 HD
ENDROOT
BRANCH   2   5
HETATM    5  N   UNL     1     -43.273  55.690 -57.438  1.00  0.00    -0.184 NA
HETATM    6  C   UNL     1     -43.166  55.592 -58.722  1.00  0.00     0.152 C 
BRANCH   6   7
HETATM    7  C   UNL     1     -44.302  55.946 -59.550  1.00  0.00     0.011 A 
HETATM    8  C   UNL     1     -45.196  57.055 -59.394  1.00  0.00     0.004 A 
HETATM    9  C   UNL     1     -46.143  56.975 -60.418  1.00  0.00     0.043 A 
HETATM   10  C   UNL     1     -45.302  58.115 -58.468  1.00  0.00     0.014 A 
HETATM   11  C   UNL     1     -47.186  57.898 -60.564  1.00  0.00     0.030 A 
HETATM   12  N   UNL     1     -45.834  55.868 -61.172  1.00  0.00    -0.364 N 
HETATM   13  C   UNL     1     -47.268  58.935 -59.632  1.00  0.00     0.002 A 
HETATM   14  C   UNL     1     -46.343  59.044 -58.598  1.00  0.00     0.001 A 
HETATM   15  H   UNL     1     -46.353  55.560 -61.983  1.00  0.00     0.165 HD
HETATM   16  C   UNL     1     -44.736  55.239 -60.657  1.00  0.00     0.102 A 
ENDBRANCH   6   7
ENDBRANCH   2   5
BRANCH   1  17
HETATM   17  C   UNL     1     -41.026  54.605 -54.693  1.00  0.00     0.280 C 
BRANCH  17  18
HETATM   18  O   UNL     1     -40.332  53.447 -55.163  1.00  0.00    -0.342 OA
BRANCH  18  19
HETATM   19  C   UNL     1     -40.131  52.551 -54.145  1.00  0.00     0.069 A 
HETATM   20  C   UNL     1     -40.193  53.035 -52.840  1.00  0.00     0.037 A 
HETATM   21  C   UNL     1     -39.983  52.167 -51.764  1.00  0.00     0.009 A 
HETATM   22  C   UNL     1     -39.723  50.809 -51.989  1.00  0.00    -0.062 A 
HETATM   23  C   UNL     1     -39.506  49.865 -50.842  1.00  0.00     0.048 C 
HETATM   24  C   UNL     1     -39.708  50.327 -53.304  1.00  0.00     0.009 A 
HETATM   25  C   UNL     1     -39.915  51.194 -54.379  1.00  0.00     0.037 A 
ENDBRANCH  18  19
ENDBRANCH  17  18
ENDBRANCH   1  17
TORSDOF 5
ENDMDL
MODEL 5
REMARK VINA RESULT:      -7.5      2.397      3.103
REMARK  5 active torsions:
REMARK  status: ('A' for Active; 'I' for Inactive)
REMARK    1  A    between atoms: C_5  and  O_6 
REMARK    2  A    between atoms: O_6  and  C_7 
REMARK    3  A    between atoms: C_7  and  C_8 
REMARK       I    between atoms: C_8  and  N_9 
REMARK    4  A    between atoms: N_9  and  N_10 
REMARK    5  A    between atoms: C_11  and  C_12 
ROOT
HETATM    1  C   UNL     1     -42.630  55.708 -56.394  1.00  0.00     0.261 C 
HETATM    2  N   UNL     1     -41.683  56.094 -55.456  1.00  0.00    -0.246 N 
HETATM    3  O   UNL     1     -43.320  54.691 -56.330  1.00  0.00    -0.269 OA
HETATM    4  H   UNL     1     -41.189  56.974 -55.572  1.00  0.00     0.192 HD
ENDROOT
BRANCH   2   5
HETATM    5  N   UNL     1     -41.470  55.313 -54.359  1.00  0.00    -0.184 NA
HETATM    6  C   UNL     1     -40.588  54.375 -54.473  1.00  0.00     0.152 C 
BRANCH   6   7
HETATM    7  C   UNL     1     -40.334  53.509 -53.339  1.00  0.00     0.011 A 
HETATM    8  C   UNL     1     -40.059  52.103 -53.348  1.00  0.00     0.004 A 
HETATM    9  C   UNL     1     -39.900  51.701 -52.019  1.00  0.00     0.043 A 
HETATM   10  C   UNL     1     -39.947  51.125 -54.358  1.00  0.00     0.014 A 
HETATM   11  C   UNL     1     -39.632  50.377 -51.651  1.00  0.00     0.030 A 
HETATM   12  N   UNL     1     -40.062  52.818 -51.234  1.00  0.00    -0.364 N 
HETATM   13  C   UNL     1     -39.529  49.429 -52.673  1.00  0.00     0.002 A 
HETATM   14  C   UNL     1     -39.683  49.794 -54.006  1.00  0.00     0.001 A 
HETATM   15  H   UNL     1     -40.002  52.826 -50.225  1.00  0.00     0.165 HD
HETATM   16  C   UNL     1     -40.329  53.907 -52.015  1.00  0.00     0.102 A 
ENDBRANCH   6   7
ENDBRANCH   2   5
BRANCH   1  17
HETATM   17  C   UNL     1     -42.671  56.616 -57.617  1.00  0.00     0.280 C 
BRANCH  17  18
HETATM   18  O   UNL     1     -42.081  57.890 -57.348  1.00  0.00    -0.342 OA
BRANCH  18  19
HETATM   19  C   UNL     1     -42.026  58.654 -58.485  1.00  0.00     0.069 A 
HETATM   20  C   UNL     1     -41.968  60.037 -58.330  1.00  0.00     0.037 A 
HETATM   21  C   UNL     1     -41.924  60.863 -59.457  1.00  0.00     0.009 A 
HETATM   22  C   UNL     1     -41.922  60.309 -60.744  1.00  0.00    -0.062 A 
HETATM   23  C   UNL     1     -41.864  61.185 -61.960  1.00  0.00     0.048 C 
HETATM   24  C   UNL     1     -41.934  58.916 -60.885  1.00  0.00     0.009 A 
HETATM   25  C   UNL     1     -41.982  58.090 -59.759  1.00  0.00     0.037 A 
ENDBRANCH  18  19
ENDBRANCH  17  18
ENDBRANCH   1  17
TORSDOF 5
ENDMDL
MODEL 6
REMARK VINA RESULT:      -7.5      2.150      8.380
REMARK  5 active torsions:
REMARK  status: ('A' for Active; 'I' for Inactive)
REMARK    1  A    between atoms: C_5  and  O_6 
REMARK    2  A    between atoms: O_6  and  C_7 
REMARK    3  A    between atoms: C_7  and  C_8 
REMARK       I    between atoms: C_8  and  N_9 
REMARK    4  A    between atoms: N_9  and  N_10 
REMARK    5  A    between atoms: C_11  and  C_12 
ROOT
HETATM    1  C   UNL     1     -42.316  55.830 -52.790  1.00  0.00     0.261 C 
HETATM    2  N   UNL     1     -43.192  55.319 -53.737  1.00  0.00    -0.246 N 
HETATM    3  O   UNL     1     -41.730  56.909 -52.873  1.00  0.00    -0.269 OA
HETATM    4  H   UNL     1     -43.663  54.436 -53.563  1.00  0.00     0.192 HD
ENDROOT
BRANCH   2   5
HETATM    5  N   UNL     1     -43.452  56.038 -54.866  1.00  0.00    -0.184 NA
HETATM    6  C   UNL     1     -42.766  55.738 -55.920  1.00  0.00     0.152 C 
BRANCH   6   7
HETATM    7  C   UNL     1     -42.996  56.483 -57.142  1.00  0.00     0.011 A 
HETATM    8  C   UNL     1     -43.587  56.016 -58.361  1.00  0.00     0.004 A 
HETATM    9  C   UNL     1     -43.582  57.084 -59.262  1.00  0.00     0.043 A 
HETATM   10  C   UNL     1     -44.115  54.781 -58.794  1.00  0.00     0.014 A 
HETATM   11  C   UNL     1     -44.077  56.981 -60.568  1.00  0.00     0.030 A 
HETATM   12  N   UNL     1     -43.018  58.159 -58.616  1.00  0.00    -0.364 N 
HETATM   13  C   UNL     1     -44.590  55.745 -60.970  1.00  0.00     0.002 A 
HETATM   14  C   UNL     1     -44.610  54.660 -60.099  1.00  0.00     0.001 A 
HETATM   15  H   UNL     1     -42.882  59.072 -59.028  1.00  0.00     0.165 HD
HETATM   16  C   UNL     1     -42.657  57.808 -57.346  1.00  0.00     0.102 A 
ENDBRANCH   6   7
ENDBRANCH   2   5
BRANCH   1  17
HETATM   17  C   UNL     1     -42.036  54.863 -51.645  1.00  0.00     0.280 C 
BRANCH  17  18
HETATM   18  O   UNL     1     -40.642  54.573 -51.530  1.00  0.00    -0.342 OA
BRANCH  18  19
HETATM   19  C   UNL     1     -40.335  53.390 -52.152  1.00  0.00     0.069 A 
HETATM   20  C   UNL     1     -40.450  53.344 -53.540  1.00  0.00     0.037 A 
HETATM   21  C   UNL     1     -40.163  52.160 -54.224  1.00  0.00     0.009 A 
HETATM   22  C   UNL     1     -39.746  51.019 -53.525  1.00  0.00    -0.062 A 
HETATM   23  C   UNL     1     -39.425  49.745 -54.249  1.00  0.00     0.048 C 
HETATM   24  C   UNL     1     -39.592  51.092 -52.135  1.00  0.00     0.009 A 
HETATM   25  C   UNL     1     -39.882  52.275 -51.450  1.00  0.00     0.037 A 
ENDBRANCH  18  19
ENDBRANCH  17  18
ENDBRANCH   1  17
TORSDOF 5
ENDMDL
MODEL 7
REMARK VINA RESULT:      -7.3      2.442      8.998
REMARK  5 active torsions:
REMARK  status: ('A' for Active; 'I' for Inactive)
REMARK    1  A    between atoms: C_5  and  O_6 
REMARK    2  A    between atoms: O_6  and  C_7 
REMARK    3  A    between atoms: C_7  and  C_8 
REMARK       I    between atoms: C_8  and  N_9 
REMARK    4  A    between atoms: N_9  and  N_10 
REMARK    5  A    between atoms: C_11  and  C_12 
ROOT
HETATM    1  C   UNL     1     -42.814  56.333 -54.055  1.00  0.00     0.261 C 
HETATM    2  N   UNL     1     -43.124  55.693 -55.247  1.00  0.00    -0.246 N 
HETATM    3  O   UNL     1     -42.798  57.552 -53.887  1.00  0.00    -0.269 OA
HETATM    4  H   UNL     1     -43.152  54.678 -55.281  1.00  0.00     0.192 HD
ENDROOT
BRANCH   2   5
HETATM    5  N   UNL     1     -43.443  56.437 -56.344  1.00  0.00    -0.184 NA
HETATM    6  C   UNL     1     -43.028  55.998 -57.487  1.00  0.00     0.152 C 
BRANCH   6   7
HETATM    7  C   UNL     1     -43.330  56.760 -58.682  1.00  0.00     0.011 A 
HETATM    8  C   UNL     1     -42.867  58.070 -59.033  1.00  0.00     0.004 A 
HETATM    9  C   UNL     1     -43.435  58.396 -60.267  1.00  0.00     0.043 A 
HETATM   10  C   UNL     1     -42.031  59.022 -58.411  1.00  0.00     0.014 A 
HETATM   11  C   UNL     1     -43.208  59.620 -60.910  1.00  0.00     0.030 A 
HETATM   12  N   UNL     1     -44.205  57.326 -60.657  1.00  0.00    -0.364 N 
HETATM   13  C   UNL     1     -42.378  60.544 -60.270  1.00  0.00     0.002 A 
HETATM   14  C   UNL     1     -41.797  60.253 -59.040  1.00  0.00     0.001 A 
HETATM   15  H   UNL     1     -44.738  57.281 -61.514  1.00  0.00     0.165 HD
HETATM   16  C   UNL     1     -44.154  56.341 -59.710  1.00  0.00     0.102 A 
ENDBRANCH   6   7
ENDBRANCH   2   5
BRANCH   1  17
HETATM   17  C   UNL     1     -42.366  55.377 -52.957  1.00  0.00     0.280 C 
BRANCH  17  18
HETATM   18  O   UNL     1     -40.946  55.213 -52.947  1.00  0.00    -0.342 OA
BRANCH  18  19
HETATM   19  C   UNL     1     -40.605  53.894 -53.095  1.00  0.00     0.069 A 
HETATM   20  C   UNL     1     -40.197  53.202 -51.957  1.00  0.00     0.037 A 
HETATM   21  C   UNL     1     -39.825  51.858 -52.053  1.00  0.00     0.009 A 
HETATM   22  C   UNL     1     -39.873  51.196 -53.287  1.00  0.00    -0.062 A 
HETATM   23  C   UNL     1     -39.487  49.750 -53.402  1.00  0.00     0.048 C 
HETATM   24  C   UNL     1     -40.328  51.890 -54.415  1.00  0.00     0.009 A 
HETATM   25  C   UNL     1     -40.697  53.234 -54.320  1.00  0.00     0.037 A 
ENDBRANCH  18  19
ENDBRANCH  17  18
ENDBRANCH   1  17
TORSDOF 5
ENDMDL
MODEL 8
REMARK VINA RESULT:      -7.1      7.555     10.163
REMARK  5 active torsions:
REMARK  status: ('A' for Active; 'I' for Inactive)
REMARK    1  A    between atoms: C_5  and  O_6 
REMARK    2  A    between atoms: O_6  and  C_7 
REMARK    3  A    between atoms: C_7  and  C_8 
REMARK       I    between atoms: C_8  and  N_9 
REMARK    4  A    between atoms: N_9  and  N_10 
REMARK    5  A    between atoms: C_11  and  C_12 
ROOT
HETATM    1  C   UNL     1     -45.351  59.677 -50.134  1.00  0.00     0.261 C 
HETATM    2  N   UNL     1     -44.114  59.299 -50.636  1.00  0.00    -0.246 N 
HETATM    3  O   UNL     1     -46.392  59.031 -50.250  1.00  0.00    -0.269 OA
HETATM    4  H   UNL     1     -43.298  59.878 -50.455  1.00  0.00     0.192 HD
ENDROOT
BRANCH   2   5
HETATM    5  N   UNL     1     -43.998  58.125 -51.319  1.00  0.00    -0.184 NA
HETATM    6  C   UNL     1     -43.766  58.209 -52.588  1.00  0.00     0.152 C 
BRANCH   6   7
HETATM    7  C   UNL     1     -43.648  56.989 -53.362  1.00  0.00     0.011 A 
HETATM    8  C   UNL     1     -42.726  55.909 -53.170  1.00  0.00     0.004 A 
HETATM    9  C   UNL     1     -42.979  54.963 -54.167  1.00  0.00     0.043 A 
HETATM   10  C   UNL     1     -41.686  55.649 -52.252  1.00  0.00     0.014 A 
HETATM   11  C   UNL     1     -42.248  53.775 -54.291  1.00  0.00     0.030 A 
HETATM   12  N   UNL     1     -44.017  55.443 -54.930  1.00  0.00    -0.364 N 
HETATM   13  C   UNL     1     -41.223  53.545 -53.371  1.00  0.00     0.002 A 
HETATM   14  C   UNL     1     -40.943  54.466 -52.366  1.00  0.00     0.001 A 
HETATM   15  H   UNL     1     -44.413  54.967 -55.728  1.00  0.00     0.165 HD
HETATM   16  C   UNL     1     -44.422  56.661 -54.460  1.00  0.00     0.102 A 
ENDBRANCH   6   7
ENDBRANCH   2   5
BRANCH   1  17
HETATM   17  C   UNL     1     -45.346  61.063 -49.500  1.00  0.00     0.280 C 
BRANCH  17  18
HETATM   18  O   UNL     1     -46.370  61.195 -48.512  1.00  0.00    -0.342 OA
BRANCH  18  19
HETATM   19  C   UNL     1     -45.848  61.628 -47.321  1.00  0.00     0.069 A 
HETATM   20  C   UNL     1     -45.242  60.679 -46.500  1.00  0.00     0.037 A 
HETATM   21  C   UNL     1     -44.705  61.064 -45.269  1.00  0.00     0.009 A 
HETATM   22  C   UNL     1     -44.758  62.403 -44.859  1.00  0.00    -0.062 A 
HETATM   23  C   UNL     1     -44.175  62.831 -43.544  1.00  0.00     0.048 C 
HETATM   24  C   UNL     1     -45.329  63.355 -45.713  1.00  0.00     0.009 A 
HETATM   25  C   UNL     1     -45.869  62.970 -46.943  1.00  0.00     0.037 A 
ENDBRANCH  18  19
ENDBRANCH  17  18
ENDBRANCH   1  17
TORSDOF 5
ENDMDL
MODEL 9
REMARK VINA RESULT:      -7.1      6.155      7.962
REMARK  5 active torsions:
REMARK  status: ('A' for Active; 'I' for Inactive)
REMARK    1  A    between atoms: C_5  and  O_6 
REMARK    2  A    between atoms: O_6  and  C_7 
REMARK    3  A    between atoms: C_7  and  C_8 
REMARK       I    between atoms: C_8  and  N_9 
REMARK    4  A    between atoms: N_9  and  N_10 
REMARK    5  A    between atoms: C_11  and  C_12 
ROOT
HETATM    1  C   UNL     1     -41.658  59.333 -52.048  1.00  0.00     0.261 C 
HETATM    2  N   UNL     1     -42.180  58.167 -51.505  1.00  0.00    -0.246 N 
HETATM    3  O   UNL     1     -40.520  59.460 -52.498  1.00  0.00    -0.269 OA
HETATM    4  H   UNL     1     -43.147  58.144 -51.195  1.00  0.00     0.192 HD
ENDROOT
BRANCH   2   5
HETATM    5  N   UNL     1     -41.402  57.049 -51.447  1.00  0.00    -0.184 NA
HETATM    6  C   UNL     1     -42.009  55.928 -51.233  1.00  0.00     0.152 C 
BRANCH   6   7
HETATM    7  C   UNL     1     -41.225  54.711 -51.150  1.00  0.00     0.011 A 
HETATM    8  C   UNL     1     -40.828  53.843 -52.218  1.00  0.00     0.004 A 
HETATM    9  C   UNL     1     -40.100  52.792 -51.653  1.00  0.00     0.043 A 
HETATM   10  C   UNL     1     -41.030  53.839 -53.615  1.00  0.00     0.014 A 
HETATM   11  C   UNL     1     -39.566  51.743 -52.411  1.00  0.00     0.030 A 
HETATM   12  N   UNL     1     -40.050  53.015 -50.297  1.00  0.00    -0.364 N 
HETATM   13  C   UNL     1     -39.784  51.763 -53.790  1.00  0.00     0.002 A 
HETATM   14  C   UNL     1     -40.504  52.793 -54.387  1.00  0.00     0.001 A 
HETATM   15  H   UNL     1     -39.587  52.411 -49.631  1.00  0.00     0.165 HD
HETATM   16  C   UNL     1     -40.726  54.160 -49.983  1.00  0.00     0.102 A 
ENDBRANCH   6   7
ENDBRANCH   2   5
BRANCH   1  17
HETATM   17  C   UNL     1     -42.602  60.524 -51.935  1.00  0.00     0.280 C 
BRANCH  17  18
HETATM   18  O   UNL     1     -43.629  60.294 -50.968  1.00  0.00    -0.342 OA
BRANCH  18  19
HETATM   19  C   UNL     1     -43.813  61.399 -50.178  1.00  0.00     0.069 A 
HETATM   20  C   UNL     1     -44.660  61.271 -49.079  1.00  0.00     0.037 A 
HETATM   21  C   UNL     1     -44.893  62.370 -48.247  1.00  0.00     0.009 A 
HETATM   22  C   UNL     1     -44.269  63.598 -48.503  1.00  0.00    -0.062 A 
HETATM   23  C   UNL     1     -44.503  64.782 -47.611  1.00  0.00     0.048 C 
HETATM   24  C   UNL     1     -43.385  63.701 -49.584  1.00  0.00     0.009 A 
HETATM   25  C   UNL     1     -43.154  62.604 -50.417  1.00  0.00     0.037 A 
ENDBRANCH  18  19
ENDBRANCH  17  18
ENDBRANCH   1  17
TORSDOF 5
ENDMDL
MODEL 10
REMARK VINA RESULT:      -7.1      7.208     10.151
REMARK  5 active torsions:
REMARK  status: ('A' for Active; 'I' for Inactive)
REMARK    1  A    between atoms: C_5  and  O_6 
REMARK    2  A    between atoms: O_6  and  C_7 
REMARK    3  A    between atoms: C_7  and  C_8 
REMARK       I    between atoms: C_8  and  N_9 
REMARK    4  A    between atoms: N_9  and  N_10 
REMARK    5  A    between atoms: C_11  and  C_12 
ROOT
HETATM    1  C   UNL     1     -42.847  57.643 -51.645  1.00  0.00     0.261 C 
HETATM    2  N   UNL     1     -42.744  58.907 -51.081  1.00  0.00    -0.246 N 
HETATM    3  O   UNL     1     -43.899  57.040 -51.852  1.00  0.00    -0.269 OA
HETATM    4  H   UNL     1     -41.832  59.344 -50.987  1.00  0.00     0.192 HD
ENDROOT
BRANCH   2   5
HETATM    5  N   UNL     1     -43.877  59.570 -50.714  1.00  0.00    -0.184 NA
HETATM    6  C   UNL     1     -43.721  60.718 -50.140  1.00  0.00     0.152 C 
BRANCH   6   7
HETATM    7  C   UNL     1     -44.894  61.457 -49.718  1.00  0.00     0.011 A 
HETATM    8  C   UNL     1     -45.343  61.710 -48.381  1.00  0.00     0.004 A 
HETATM    9  C   UNL     1     -46.527  62.448 -48.472  1.00  0.00     0.043 A 
HETATM   10  C   UNL     1     -44.866  61.370 -47.098  1.00  0.00     0.014 A 
HETATM   11  C   UNL     1     -47.253  62.862 -47.349  1.00  0.00     0.030 A 
HETATM   12  N   UNL     1     -46.784  62.642 -49.808  1.00  0.00    -0.364 N 
HETATM   13  C   UNL     1     -46.759  62.508 -46.091  1.00  0.00     0.002 A 
HETATM   14  C   UNL     1     -45.584  61.774 -45.964  1.00  0.00     0.001 A 
HETATM   15  H   UNL     1     -47.581  63.144 -50.175  1.00  0.00     0.165 HD
HETATM   16  C   UNL     1     -45.815  62.047 -50.565  1.00  0.00     0.102 A 
ENDBRANCH   6   7
ENDBRANCH   2   5
BRANCH   1  17
HETATM   17  C   UNL     1     -41.495  56.983 -51.893  1.00  0.00     0.280 C 
BRANCH  17  18
HETATM   18  O   UNL     1     -41.283  56.722 -53.282  1.00  0.00    -0.342 OA
BRANCH  18  19
HETATM   19  C   UNL     1     -40.995  55.398 -53.493  1.00  0.00     0.069 A 
HETATM   20  C   UNL     1     -40.489  55.040 -54.740  1.00  0.00     0.037 A 
HETATM   21  C   UNL     1     -40.190  53.702 -55.013  1.00  0.00     0.009 A 
HETATM   22  C   UNL     1     -40.384  52.718 -54.034  1.00  0.00    -0.062 A 
HETATM   23  C   UNL     1     -40.057  51.280 -54.311  1.00  0.00     0.048 C 
HETATM   24  C   UNL     1     -40.851  53.098 -52.770  1.00  0.00     0.009 A 
HETATM   25  C   UNL     1     -41.153  54.435 -52.498  1.00  0.00     0.037 A 
ENDBRANCH  18  19
ENDBRANCH  17  18
ENDBRANCH   1  17
TORSDOF 5
ENDMDL
