MODEL 1
REMARK VINA RESULT:      -8.3      0.000      0.000
REMARK  5 active torsions:
REMARK  status: ('A' for Active; 'I' for Inactive)
REMARK    1  A    between atoms: C_2  and  O_3 
REMARK    2  A    between atoms: O_3  and  C_4 
REMARK    3  A    between atoms: C_5  and  C_6 
REMARK       I    between atoms: C_6  and  N_7 
REMARK    4  A    between atoms: N_10  and  C_11 
REMARK    5  A    between atoms: C_15  and  C_16 
ROOT
HETATM    1  C   UNL     1     -43.472  60.117 -57.320  1.00  0.00     0.256 C 
HETATM    2  N   UNL     1     -43.027  59.000 -56.604  1.00  0.00    -0.346 N 
HETATM    3  C   UNL     1     -42.480  57.775 -57.214  1.00  0.00     0.146 C 
HETATM    4  C   UNL     1     -43.347  56.521 -56.986  1.00  0.00     0.144 C 
HETATM    5  N   UNL     1     -43.295  56.067 -55.584  1.00  0.00    -0.365 N 
HETATM    6  C   UNL     1     -44.263  56.644 -54.643  1.00  0.00     0.126 C 
HETATM    7  C   UNL     1     -44.569  58.122 -54.882  1.00  0.00     0.040 C 
HETATM    8  C   UNL     1     -43.319  58.950 -55.171  1.00  0.00     0.127 C 
HETATM    9  O   UNL     1     -44.111  61.037 -56.813  1.00  0.00    -0.267 OA
ENDROOT
BRANCH   5  10
HETATM   10  C   UNL     1     -42.324  55.191 -55.182  1.00  0.00     0.122 A 
HETATM   11  N   UNL     1     -41.100  55.086 -55.790  1.00  0.00    -0.262 N 
HETATM   12  H   UNL     1     -40.745  55.639 -56.559  1.00  0.00     0.191 HD
HETATM   13  N   UNL     1     -40.302  54.135 -55.284  1.00  0.00    -0.173 NA
HETATM   14  C   UNL     1     -41.007  53.614 -54.268  1.00  0.00     0.090 A 
HETATM   15  C   UNL     1     -42.269  54.265 -54.160  1.00  0.00     0.084 A 
BRANCH  14  16
HETATM   16  C   UNL     1     -40.475  52.515 -53.452  1.00  0.00    -0.005 A 
HETATM   17  C   UNL     1     -40.215  51.253 -54.011  1.00  0.00     0.017 A 
HETATM   18  C   UNL     1     -39.697  50.219 -53.224  1.00  0.00     0.043 A 
HETATM   19  C   UNL     1     -39.436  50.444 -51.878  1.00  0.00     0.116 A 
HETATM   20  F   UNL     1     -38.937  49.453 -51.128  1.00  0.00    -0.206 F 
HETATM   21  C   UNL     1     -39.686  51.681 -51.300  1.00  0.00     0.043 A 
HETATM   22  C   UNL     1     -40.206  52.713 -52.085  1.00  0.00     0.017 A 
ENDBRANCH  14  16
ENDBRANCH   5  10
BRANCH   1  23
HETATM   23  C   UNL     1     -43.105  60.246 -58.745  1.00  0.00     0.065 A 
HETATM   24  C   UNL     1     -43.950  59.758 -59.748  1.00  0.00     0.084 A 
HETATM   25  C   UNL     1     -43.586  59.905 -61.089  1.00  0.00     0.038 A 
HETATM   26  C   UNL     1     -42.411  60.580 -61.427  1.00  0.00     0.003 A 
HETATM   27  C   UNL     1     -41.592  61.106 -60.427  1.00  0.00     0.001 A 
HETATM   28  C   UNL     1     -41.938  60.945 -59.086  1.00  0.00     0.020 A 
BRANCH  24  29
HETATM   29  O   UNL     1     -45.087  59.074 -59.400  1.00  0.00    -0.350 OA
BRANCH  29  30
HETATM   30  C   UNL     1     -45.141  57.781 -60.016  1.00  0.00     0.171 C 
HETATM   31  C   UNL     1     -46.361  57.049 -59.488  1.00  0.00     0.034 C 
ENDBRANCH  29  30
ENDBRANCH  24  29
ENDBRANCH   1  23
TORSDOF 5
ENDMDL
MODEL 2
REMARK VINA RESULT:      -8.2      1.915      3.112
REMARK  5 active torsions:
REMARK  status: ('A' for Active; 'I' for Inactive)
REMARK    1  A    between atoms: C_2  and  O_3 
REMARK    2  A    between atoms: O_3  and  C_4 
REMARK    3  A    between atoms: C_5  and  C_6 
REMARK       I    between atoms: C_6  and  N_7 
REMARK    4  A    between atoms: N_10  and  C_11 
REMARK    5  A    between atoms: C_15  and  C_16 
ROOT
HETATM    1  C   UNL     1     -43.526  58.070 -59.147  1.00  0.00     0.256 C 
HETATM    2  N   UNL     1     -42.908  57.550 -58.005  1.00  0.00    -0.346 N 
HETATM    3  C   UNL     1     -43.462  56.472 -57.167  1.00  0.00     0.146 C 
HETATM    4  C   UNL     1     -43.828  56.915 -55.736  1.00  0.00     0.144 C 
HETATM    5  N   UNL     1     -42.629  57.182 -54.923  1.00  0.00    -0.365 N 
HETATM    6  C   UNL     1     -42.060  58.535 -54.965  1.00  0.00     0.126 C 
HETATM    7  C   UNL     1     -42.129  59.203 -56.339  1.00  0.00     0.040 C 
HETATM    8  C   UNL     1     -41.743  58.262 -57.478  1.00  0.00     0.127 C 
HETATM    9  O   UNL     1     -43.156  59.099 -59.710  1.00  0.00    -0.267 OA
ENDROOT
BRANCH   5  10
HETATM   10  C   UNL     1     -42.041  56.170 -54.214  1.00  0.00     0.122 A 
HETATM   11  N   UNL     1     -41.552  56.321 -52.942  1.00  0.00    -0.262 N 
HETATM   12  H   UNL     1     -41.588  57.149 -52.362  1.00  0.00     0.191 HD
HETATM   13  N   UNL     1     -40.965  55.227 -52.433  1.00  0.00    -0.173 NA
HETATM   14  C   UNL     1     -41.108  54.296 -53.390  1.00  0.00     0.090 A 
HETATM   15  C   UNL     1     -41.796  54.844 -54.510  1.00  0.00     0.084 A 
BRANCH  14  16
HETATM   16  C   UNL     1     -40.579  52.938 -53.219  1.00  0.00    -0.005 A 
HETATM   17  C   UNL     1     -40.030  52.518 -51.996  1.00  0.00     0.017 A 
HETATM   18  C   UNL     1     -39.541  51.217 -51.845  1.00  0.00     0.043 A 
HETATM   19  C   UNL     1     -39.598  50.331 -52.914  1.00  0.00     0.116 A 
HETATM   20  F   UNL     1     -39.130  49.085 -52.765  1.00  0.00    -0.206 F 
HETATM   21  C   UNL     1     -40.132  50.721 -54.134  1.00  0.00     0.043 A 
HETATM   22  C   UNL     1     -40.620  52.022 -54.286  1.00  0.00     0.017 A 
ENDBRANCH  14  16
ENDBRANCH   5  10
BRANCH   1  23
HETATM   23  C   UNL     1     -44.640  57.319 -59.762  1.00  0.00     0.065 A 
HETATM   24  C   UNL     1     -45.945  57.822 -59.730  1.00  0.00     0.084 A 
HETATM   25  C   UNL     1     -46.979  57.099 -60.332  1.00  0.00     0.038 A 
HETATM   26  C   UNL     1     -46.701  55.907 -61.005  1.00  0.00     0.003 A 
HETATM   27  C   UNL     1     -45.392  55.429 -61.074  1.00  0.00     0.001 A 
HETATM   28  C   UNL     1     -44.358  56.135 -60.459  1.00  0.00     0.020 A 
BRANCH  24  29
HETATM   29  O   UNL     1     -46.206  58.980 -59.044  1.00  0.00    -0.350 OA
BRANCH  29  30
HETATM   30  C   UNL     1     -46.714  58.718 -57.729  1.00  0.00     0.171 C 
HETATM   31  C   UNL     1     -45.962  59.592 -56.742  1.00  0.00     0.034 C 
ENDBRANCH  29  30
ENDBRANCH  24  29
ENDBRANCH   1  23
TORSDOF 5
ENDMDL
MODEL 3
REMARK VINA RESULT:      -8.2      1.510      2.485
REMARK  5 active torsions:
REMARK  status: ('A' for Active; 'I' for Inactive)
REMARK    1  A    between atoms: C_2  and  O_3 
REMARK    2  A    between atoms: O_3  and  C_4 
REMARK    3  A    between atoms: C_5  and  C_6 
REMARK       I    between atoms: C_6  and  N_7 
REMARK    4  A    between atoms: N_10  and  C_11 
REMARK    5  A    between atoms: C_15  and  C_16 
ROOT
HETATM    1  C   UNL     1     -43.988  59.777 -57.125  1.00  0.00     0.256 C 
HETATM    2  N   UNL     1     -43.175  58.810 -56.525  1.00  0.00    -0.346 N 
HETATM    3  C   UNL     1     -43.528  57.386 -56.381  1.00  0.00     0.146 C 
HETATM    4  C   UNL     1     -43.703  56.927 -54.920  1.00  0.00     0.144 C 
HETATM    5  N   UNL     1     -42.416  56.870 -54.207  1.00  0.00    -0.365 N 
HETATM    6  C   UNL     1     -41.947  58.091 -53.541  1.00  0.00     0.126 C 
HETATM    7  C   UNL     1     -42.262  59.381 -54.298  1.00  0.00     0.040 C 
HETATM    8  C   UNL     1     -41.992  59.272 -55.797  1.00  0.00     0.127 C 
HETATM    9  O   UNL     1     -43.773  60.986 -57.051  1.00  0.00    -0.267 OA
ENDROOT
BRANCH   5  10
HETATM   10  C   UNL     1     -41.665  55.726 -54.237  1.00  0.00     0.122 A 
HETATM   11  N   UNL     1     -40.690  55.485 -55.170  1.00  0.00    -0.262 N 
HETATM   12  H   UNL     1     -40.377  56.102 -55.908  1.00  0.00     0.191 HD
HETATM   13  N   UNL     1     -40.098  54.286 -55.067  1.00  0.00    -0.173 NA
HETATM   14  C   UNL     1     -40.673  53.722 -53.992  1.00  0.00     0.090 A 
HETATM   15  C   UNL     1     -41.642  54.603 -53.434  1.00  0.00     0.084 A 
BRANCH  14  16
HETATM   16  C   UNL     1     -40.300  52.374 -53.546  1.00  0.00    -0.005 A 
HETATM   17  C   UNL     1     -40.320  51.282 -54.429  1.00  0.00     0.017 A 
HETATM   18  C   UNL     1     -39.951  50.006 -53.992  1.00  0.00     0.043 A 
HETATM   19  C   UNL     1     -39.561  49.817 -52.672  1.00  0.00     0.116 A 
HETATM   20  F   UNL     1     -39.206  48.594 -52.258  1.00  0.00    -0.206 F 
HETATM   21  C   UNL     1     -39.536  50.878 -51.778  1.00  0.00     0.043 A 
HETATM   22  C   UNL     1     -39.906  52.153 -52.213  1.00  0.00     0.017 A 
ENDBRANCH  14  16
ENDBRANCH   5  10
BRANCH   1  23
HETATM   23  C   UNL     1     -45.132  59.337 -57.951  1.00  0.00     0.065 A 
HETATM   24  C   UNL     1     -44.941  58.928 -59.275  1.00  0.00     0.084 A 
HETATM   25  C   UNL     1     -46.038  58.503 -60.030  1.00  0.00     0.038 A 
HETATM   26  C   UNL     1     -47.307  58.440 -59.450  1.00  0.00     0.003 A 
HETATM   27  C   UNL     1     -47.488  58.806 -58.116  1.00  0.00     0.001 A 
HETATM   28  C   UNL     1     -46.402  59.250 -57.362  1.00  0.00     0.020 A 
BRANCH  24  29
HETATM   29  O   UNL     1     -43.695  59.020 -59.838  1.00  0.00    -0.350 OA
BRANCH  29  30
HETATM   30  C   UNL     1     -43.241  57.756 -60.340  1.00  0.00     0.171 C 
HETATM   31  C   UNL     1     -41.775  57.597 -59.986  1.00  0.00     0.034 C 
ENDBRANCH  29  30
ENDBRANCH  24  29
ENDBRANCH   1  23
TORSDOF 5
ENDMDL
MODEL 4
REMARK VINA RESULT:      -8.2      1.923      3.122
REMARK  5 active torsions:
REMARK  status: ('A' for Active; 'I' for Inactive)
REMARK    1  A    between atoms: C_2  and  O_3 
REMARK    2  A    between atoms: O_3  and  C_4 
REMARK    3  A    between atoms: C_5  and  C_6 
REMARK       I    between atoms: C_6  and  N_7 
REMARK    4  A    between atoms: N_10  and  C_11 
REMARK    5  A    between atoms: C_15  and  C_16 
ROOT
HETATM    1  C   UNL     1     -43.768  59.182 -56.826  1.00  0.00     0.256 C 
HETATM    2  N   UNL     1     -43.095  58.413 -55.871  1.00  0.00    -0.346 N 
HETATM    3  C   UNL     1     -43.541  57.095 -55.386  1.00  0.00     0.146 C 
HETATM    4  C   UNL     1     -43.930  57.075 -53.895  1.00  0.00     0.144 C 
HETATM    5  N   UNL     1     -42.751  57.203 -53.020  1.00  0.00    -0.365 N 
HETATM    6  C   UNL     1     -42.307  58.556 -52.664  1.00  0.00     0.126 C 
HETATM    7  C   UNL     1     -42.449  59.581 -53.789  1.00  0.00     0.040 C 
HETATM    8  C   UNL     1     -41.992  59.045 -55.144  1.00  0.00     0.127 C 
HETATM    9  O   UNL     1     -43.498  60.358 -57.065  1.00  0.00    -0.267 OA
ENDROOT
BRANCH   5  10
HETATM   10  C   UNL     1     -42.067  56.086 -52.623  1.00  0.00     0.122 A 
HETATM   11  N   UNL     1     -41.374  56.003 -51.443  1.00  0.00    -0.262 N 
HETATM   12  H   UNL     1     -41.305  56.705 -50.718  1.00  0.00     0.191 HD
HETATM   13  N   UNL     1     -40.726  54.844 -51.253  1.00  0.00    -0.173 NA
HETATM   14  C   UNL     1     -41.035  54.109 -52.333  1.00  0.00     0.090 A 
HETATM   15  C   UNL     1     -41.890  54.845 -53.201  1.00  0.00     0.084 A 
BRANCH  14  16
HETATM   16  C   UNL     1     -40.501  52.753 -52.512  1.00  0.00    -0.005 A 
HETATM   17  C   UNL     1     -39.978  52.027 -51.429  1.00  0.00     0.017 A 
HETATM   18  C   UNL     1     -39.484  50.732 -51.613  1.00  0.00     0.043 A 
HETATM   19  C   UNL     1     -39.511  50.158 -52.878  1.00  0.00     0.116 A 
HETATM   20  F   UNL     1     -39.040  48.916 -53.050  1.00  0.00    -0.206 F 
HETATM   21  C   UNL     1     -40.020  50.855 -53.966  1.00  0.00     0.043 A 
HETATM   22  C   UNL     1     -40.512  52.150 -53.783  1.00  0.00     0.017 A 
ENDBRANCH  14  16
ENDBRANCH   5  10
BRANCH   1  23
HETATM   23  C   UNL     1     -44.817  58.543 -57.649  1.00  0.00     0.065 A 
HETATM   24  C   UNL     1     -44.478  57.660 -58.679  1.00  0.00     0.084 A 
HETATM   25  C   UNL     1     -45.490  57.057 -59.432  1.00  0.00     0.038 A 
HETATM   26  C   UNL     1     -46.831  57.298 -59.124  1.00  0.00     0.003 A 
HETATM   27  C   UNL     1     -47.168  58.145 -58.068  1.00  0.00     0.001 A 
HETATM   28  C   UNL     1     -46.164  58.765 -57.324  1.00  0.00     0.020 A 
BRANCH  24  29
HETATM   29  O   UNL     1     -43.158  57.453 -58.986  1.00  0.00    -0.350 OA
BRANCH  29  30
HETATM   30  C   UNL     1     -42.879  57.744 -60.361  1.00  0.00     0.171 C 
HETATM   31  C   UNL     1     -42.219  59.108 -60.439  1.00  0.00     0.034 C 
ENDBRANCH  29  30
ENDBRANCH  24  29
ENDBRANCH   1  23
TORSDOF 5
ENDMDL
MODEL 5
REMARK VINA RESULT:      -8.1      4.212      9.457
REMARK  5 active torsions:
REMARK  status: ('A' for Active; 'I' for Inactive)
REMARK    1  A    between atoms: C_2  and  O_3 
REMARK    2  A    between atoms: O_3  and  C_4 
REMARK    3  A    between atoms: C_5  and  C_6 
REMARK       I    between atoms: C_6  and  N_7 
REMARK    4  A    between atoms: N_10  and  C_11 
REMARK    5  A    between atoms: C_15  and  C_16 
ROOT
HETATM    1  C   UNL     1     -42.682  54.340 -52.704  1.00  0.00     0.256 C 
HETATM    2  N   UNL     1     -42.743  55.523 -53.448  1.00  0.00    -0.346 N 
HETATM    3  C   UNL     1     -41.611  56.110 -54.186  1.00  0.00     0.146 C 
HETATM    4  C   UNL     1     -41.143  57.473 -53.639  1.00  0.00     0.144 C 
HETATM    5  N   UNL     1     -42.120  58.540 -53.920  1.00  0.00    -0.365 N 
HETATM    6  C   UNL     1     -43.195  58.759 -52.945  1.00  0.00     0.126 C 
HETATM    7  C   UNL     1     -43.732  57.480 -52.303  1.00  0.00     0.040 C 
HETATM    8  C   UNL     1     -43.942  56.352 -53.311  1.00  0.00     0.127 C 
HETATM    9  O   UNL     1     -43.568  53.977 -51.932  1.00  0.00    -0.267 OA
ENDROOT
BRANCH   5  10
HETATM   10  C   UNL     1     -42.049  59.244 -55.092  1.00  0.00     0.122 A 
HETATM   11  N   UNL     1     -42.002  60.612 -55.152  1.00  0.00    -0.262 N 
HETATM   12  H   UNL     1     -41.975  61.262 -54.377  1.00  0.00     0.191 HD
HETATM   13  N   UNL     1     -41.987  61.120 -56.393  1.00  0.00    -0.173 NA
HETATM   14  C   UNL     1     -41.980  60.042 -57.193  1.00  0.00     0.090 A 
HETATM   15  C   UNL     1     -41.996  58.851 -56.414  1.00  0.00     0.084 A 
BRANCH  14  16
HETATM   16  C   UNL     1     -41.976  60.176 -58.656  1.00  0.00    -0.005 A 
HETATM   17  C   UNL     1     -42.343  59.105 -59.486  1.00  0.00     0.017 A 
HETATM   18  C   UNL     1     -42.346  59.251 -60.877  1.00  0.00     0.043 A 
HETATM   19  C   UNL     1     -41.982  60.467 -61.442  1.00  0.00     0.116 A 
HETATM   20  F   UNL     1     -41.989  60.605 -62.774  1.00  0.00    -0.206 F 
HETATM   21  C   UNL     1     -41.612  61.541 -60.644  1.00  0.00     0.043 A 
HETATM   22  C   UNL     1     -41.607  61.395 -59.254  1.00  0.00     0.017 A 
ENDBRANCH  14  16
ENDBRANCH   5  10
BRANCH   1  23
HETATM   23  C   UNL     1     -41.532  53.432 -52.897  1.00  0.00     0.065 A 
HETATM   24  C   UNL     1     -40.592  53.243 -51.878  1.00  0.00     0.084 A 
HETATM   25  C   UNL     1     -39.521  52.368 -52.081  1.00  0.00     0.038 A 
HETATM   26  C   UNL     1     -39.419  51.650 -53.275  1.00  0.00     0.003 A 
HETATM   27  C   UNL     1     -40.382  51.805 -54.272  1.00  0.00     0.001 A 
HETATM   28  C   UNL     1     -41.442  52.692 -54.085  1.00  0.00     0.020 A 
BRANCH  24  29
HETATM   29  O   UNL     1     -40.691  53.975 -50.723  1.00  0.00    -0.350 OA
BRANCH  29  30
HETATM   30  C   UNL     1     -40.509  53.160 -49.558  1.00  0.00     0.171 C 
HETATM   31  C   UNL     1     -40.198  54.066 -48.382  1.00  0.00     0.034 C 
ENDBRANCH  29  30
ENDBRANCH  24  29
ENDBRANCH   1  23
TORSDOF 5
ENDMDL
MODEL 6
REMARK VINA RESULT:      -8.0      6.457      8.858
REMARK  5 active torsions:
REMARK  status: ('A' for Active; 'I' for Inactive)
REMARK    1  A    between atoms: C_2  and  O_3 
REMARK    2  A    between atoms: O_3  and  C_4 
REMARK    3  A    between atoms: C_5  and  C_6 
REMARK       I    between atoms: C_6  and  N_7 
REMARK    4  A    between atoms: N_10  and  C_11 
REMARK    5  A    between atoms: C_15  and  C_16 
ROOT
HETATM    1  C   UNL     1     -46.304  62.461 -49.468  1.00  0.00     0.256 C 
HETATM    2  N   UNL     1     -45.598  61.416 -50.074  1.00  0.00    -0.346 N 
HETATM    3  C   UNL     1     -44.242  60.985 -49.690  1.00  0.00     0.146 C 
HETATM    4  C   UNL     1     -43.179  61.209 -50.784  1.00  0.00     0.144 C 
HETATM    5  N   UNL     1     -43.354  60.282 -51.915  1.00  0.00    -0.365 N 
HETATM    6  C   UNL     1     -44.250  60.690 -53.004  1.00  0.00     0.126 C 
HETATM    7  C   UNL     1     -45.487  61.463 -52.544  1.00  0.00     0.040 C 
HETATM    8  C   UNL     1     -46.144  60.852 -51.308  1.00  0.00     0.127 C 
HETATM    9  O   UNL     1     -47.338  62.940 -49.931  1.00  0.00    -0.267 OA
ENDROOT
BRANCH   5  10
HETATM   10  C   UNL     1     -42.747  59.055 -51.897  1.00  0.00     0.122 A 
HETATM   11  N   UNL     1     -42.190  58.503 -50.772  1.00  0.00    -0.262 N 
HETATM   12  H   UNL     1     -42.181  58.888 -49.837  1.00  0.00     0.191 HD
HETATM   13  N   UNL     1     -41.597  57.316 -50.965  1.00  0.00    -0.173 NA
HETATM   14  C   UNL     1     -41.806  57.045 -52.263  1.00  0.00     0.090 A 
HETATM   15  C   UNL     1     -42.542  58.101 -52.872  1.00  0.00     0.084 A 
BRANCH  14  16
HETATM   16  C   UNL     1     -41.293  55.816 -52.880  1.00  0.00    -0.005 A 
HETATM   17  C   UNL     1     -41.342  54.586 -52.203  1.00  0.00     0.017 A 
HETATM   18  C   UNL     1     -40.860  53.421 -52.808  1.00  0.00     0.043 A 
HETATM   19  C   UNL     1     -40.327  53.481 -54.090  1.00  0.00     0.116 A 
HETATM   20  F   UNL     1     -39.869  52.363 -54.668  1.00  0.00    -0.206 F 
HETATM   21  C   UNL     1     -40.264  54.684 -54.780  1.00  0.00     0.043 A 
HETATM   22  C   UNL     1     -40.744  55.849 -54.175  1.00  0.00     0.017 A 
ENDBRANCH  14  16
ENDBRANCH   5  10
BRANCH   1  23
HETATM   23  C   UNL     1     -45.833  62.984 -48.168  1.00  0.00     0.065 A 
HETATM   24  C   UNL     1     -46.038  62.257 -46.990  1.00  0.00     0.084 A 
HETATM   25  C   UNL     1     -45.570  62.767 -45.775  1.00  0.00     0.038 A 
HETATM   26  C   UNL     1     -44.859  63.969 -45.747  1.00  0.00     0.003 A 
HETATM   27  C   UNL     1     -44.616  64.669 -46.929  1.00  0.00     0.001 A 
HETATM   28  C   UNL     1     -45.098  64.177 -48.142  1.00  0.00     0.020 A 
BRANCH  24  29
HETATM   29  O   UNL     1     -46.760  61.093 -47.030  1.00  0.00    -0.350 OA
BRANCH  29  30
HETATM   30  C   UNL     1     -46.067  60.013 -46.392  1.00  0.00     0.171 C 
HETATM   31  C   UNL     1     -47.095  59.075 -45.786  1.00  0.00     0.034 C 
ENDBRANCH  29  30
ENDBRANCH  24  29
ENDBRANCH   1  23
TORSDOF 5
ENDMDL
MODEL 7
REMARK VINA RESULT:      -7.9      4.525      9.556
REMARK  5 active torsions:
REMARK  status: ('A' for Active; 'I' for Inactive)
REMARK    1  A    between atoms: C_2  and  O_3 
REMARK    2  A    between atoms: O_3  and  C_4 
REMARK    3  A    between atoms: C_5  and  C_6 
REMARK       I    between atoms: C_6  and  N_7 
REMARK    4  A    between atoms: N_10  and  C_11 
REMARK    5  A    between atoms: C_15  and  C_16 
ROOT
HETATM    1  C   UNL     1     -41.528  56.863 -53.980  1.00  0.00     0.256 C 
HETATM    2  N   UNL     1     -42.495  57.259 -54.911  1.00  0.00    -0.346 N 
HETATM    3  C   UNL     1     -43.000  56.415 -56.008  1.00  0.00     0.146 C 
HETATM    4  C   UNL     1     -42.650  56.938 -57.415  1.00  0.00     0.144 C 
HETATM    5  N   UNL     1     -43.412  58.154 -57.752  1.00  0.00    -0.365 N 
HETATM    6  C   UNL     1     -42.842  59.449 -57.363  1.00  0.00     0.126 C 
HETATM    7  C   UNL     1     -42.115  59.438 -56.018  1.00  0.00     0.040 C 
HETATM    8  C   UNL     1     -42.876  58.672 -54.937  1.00  0.00     0.127 C 
HETATM    9  O   UNL     1     -40.971  57.641 -53.207  1.00  0.00    -0.267 OA
ENDROOT
BRANCH   5  10
HETATM   10  C   UNL     1     -44.641  58.050 -58.345  1.00  0.00     0.122 A 
HETATM   11  N   UNL     1     -45.784  57.721 -57.664  1.00  0.00    -0.262 N 
HETATM   12  H   UNL     1     -45.884  57.552 -56.671  1.00  0.00     0.191 HD
HETATM   13  N   UNL     1     -46.883  57.619 -58.427  1.00  0.00    -0.173 NA
HETATM   14  C   UNL     1     -46.461  57.938 -59.661  1.00  0.00     0.090 A 
HETATM   15  C   UNL     1     -45.069  58.235 -59.644  1.00  0.00     0.084 A 
BRANCH  14  16
HETATM   16  C   UNL     1     -47.379  57.934 -60.807  1.00  0.00    -0.005 A 
HETATM   17  C   UNL     1     -47.770  56.733 -61.422  1.00  0.00     0.017 A 
HETATM   18  C   UNL     1     -48.655  56.744 -62.505  1.00  0.00     0.043 A 
HETATM   19  C   UNL     1     -49.151  57.953 -62.977  1.00  0.00     0.116 A 
HETATM   20  F   UNL     1     -50.001  57.959 -64.012  1.00  0.00    -0.206 F 
HETATM   21  C   UNL     1     -48.779  59.153 -62.389  1.00  0.00     0.043 A 
HETATM   22  C   UNL     1     -47.894  59.144 -61.307  1.00  0.00     0.017 A 
ENDBRANCH  14  16
ENDBRANCH   5  10
BRANCH   1  23
HETATM   23  C   UNL     1     -41.197  55.428 -53.859  1.00  0.00     0.065 A 
HETATM   24  C   UNL     1     -41.807  54.633 -52.883  1.00  0.00     0.084 A 
HETATM   25  C   UNL     1     -41.487  53.275 -52.800  1.00  0.00     0.038 A 
HETATM   26  C   UNL     1     -40.601  52.706 -53.718  1.00  0.00     0.003 A 
HETATM   27  C   UNL     1     -40.027  53.491 -54.719  1.00  0.00     0.001 A 
HETATM   28  C   UNL     1     -40.327  54.851 -54.796  1.00  0.00     0.020 A 
BRANCH  24  29
HETATM   29  O   UNL     1     -42.654  55.211 -51.974  1.00  0.00    -0.350 OA
BRANCH  29  30
HETATM   30  C   UNL     1     -42.298  54.878 -50.626  1.00  0.00     0.171 C 
HETATM   31  C   UNL     1     -41.281  55.891 -50.134  1.00  0.00     0.034 C 
ENDBRANCH  29  30
ENDBRANCH  24  29
ENDBRANCH   1  23
TORSDOF 5
ENDMDL
MODEL 8
REMARK VINA RESULT:      -7.8     16.406     19.478
REMARK  5 active torsions:
REMARK  status: ('A' for Active; 'I' for Inactive)
REMARK    1  A    between atoms: C_2  and  O_3 
REMARK    2  A    between atoms: O_3  and  C_4 
REMARK    3  A    between atoms: C_5  and  C_6 
REMARK       I    between atoms: C_6  and  N_7 
REMARK    4  A    between atoms: N_10  and  C_11 
REMARK    5  A    between atoms: C_15  and  C_16 
ROOT
HETATM    1  C   UNL     1     -35.913  41.838 -53.268  1.00  0.00     0.256 C 
HETATM    2  N   UNL     1     -36.433  41.334 -54.465  1.00  0.00    -0.346 N 
HETATM    3  C   UNL     1     -36.570  39.903 -54.786  1.00  0.00     0.146 C 
HETATM    4  C   UNL     1     -35.685  39.436 -55.959  1.00  0.00     0.144 C 
HETATM    5  N   UNL     1     -36.164  39.960 -57.249  1.00  0.00    -0.365 N 
HETATM    6  C   UNL     1     -35.670  41.273 -57.681  1.00  0.00     0.126 C 
HETATM    7  C   UNL     1     -35.492  42.282 -56.546  1.00  0.00     0.040 C 
HETATM    8  C   UNL     1     -36.658  42.280 -55.560  1.00  0.00     0.127 C 
HETATM    9  O   UNL     1     -35.616  43.019 -53.100  1.00  0.00    -0.267 OA
ENDROOT
BRANCH   5  10
HETATM   10  C   UNL     1     -37.094  39.261 -57.971  1.00  0.00     0.122 A 
HETATM   11  N   UNL     1     -37.547  38.017 -57.618  1.00  0.00    -0.262 N 
HETATM   12  H   UNL     1     -37.300  37.481 -56.796  1.00  0.00     0.191 HD
HETATM   13  N   UNL     1     -38.420  37.472 -58.478  1.00  0.00    -0.173 NA
HETATM   14  C   UNL     1     -38.588  38.412 -59.421  1.00  0.00     0.090 A 
HETATM   15  C   UNL     1     -37.791  39.554 -59.125  1.00  0.00     0.084 A 
BRANCH  14  16
HETATM   16  C   UNL     1     -39.477  38.192 -60.570  1.00  0.00    -0.005 A 
HETATM   17  C   UNL     1     -38.962  38.004 -61.863  1.00  0.00     0.017 A 
HETATM   18  C   UNL     1     -39.820  37.783 -62.945  1.00  0.00     0.043 A 
HETATM   19  C   UNL     1     -41.193  37.749 -62.739  1.00  0.00     0.116 A 
HETATM   20  F   UNL     1     -42.012  37.535 -63.777  1.00  0.00    -0.206 F 
HETATM   21  C   UNL     1     -41.728  37.935 -61.472  1.00  0.00     0.043 A 
HETATM   22  C   UNL     1     -40.872  38.157 -60.390  1.00  0.00     0.017 A 
ENDBRANCH  14  16
ENDBRANCH   5  10
BRANCH   1  23
HETATM   23  C   UNL     1     -35.771  40.928 -52.112  1.00  0.00     0.065 A 
HETATM   24  C   UNL     1     -34.514  40.445 -51.733  1.00  0.00     0.084 A 
HETATM   25  C   UNL     1     -34.406  39.597 -50.627  1.00  0.00     0.038 A 
HETATM   26  C   UNL     1     -35.539  39.276 -49.875  1.00  0.00     0.003 A 
HETATM   27  C   UNL     1     -36.785  39.795 -50.228  1.00  0.00     0.001 A 
HETATM   28  C   UNL     1     -36.904  40.626 -51.342  1.00  0.00     0.020 A 
BRANCH  24  29
HETATM   29  O   UNL     1     -33.416  40.747 -52.495  1.00  0.00    -0.350 OA
BRANCH  29  30
HETATM   30  C   UNL     1     -32.928  39.601 -53.206  1.00  0.00     0.171 C 
HETATM   31  C   UNL     1     -32.356  40.068 -54.532  1.00  0.00     0.034 C 
ENDBRANCH  29  30
ENDBRANCH  24  29
ENDBRANCH   1  23
TORSDOF 5
ENDMDL
MODEL 9
REMARK VINA RESULT:      -7.7      3.818      6.158
REMARK  5 active torsions:
REMARK  status: ('A' for Active; 'I' for Inactive)
REMARK    1  A    between atoms: C_2  and  O_3 
REMARK    2  A    between atoms: O_3  and  C_4 
REMARK    3  A    between atoms: C_5  and  C_6 
REMARK       I    between atoms: C_6  and  N_7 
REMARK    4  A    between atoms: N_10  and  C_11 
REMARK    5  A    between atoms: C_15  and  C_16 
ROOT
HETATM    1  C   UNL     1     -44.949  60.503 -52.573  1.00  0.00     0.256 C 
HETATM    2  N   UNL     1     -44.272  59.283 -52.680  1.00  0.00    -0.346 N 
HETATM    3  C   UNL     1     -43.234  58.813 -51.745  1.00  0.00     0.146 C 
HETATM    4  C   UNL     1     -41.835  58.679 -52.377  1.00  0.00     0.144 C 
HETATM    5  N   UNL     1     -41.765  57.545 -53.315  1.00  0.00    -0.365 N 
HETATM    6  C   UNL     1     -42.137  57.789 -54.714  1.00  0.00     0.126 C 
HETATM    7  C   UNL     1     -43.299  58.766 -54.894  1.00  0.00     0.040 C 
HETATM    8  C   UNL     1     -44.444  58.516 -53.914  1.00  0.00     0.127 C 
HETATM    9  O   UNL     1     -45.654  60.968 -53.466  1.00  0.00    -0.267 OA
ENDROOT
BRANCH   5  10
HETATM   10  C   UNL     1     -41.429  56.298 -52.861  1.00  0.00     0.122 A 
HETATM   11  N   UNL     1     -41.352  55.973 -51.531  1.00  0.00    -0.262 N 
HETATM   12  H   UNL     1     -41.558  56.567 -50.738  1.00  0.00     0.191 HD
HETATM   13  N   UNL     1     -40.958  54.715 -51.283  1.00  0.00    -0.173 NA
HETATM   14  C   UNL     1     -40.809  54.167 -52.499  1.00  0.00     0.090 A 
HETATM   15  C   UNL     1     -41.117  55.121 -53.510  1.00  0.00     0.084 A 
BRANCH  14  16
HETATM   16  C   UNL     1     -40.368  52.776 -52.662  1.00  0.00    -0.005 A 
HETATM   17  C   UNL     1     -39.909  52.025 -51.567  1.00  0.00     0.017 A 
HETATM   18  C   UNL     1     -39.503  50.697 -51.735  1.00  0.00     0.043 A 
HETATM   19  C   UNL     1     -39.554  50.116 -52.996  1.00  0.00     0.116 A 
HETATM   20  F   UNL     1     -39.168  48.843 -53.152  1.00  0.00    -0.206 F 
HETATM   21  C   UNL     1     -40.001  50.836 -54.095  1.00  0.00     0.043 A 
HETATM   22  C   UNL     1     -40.405  52.164 -53.928  1.00  0.00     0.017 A 
ENDBRANCH  14  16
ENDBRANCH   5  10
BRANCH   1  23
HETATM   23  C   UNL     1     -44.877  61.251 -51.301  1.00  0.00     0.065 A 
HETATM   24  C   UNL     1     -43.948  62.283 -51.130  1.00  0.00     0.084 A 
HETATM   25  C   UNL     1     -43.911  62.985 -49.921  1.00  0.00     0.038 A 
HETATM   26  C   UNL     1     -44.830  62.691 -48.911  1.00  0.00     0.003 A 
HETATM   27  C   UNL     1     -45.785  61.692 -49.100  1.00  0.00     0.001 A 
HETATM   28  C   UNL     1     -45.815  60.973 -50.296  1.00  0.00     0.020 A 
BRANCH  24  29
HETATM   29  O   UNL     1     -43.037  62.543 -52.120  1.00  0.00    -0.350 OA
BRANCH  29  30
HETATM   30  C   UNL     1     -43.218  63.849 -52.683  1.00  0.00     0.171 C 
HETATM   31  C   UNL     1     -43.430  63.701 -54.178  1.00  0.00     0.034 C 
ENDBRANCH  29  30
ENDBRANCH  24  29
ENDBRANCH   1  23
TORSDOF 5
ENDMDL
MODEL 10
REMARK VINA RESULT:      -7.6      4.603      9.390
REMARK  5 active torsions:
REMARK  status: ('A' for Active; 'I' for Inactive)
REMARK    1  A    between atoms: C_2  and  O_3 
REMARK    2  A    between atoms: O_3  and  C_4 
REMARK    3  A    between atoms: C_5  and  C_6 
REMARK       I    between atoms: C_6  and  N_7 
REMARK    4  A    between atoms: N_10  and  C_11 
REMARK    5  A    between atoms: C_15  and  C_16 
ROOT
HETATM    1  C   UNL     1     -43.303  56.027 -51.355  1.00  0.00     0.256 C 
HETATM    2  N   UNL     1     -43.264  56.797 -52.523  1.00  0.00    -0.346 N 
HETATM    3  C   UNL     1     -42.039  57.132 -53.269  1.00  0.00     0.146 C 
HETATM    4  C   UNL     1     -41.699  58.635 -53.276  1.00  0.00     0.144 C 
HETATM    5  N   UNL     1     -42.638  59.405 -54.110  1.00  0.00    -0.365 N 
HETATM    6  C   UNL     1     -43.865  59.905 -53.478  1.00  0.00     0.126 C 
HETATM    7  C   UNL     1     -44.474  58.953 -52.447  1.00  0.00     0.040 C 
HETATM    8  C   UNL     1     -44.487  57.500 -52.915  1.00  0.00     0.127 C 
HETATM    9  O   UNL     1     -44.296  55.932 -50.637  1.00  0.00    -0.267 OA
ENDROOT
BRANCH   5  10
HETATM   10  C   UNL     1     -42.389  59.575 -55.445  1.00  0.00     0.122 A 
HETATM   11  N   UNL     1     -42.483  58.566 -56.368  1.00  0.00    -0.262 N 
HETATM   12  H   UNL     1     -42.773  57.609 -56.207  1.00  0.00     0.191 HD
HETATM   13  N   UNL     1     -42.151  58.915 -57.619  1.00  0.00    -0.173 NA
HETATM   14  C   UNL     1     -41.864  60.224 -57.534  1.00  0.00     0.090 A 
HETATM   15  C   UNL     1     -42.024  60.676 -56.193  1.00  0.00     0.084 A 
BRANCH  14  16
HETATM   16  C   UNL     1     -41.437  60.991 -58.711  1.00  0.00    -0.005 A 
HETATM   17  C   UNL     1     -40.508  62.039 -58.599  1.00  0.00     0.017 A 
HETATM   18  C   UNL     1     -40.101  62.753 -59.731  1.00  0.00     0.043 A 
HETATM   19  C   UNL     1     -40.620  62.422 -60.977  1.00  0.00     0.116 A 
HETATM   20  F   UNL     1     -40.226  63.105 -62.059  1.00  0.00    -0.206 F 
HETATM   21  C   UNL     1     -41.541  61.393 -61.114  1.00  0.00     0.043 A 
HETATM   22  C   UNL     1     -41.949  60.680 -59.984  1.00  0.00     0.017 A 
ENDBRANCH  14  16
ENDBRANCH   5  10
BRANCH   1  23
HETATM   23  C   UNL     1     -42.117  55.226 -50.988  1.00  0.00     0.065 A 
HETATM   24  C   UNL     1     -41.771  54.085 -51.720  1.00  0.00     0.084 A 
HETATM   25  C   UNL     1     -40.636  53.352 -51.361  1.00  0.00     0.038 A 
HETATM   26  C   UNL     1     -39.825  53.786 -50.309  1.00  0.00     0.003 A 
HETATM   27  C   UNL     1     -40.147  54.949 -49.609  1.00  0.00     0.001 A 
HETATM   28  C   UNL     1     -41.289  55.674 -49.949  1.00  0.00     0.020 A 
BRANCH  24  29
HETATM   29  O   UNL     1     -42.590  53.657 -52.733  1.00  0.00    -0.350 OA
BRANCH  29  30
HETATM   30  C   UNL     1     -41.868  53.458 -53.955  1.00  0.00     0.171 C 
HETATM   31  C   UNL     1     -42.687  54.033 -55.095  1.00  0.00     0.034 C 
ENDBRANCH  29  30
ENDBRANCH  24  29
ENDBRANCH   1  23
TORSDOF 5
ENDMDL
