MODEL 1
REMARK VINA RESULT:      -8.0      0.000      0.000
REMARK  10 active torsions:
REMARK  status: ('A' for Active; 'I' for Inactive)
REMARK    1  A    between atoms: O_2  and  C_3 
REMARK    2  A    between atoms: C_3  and  C_4 
REMARK    3  A    between atoms: C_11  and  N_12 
REMARK    4  A    between atoms: N_12  and  C_13 
REMARK    5  A    between atoms: C_13  and  N_14 
REMARK    6  A    between atoms: N_14  and  N_15 
REMARK       I    between atoms: N_15  and  C_16 
REMARK    7  A    between atoms: C_16  and  C_17 
REMARK    8  A    between atoms: C_17  and  S_18 
REMARK    9  A    between atoms: S_18  and  C_19 
REMARK   10  A    between atoms: C_19  and  C_20 
ROOT
HETATM    1  C   UNL     1     -41.625  58.384 -51.178  1.00  0.00     0.191 C 
HETATM    2  S   UNL     1     -40.877  59.741 -50.535  1.00  0.00    -0.039 SA
ENDROOT
BRANCH   1   3
HETATM    3  N   UNL     1     -41.175  57.921 -52.383  1.00  0.00    -0.332 N 
HETATM    4  H   UNL     1     -40.266  57.475 -52.309  1.00  0.00     0.168 HD
BRANCH   3   5
HETATM    5  C   UNL     1     -41.647  58.123 -53.699  1.00  0.00     0.035 A 
HETATM    6  C   UNL     1     -41.981  56.971 -54.426  1.00  0.00     0.049 A 
HETATM    7  C   UNL     1     -42.380  57.081 -55.776  1.00  0.00     0.020 A 
HETATM    8  S   UNL     1     -42.799  55.795 -56.831  1.00  0.00    -0.082 SA
HETATM    9  C   UNL     1     -42.467  58.314 -56.419  1.00  0.00     0.004 A 
HETATM   10  C   UNL     1     -43.063  56.839 -58.165  1.00  0.00     0.103 A 
HETATM   11  C   UNL     1     -42.874  58.157 -57.793  1.00  0.00     0.068 A 
HETATM   12 CL   UNL     1     -43.059  59.524 -58.824  1.00  0.00    -0.082 Cl
HETATM   13  C   UNL     1     -42.134  59.465 -55.663  1.00  0.00     0.017 A 
HETATM   14  C   UNL     1     -41.715  59.359 -54.329  1.00  0.00     0.030 A 
BRANCH  10  15
HETATM   15  C   UNL     1     -43.424  56.321 -59.475  1.00  0.00     0.301 C 
HETATM   16  O   UNL     1     -42.675  56.238 -60.441  1.00  0.00    -0.259 OA
BRANCH  15  17
HETATM   17  O   UNL     1     -44.728  55.908 -59.508  1.00  0.00    -0.322 OA
HETATM   18  C   UNL     1     -44.913  54.583 -60.011  1.00  0.00     0.213 C 
ENDBRANCH  15  17
ENDBRANCH  10  15
ENDBRANCH   3   5
ENDBRANCH   1   3
BRANCH   1  19
HETATM   19  N   UNL     1     -42.648  57.706 -50.578  1.00  0.00    -0.274 N 
HETATM   20  H   UNL     1     -43.452  58.224 -50.221  1.00  0.00     0.189 HD
BRANCH  19  21
HETATM   21  N   UNL     1     -42.881  56.344 -50.823  1.00  0.00    -0.267 N 
HETATM   22  C   UNL     1     -42.100  55.443 -50.119  1.00  0.00     0.245 C 
HETATM   23  O   UNL     1     -41.441  55.763 -49.130  1.00  0.00    -0.271 OA
HETATM   24  H   UNL     1     -43.185  56.116 -51.768  1.00  0.00     0.190 HD
BRANCH  22  25
HETATM   25  C   UNL     1     -42.119  54.036 -50.683  1.00  0.00     0.178 C 
BRANCH  25  26
HETATM   26  S   UNL     1     -40.705  53.111 -50.007  1.00  0.00    -0.155 SA
BRANCH  26  27
HETATM   27  C   UNL     1     -39.601  53.199 -51.448  1.00  0.00     0.114 C 
BRANCH  27  28
HETATM   28  C   UNL     1     -39.716  51.962 -52.306  1.00  0.00    -0.032 A 
HETATM   29  C   UNL     1     -39.996  51.996 -53.682  1.00  0.00     0.018 A 
HETATM   30 BR   UNL     1     -40.286  53.623 -54.623  1.00  0.00    -0.051 Br
HETATM   31  C   UNL     1     -40.069  50.811 -54.425  1.00  0.00     0.019 A 
HETATM   32  C   UNL     1     -39.859  49.580 -53.807  1.00  0.00     0.001 A 
HETATM   33  C   UNL     1     -39.571  49.527 -52.447  1.00  0.00     0.001 A 
HETATM   34  C   UNL     1     -39.498  50.707 -51.704  1.00  0.00     0.009 A 
ENDBRANCH  27  28
ENDBRANCH  26  27
ENDBRANCH  25  26
ENDBRANCH  22  25
ENDBRANCH  19  21
ENDBRANCH   1  19
TORSDOF 10
ENDMDL
MODEL 2
REMARK VINA RESULT:      -7.9      2.081      2.367
REMARK  10 active torsions:
REMARK  status: ('A' for Active; 'I' for Inactive)
REMARK    1  A    between atoms: O_2  and  C_3 
REMARK    2  A    between atoms: C_3  and  C_4 
REMARK    3  A    between atoms: C_11  and  N_12 
REMARK    4  A    between atoms: N_12  and  C_13 
REMARK    5  A    between atoms: C_13  and  N_14 
REMARK    6  A    between atoms: N_14  and  N_15 
REMARK       I    between atoms: N_15  and  C_16 
REMARK    7  A    between atoms: C_16  and  C_17 
REMARK    8  A    between atoms: C_17  and  S_18 
REMARK    9  A    between atoms: S_18  and  C_19 
REMARK   10  A    between atoms: C_19  and  C_20 
ROOT
HETATM    1  C   UNL     1     -44.177  58.289 -51.483  1.00  0.00     0.191 C 
HETATM    2  S   UNL     1     -45.451  59.039 -50.690  1.00  0.00    -0.039 SA
ENDROOT
BRANCH   1   3
HETATM    3  N   UNL     1     -44.480  57.395 -52.472  1.00  0.00    -0.332 N 
HETATM    4  H   UNL     1     -44.549  56.444 -52.123  1.00  0.00     0.168 HD
BRANCH   3   5
HETATM    5  C   UNL     1     -44.519  57.531 -53.877  1.00  0.00     0.035 A 
HETATM    6  C   UNL     1     -43.818  56.567 -54.617  1.00  0.00     0.049 A 
HETATM    7  C   UNL     1     -43.737  56.679 -56.022  1.00  0.00     0.020 A 
HETATM    8  S   UNL     1     -42.910  55.622 -57.091  1.00  0.00    -0.082 SA
HETATM    9  C   UNL     1     -44.350  57.723 -56.713  1.00  0.00     0.004 A 
HETATM   10  C   UNL     1     -43.310  56.547 -58.478  1.00  0.00     0.103 A 
HETATM   11  C   UNL     1     -44.103  57.624 -58.130  1.00  0.00     0.068 A 
HETATM   12 CL   UNL     1     -44.742  58.791 -59.224  1.00  0.00    -0.082 Cl
HETATM   13  C   UNL     1     -45.060  58.680 -55.947  1.00  0.00     0.017 A 
HETATM   14  C   UNL     1     -45.123  58.586 -54.549  1.00  0.00     0.030 A 
BRANCH  10  15
HETATM   15  C   UNL     1     -42.830  56.178 -59.801  1.00  0.00     0.301 C 
HETATM   16  O   UNL     1     -41.933  56.742 -60.417  1.00  0.00    -0.259 OA
BRANCH  15  17
HETATM   17  O   UNL     1     -43.497  55.088 -60.290  1.00  0.00    -0.322 OA
HETATM   18  C   UNL     1     -44.830  55.360 -60.724  1.00  0.00     0.213 C 
ENDBRANCH  15  17
ENDBRANCH  10  15
ENDBRANCH   3   5
ENDBRANCH   1   3
BRANCH   1  19
HETATM   19  N   UNL     1     -42.857  58.514 -51.212  1.00  0.00    -0.274 N 
HETATM   20  H   UNL     1     -42.472  59.451 -51.331  1.00  0.00     0.189 HD
BRANCH  19  21
HETATM   21  N   UNL     1     -42.120  57.674 -50.361  1.00  0.00    -0.267 N 
HETATM   22  C   UNL     1     -41.402  56.655 -50.963  1.00  0.00     0.245 C 
HETATM   23  O   UNL     1     -41.167  56.629 -52.171  1.00  0.00    -0.271 OA
HETATM   24  H   UNL     1     -42.521  57.529 -49.435  1.00  0.00     0.190 HD
BRANCH  22  25
HETATM   25  C   UNL     1     -40.945  55.571 -50.006  1.00  0.00     0.178 C 
BRANCH  25  26
HETATM   26  S   UNL     1     -41.655  53.981 -50.532  1.00  0.00    -0.155 SA
BRANCH  26  27
HETATM   27  C   UNL     1     -40.113  53.035 -50.713  1.00  0.00     0.114 C 
BRANCH  27  28
HETATM   28  C   UNL     1     -40.060  52.320 -52.042  1.00  0.00    -0.032 A 
HETATM   29  C   UNL     1     -39.822  50.941 -52.171  1.00  0.00     0.018 A 
HETATM   30 BR   UNL     1     -39.515  49.814 -50.671  1.00  0.00    -0.051 Br
HETATM   31  C   UNL     1     -39.807  50.335 -53.434  1.00  0.00     0.019 A 
HETATM   32  C   UNL     1     -40.033  51.094 -54.581  1.00  0.00     0.001 A 
HETATM   33  C   UNL     1     -40.279  52.459 -54.471  1.00  0.00     0.001 A 
HETATM   34  C   UNL     1     -40.295  53.065 -53.214  1.00  0.00     0.009 A 
ENDBRANCH  27  28
ENDBRANCH  26  27
ENDBRANCH  25  26
ENDBRANCH  22  25
ENDBRANCH  19  21
ENDBRANCH   1  19
TORSDOF 10
ENDMDL
MODEL 3
REMARK VINA RESULT:      -7.8      1.802      2.097
REMARK  10 active torsions:
REMARK  status: ('A' for Active; 'I' for Inactive)
REMARK    1  A    between atoms: O_2  and  C_3 
REMARK    2  A    between atoms: C_3  and  C_4 
REMARK    3  A    between atoms: C_11  and  N_12 
REMARK    4  A    between atoms: N_12  and  C_13 
REMARK    5  A    between atoms: C_13  and  N_14 
REMARK    6  A    between atoms: N_14  and  N_15 
REMARK       I    between atoms: N_15  and  C_16 
REMARK    7  A    between atoms: C_16  and  C_17 
REMARK    8  A    between atoms: C_17  and  S_18 
REMARK    9  A    between atoms: S_18  and  C_19 
REMARK   10  A    between atoms: C_19  and  C_20 
ROOT
HETATM    1  C   UNL     1     -42.818  59.850 -51.514  1.00  0.00     0.191 C 
HETATM    2  S   UNL     1     -43.626  61.316 -51.412  1.00  0.00    -0.039 SA
ENDROOT
BRANCH   1   3
HETATM    3  N   UNL     1     -41.982  59.657 -52.578  1.00  0.00    -0.332 N 
HETATM    4  H   UNL     1     -41.008  59.808 -52.334  1.00  0.00     0.168 HD
BRANCH   3   5
HETATM    5  C   UNL     1     -42.244  59.483 -53.955  1.00  0.00     0.035 A 
HETATM    6  C   UNL     1     -42.435  58.164 -54.393  1.00  0.00     0.049 A 
HETATM    7  C   UNL     1     -42.618  57.897 -55.767  1.00  0.00     0.020 A 
HETATM    8  S   UNL     1     -42.839  56.360 -56.495  1.00  0.00    -0.082 SA
HETATM    9  C   UNL     1     -42.627  58.916 -56.719  1.00  0.00     0.004 A 
HETATM   10  C   UNL     1     -42.910  57.007 -58.081  1.00  0.00     0.103 A 
HETATM   11  C   UNL     1     -42.809  58.385 -58.047  1.00  0.00     0.068 A 
HETATM   12 CL   UNL     1     -42.856  59.426 -59.418  1.00  0.00    -0.082 Cl
HETATM   13  C   UNL     1     -42.441  60.241 -56.254  1.00  0.00     0.017 A 
HETATM   14  C   UNL     1     -42.236  60.508 -54.893  1.00  0.00     0.030 A 
BRANCH  10  15
HETATM   15  C   UNL     1     -43.049  56.147 -59.246  1.00  0.00     0.301 C 
HETATM   16  O   UNL     1     -42.228  56.030 -60.149  1.00  0.00    -0.259 OA
BRANCH  15  17
HETATM   17  O   UNL     1     -44.225  55.448 -59.216  1.00  0.00    -0.322 OA
HETATM   18  C   UNL     1     -44.547  54.784 -60.439  1.00  0.00     0.213 C 
ENDBRANCH  15  17
ENDBRANCH  10  15
ENDBRANCH   3   5
ENDBRANCH   1   3
BRANCH   1  19
HETATM   19  N   UNL     1     -42.934  58.837 -50.604  1.00  0.00    -0.274 N 
HETATM   20  H   UNL     1     -43.516  58.970 -49.776  1.00  0.00     0.189 HD
BRANCH  19  21
HETATM   21  N   UNL     1     -42.689  57.498 -50.948  1.00  0.00    -0.267 N 
HETATM   22  C   UNL     1     -43.773  56.637 -50.904  1.00  0.00     0.245 C 
HETATM   23  O   UNL     1     -44.937  57.033 -50.855  1.00  0.00    -0.271 OA
HETATM   24  H   UNL     1     -41.760  57.150 -50.717  1.00  0.00     0.190 HD
BRANCH  22  25
HETATM   25  C   UNL     1     -43.396  55.169 -50.909  1.00  0.00     0.178 C 
BRANCH  25  26
HETATM   26  S   UNL     1     -43.273  54.597 -52.632  1.00  0.00    -0.155 SA
BRANCH  26  27
HETATM   27  C   UNL     1     -41.479  54.787 -52.860  1.00  0.00     0.114 C 
BRANCH  27  28
HETATM   28  C   UNL     1     -40.791  53.446 -52.949  1.00  0.00    -0.032 A 
HETATM   29  C   UNL     1     -40.126  52.843 -51.868  1.00  0.00     0.018 A 
HETATM   30 BR   UNL     1     -39.997  53.670 -50.161  1.00  0.00    -0.051 Br
HETATM   31  C   UNL     1     -39.525  51.587 -52.011  1.00  0.00     0.019 A 
HETATM   32  C   UNL     1     -39.585  50.913 -53.230  1.00  0.00     0.001 A 
HETATM   33  C   UNL     1     -40.248  51.490 -54.308  1.00  0.00     0.001 A 
HETATM   34  C   UNL     1     -40.848  52.743 -54.168  1.00  0.00     0.009 A 
ENDBRANCH  27  28
ENDBRANCH  26  27
ENDBRANCH  25  26
ENDBRANCH  22  25
ENDBRANCH  19  21
ENDBRANCH   1  19
TORSDOF 10
ENDMDL
MODEL 4
REMARK VINA RESULT:      -7.8      1.819      1.899
REMARK  10 active torsions:
REMARK  status: ('A' for Active; 'I' for Inactive)
REMARK    1  A    between atoms: O_2  and  C_3 
REMARK    2  A    between atoms: C_3  and  C_4 
REMARK    3  A    between atoms: C_11  and  N_12 
REMARK    4  A    between atoms: N_12  and  C_13 
REMARK    5  A    between atoms: C_13  and  N_14 
REMARK    6  A    between atoms: N_14  and  N_15 
REMARK       I    between atoms: N_15  and  C_16 
REMARK    7  A    between atoms: C_16  and  C_17 
REMARK    8  A    between atoms: C_17  and  S_18 
REMARK    9  A    between atoms: S_18  and  C_19 
REMARK   10  A    between atoms: C_19  and  C_20 
ROOT
HETATM    1  C   UNL     1     -44.523  59.140 -51.551  1.00  0.00     0.191 C 
HETATM    2  S   UNL     1     -45.761  60.189 -51.129  1.00  0.00    -0.039 SA
ENDROOT
BRANCH   1   3
HETATM    3  N   UNL     1     -43.856  59.381 -52.720  1.00  0.00    -0.332 N 
HETATM    4  H   UNL     1     -43.113  60.064 -52.605  1.00  0.00     0.168 HD
BRANCH   3   5
HETATM    5  C   UNL     1     -44.136  59.006 -54.053  1.00  0.00     0.035 A 
HETATM    6  C   UNL     1     -43.433  57.898 -54.550  1.00  0.00     0.049 A 
HETATM    7  C   UNL     1     -43.592  57.510 -55.898  1.00  0.00     0.020 A 
HETATM    8  S   UNL     1     -42.805  56.210 -56.693  1.00  0.00    -0.082 SA
HETATM    9  C   UNL     1     -44.446  58.192 -56.763  1.00  0.00     0.004 A 
HETATM   10  C   UNL     1     -43.546  56.549 -58.201  1.00  0.00     0.103 A 
HETATM   11  C   UNL     1     -44.416  57.617 -58.085  1.00  0.00     0.068 A 
HETATM   12 CL   UNL     1     -45.377  58.268 -59.357  1.00  0.00    -0.082 Cl
HETATM   13  C   UNL     1     -45.153  59.302 -56.238  1.00  0.00     0.017 A 
HETATM   14  C   UNL     1     -44.980  59.705 -54.906  1.00  0.00     0.030 A 
BRANCH  10  15
HETATM   15  C   UNL     1     -43.235  55.773 -59.392  1.00  0.00     0.301 C 
HETATM   16  O   UNL     1     -42.429  56.089 -60.259  1.00  0.00    -0.259 OA
BRANCH  15  17
HETATM   17  O   UNL     1     -43.949  54.607 -59.431  1.00  0.00    -0.322 OA
HETATM   18  C   UNL     1     -45.151  54.678 -60.200  1.00  0.00     0.213 C 
ENDBRANCH  15  17
ENDBRANCH  10  15
ENDBRANCH   3   5
ENDBRANCH   1   3
BRANCH   1  19
HETATM   19  N   UNL     1     -44.132  58.064 -50.805  1.00  0.00    -0.274 N 
HETATM   20  H   UNL     1     -44.839  57.456 -50.391  1.00  0.00     0.189 HD
BRANCH  19  21
HETATM   21  N   UNL     1     -42.861  57.485 -50.947  1.00  0.00    -0.267 N 
HETATM   22  C   UNL     1     -42.795  56.105 -50.866  1.00  0.00     0.245 C 
HETATM   23  O   UNL     1     -43.789  55.383 -50.954  1.00  0.00    -0.271 OA
HETATM   24  H   UNL     1     -42.083  58.048 -50.605  1.00  0.00     0.190 HD
BRANCH  22  25
HETATM   25  C   UNL     1     -41.395  55.564 -50.646  1.00  0.00     0.178 C 
BRANCH  25  26
HETATM   26  S   UNL     1     -41.469  53.748 -50.571  1.00  0.00    -0.155 SA
BRANCH  26  27
HETATM   27  C   UNL     1     -39.825  53.375 -51.251  1.00  0.00     0.114 C 
BRANCH  27  28
HETATM   28  C   UNL     1     -39.869  52.179 -52.173  1.00  0.00    -0.032 A 
HETATM   29  C   UNL     1     -40.140  52.272 -53.548  1.00  0.00     0.018 A 
HETATM   30 BR   UNL     1     -40.507  53.928 -54.407  1.00  0.00    -0.051 Br
HETATM   31  C   UNL     1     -40.146  51.125 -54.352  1.00  0.00     0.019 A 
HETATM   32  C   UNL     1     -39.876  49.875 -53.797  1.00  0.00     0.001 A 
HETATM   33  C   UNL     1     -39.597  49.767 -52.439  1.00  0.00     0.001 A 
HETATM   34  C   UNL     1     -39.590  50.908 -51.635  1.00  0.00     0.009 A 
ENDBRANCH  27  28
ENDBRANCH  26  27
ENDBRANCH  25  26
ENDBRANCH  22  25
ENDBRANCH  19  21
ENDBRANCH   1  19
TORSDOF 10
ENDMDL
MODEL 5
REMARK VINA RESULT:      -7.5      3.965      8.005
REMARK  10 active torsions:
REMARK  status: ('A' for Active; 'I' for Inactive)
REMARK    1  A    between atoms: O_2  and  C_3 
REMARK    2  A    between atoms: C_3  and  C_4 
REMARK    3  A    between atoms: C_11  and  N_12 
REMARK    4  A    between atoms: N_12  and  C_13 
REMARK    5  A    between atoms: C_13  and  N_14 
REMARK    6  A    between atoms: N_14  and  N_15 
REMARK       I    between atoms: N_15  and  C_16 
REMARK    7  A    between atoms: C_16  and  C_17 
REMARK    8  A    between atoms: C_17  and  S_18 
REMARK    9  A    between atoms: S_18  and  C_19 
REMARK   10  A    between atoms: C_19  and  C_20 
ROOT
HETATM    1  C   UNL     1     -42.904  56.796 -57.992  1.00  0.00     0.191 C 
HETATM    2  S   UNL     1     -43.079  56.620 -59.651  1.00  0.00    -0.039 SA
ENDROOT
BRANCH   1   3
HETATM    3  N   UNL     1     -43.301  55.757 -57.197  1.00  0.00    -0.332 N 
HETATM    4  H   UNL     1     -44.029  55.198 -57.630  1.00  0.00     0.168 HD
BRANCH   3   5
HETATM    5  C   UNL     1     -43.025  55.454 -55.845  1.00  0.00     0.035 A 
HETATM    6  C   UNL     1     -41.956  54.578 -55.607  1.00  0.00     0.049 A 
HETATM    7  C   UNL     1     -41.668  54.158 -54.290  1.00  0.00     0.020 A 
HETATM    8  S   UNL     1     -40.428  53.077 -53.804  1.00  0.00    -0.082 SA
HETATM    9  C   UNL     1     -42.413  54.601 -53.198  1.00  0.00     0.004 A 
HETATM   10  C   UNL     1     -40.878  53.143 -52.151  1.00  0.00     0.103 A 
HETATM   11  C   UNL     1     -41.936  54.014 -51.971  1.00  0.00     0.068 A 
HETATM   12 CL   UNL     1     -42.680  54.386 -50.463  1.00  0.00    -0.082 Cl
HETATM   13  C   UNL     1     -43.482  55.492 -53.460  1.00  0.00     0.017 A 
HETATM   14  C   UNL     1     -43.786  55.893 -54.769  1.00  0.00     0.030 A 
BRANCH  10  15
HETATM   15  C   UNL     1     -40.191  52.347 -51.145  1.00  0.00     0.301 C 
HETATM   16  O   UNL     1     -40.199  52.562 -49.938  1.00  0.00    -0.259 OA
BRANCH  15  17
HETATM   17  O   UNL     1     -39.530  51.290 -51.708  1.00  0.00    -0.322 OA
HETATM   18  C   UNL     1     -39.577  50.089 -50.937  1.00  0.00     0.213 C 
ENDBRANCH  15  17
ENDBRANCH  10  15
ENDBRANCH   3   5
ENDBRANCH   1   3
BRANCH   1  19
HETATM   19  N   UNL     1     -42.387  57.903 -57.382  1.00  0.00    -0.274 N 
HETATM   20  H   UNL     1     -41.379  58.066 -57.406  1.00  0.00     0.189 HD
BRANCH  19  21
HETATM   21  N   UNL     1     -43.166  59.044 -57.129  1.00  0.00    -0.267 N 
HETATM   22  C   UNL     1     -42.486  60.241 -56.986  1.00  0.00     0.245 C 
HETATM   23  O   UNL     1     -41.315  60.389 -57.334  1.00  0.00    -0.271 OA
HETATM   24  H   UNL     1     -44.018  58.881 -56.595  1.00  0.00     0.190 HD
BRANCH  22  25
HETATM   25  C   UNL     1     -43.308  61.346 -56.351  1.00  0.00     0.178 C 
BRANCH  25  26
HETATM   26  S   UNL     1     -43.984  60.747 -54.772  1.00  0.00    -0.155 SA
BRANCH  26  27
HETATM   27  C   UNL     1     -42.595  61.194 -53.688  1.00  0.00     0.114 C 
BRANCH  27  28
HETATM   28  C   UNL     1     -42.033  59.981 -52.986  1.00  0.00    -0.032 A 
HETATM   29  C   UNL     1     -42.265  59.693 -51.631  1.00  0.00     0.018 A 
HETATM   30 BR   UNL     1     -43.306  60.823 -50.511  1.00  0.00    -0.051 Br
HETATM   31  C   UNL     1     -41.730  58.538 -51.046  1.00  0.00     0.019 A 
HETATM   32  C   UNL     1     -40.964  57.655 -51.805  1.00  0.00     0.001 A 
HETATM   33  C   UNL     1     -40.732  57.920 -53.151  1.00  0.00     0.001 A 
HETATM   34  C   UNL     1     -41.264  59.070 -53.737  1.00  0.00     0.009 A 
ENDBRANCH  27  28
ENDBRANCH  26  27
ENDBRANCH  25  26
ENDBRANCH  22  25
ENDBRANCH  19  21
ENDBRANCH   1  19
TORSDOF 10
ENDMDL
MODEL 6
REMARK VINA RESULT:      -7.2      2.479      3.117
REMARK  10 active torsions:
REMARK  status: ('A' for Active; 'I' for Inactive)
REMARK    1  A    between atoms: O_2  and  C_3 
REMARK    2  A    between atoms: C_3  and  C_4 
REMARK    3  A    between atoms: C_11  and  N_12 
REMARK    4  A    between atoms: N_12  and  C_13 
REMARK    5  A    between atoms: C_13  and  N_14 
REMARK    6  A    between atoms: N_14  and  N_15 
REMARK       I    between atoms: N_15  and  C_16 
REMARK    7  A    between atoms: C_16  and  C_17 
REMARK    8  A    between atoms: C_17  and  S_18 
REMARK    9  A    between atoms: S_18  and  C_19 
REMARK   10  A    between atoms: C_19  and  C_20 
ROOT
HETATM    1  C   UNL     1     -42.906  60.409 -51.780  1.00  0.00     0.191 C 
HETATM    2  S   UNL     1     -44.343  61.252 -51.976  1.00  0.00    -0.039 SA
ENDROOT
BRANCH   1   3
HETATM    3  N   UNL     1     -42.075  60.309 -52.860  1.00  0.00    -0.332 N 
HETATM    4  H   UNL     1     -41.354  61.024 -52.858  1.00  0.00     0.168 HD
BRANCH   3   5
HETATM    5  C   UNL     1     -42.160  59.535 -54.039  1.00  0.00     0.035 A 
HETATM    6  C   UNL     1     -42.024  60.228 -55.251  1.00  0.00     0.049 A 
HETATM    7  C   UNL     1     -42.180  59.542 -56.476  1.00  0.00     0.020 A 
HETATM    8  S   UNL     1     -42.079  60.215 -58.050  1.00  0.00    -0.082 SA
HETATM    9  C   UNL     1     -42.457  58.177 -56.523  1.00  0.00     0.004 A 
HETATM   10  C   UNL     1     -42.439  58.726 -58.820  1.00  0.00     0.103 A 
HETATM   11  C   UNL     1     -42.591  57.720 -57.885  1.00  0.00     0.068 A 
HETATM   12 CL   UNL     1     -42.938  56.071 -58.236  1.00  0.00    -0.082 Cl
HETATM   13  C   UNL     1     -42.581  57.495 -55.288  1.00  0.00     0.017 A 
HETATM   14  C   UNL     1     -42.450  58.177 -54.069  1.00  0.00     0.030 A 
BRANCH  10  15
HETATM   15  C   UNL     1     -42.557  58.629 -60.267  1.00  0.00     0.301 C 
HETATM   16  O   UNL     1     -41.664  58.860 -61.074  1.00  0.00    -0.259 OA
BRANCH  15  17
HETATM   17  O   UNL     1     -43.809  58.221 -60.641  1.00  0.00    -0.322 OA
HETATM   18  C   UNL     1     -44.823  59.215 -60.483  1.00  0.00     0.213 C 
ENDBRANCH  15  17
ENDBRANCH  10  15
ENDBRANCH   3   5
ENDBRANCH   1   3
BRANCH   1  19
HETATM   19  N   UNL     1     -42.507  59.821 -50.613  1.00  0.00    -0.274 N 
HETATM   20  H   UNL     1     -42.556  60.350 -49.741  1.00  0.00     0.189 HD
BRANCH  19  21
HETATM   21  N   UNL     1     -42.472  58.426 -50.459  1.00  0.00    -0.267 N 
HETATM   22  C   UNL     1     -41.258  57.805 -50.697  1.00  0.00     0.245 C 
HETATM   23  O   UNL     1     -40.195  58.421 -50.759  1.00  0.00    -0.271 OA
HETATM   24  H   UNL     1     -43.339  57.940 -50.682  1.00  0.00     0.190 HD
BRANCH  22  25
HETATM   25  C   UNL     1     -41.359  56.304 -50.889  1.00  0.00     0.178 C 
BRANCH  25  26
HETATM   26  S   UNL     1     -43.108  55.851 -51.098  1.00  0.00    -0.155 SA
BRANCH  26  27
HETATM   27  C   UNL     1     -42.904  54.064 -51.361  1.00  0.00     0.114 C 
BRANCH  27  28
HETATM   28  C   UNL     1     -42.021  53.782 -52.553  1.00  0.00    -0.032 A 
HETATM   29  C   UNL     1     -40.810  53.073 -52.470  1.00  0.00     0.018 A 
HETATM   30 BR   UNL     1     -40.132  52.402 -50.826  1.00  0.00    -0.051 Br
HETATM   31  C   UNL     1     -40.048  52.827 -53.619  1.00  0.00     0.019 A 
HETATM   32  C   UNL     1     -40.484  53.279 -54.863  1.00  0.00     0.001 A 
HETATM   33  C   UNL     1     -41.685  53.975 -54.965  1.00  0.00     0.001 A 
HETATM   34  C   UNL     1     -42.447  54.221 -53.822  1.00  0.00     0.009 A 
ENDBRANCH  27  28
ENDBRANCH  26  27
ENDBRANCH  25  26
ENDBRANCH  22  25
ENDBRANCH  19  21
ENDBRANCH   1  19
TORSDOF 10
ENDMDL
MODEL 7
REMARK VINA RESULT:      -7.0      3.805      6.353
REMARK  10 active torsions:
REMARK  status: ('A' for Active; 'I' for Inactive)
REMARK    1  A    between atoms: O_2  and  C_3 
REMARK    2  A    between atoms: C_3  and  C_4 
REMARK    3  A    between atoms: C_11  and  N_12 
REMARK    4  A    between atoms: N_12  and  C_13 
REMARK    5  A    between atoms: C_13  and  N_14 
REMARK    6  A    between atoms: N_14  and  N_15 
REMARK       I    between atoms: N_15  and  C_16 
REMARK    7  A    between atoms: C_16  and  C_17 
REMARK    8  A    between atoms: C_17  and  S_18 
REMARK    9  A    between atoms: S_18  and  C_19 
REMARK   10  A    between atoms: C_19  and  C_20 
ROOT
HETATM    1  C   UNL     1     -44.512  57.222 -58.405  1.00  0.00     0.191 C 
HETATM    2  S   UNL     1     -44.445  58.156 -59.797  1.00  0.00    -0.039 SA
ENDROOT
BRANCH   1   3
HETATM    3  N   UNL     1     -45.425  57.571 -57.450  1.00  0.00    -0.332 N 
HETATM    4  H   UNL     1     -46.350  57.200 -57.647  1.00  0.00     0.168 HD
BRANCH   3   5
HETATM    5  C   UNL     1     -45.355  58.489 -56.377  1.00  0.00     0.035 A 
HETATM    6  C   UNL     1     -45.084  57.949 -55.111  1.00  0.00     0.049 A 
HETATM    7  C   UNL     1     -45.080  58.787 -53.975  1.00  0.00     0.020 A 
HETATM    8  S   UNL     1     -44.799  58.313 -52.350  1.00  0.00    -0.082 SA
HETATM    9  C   UNL     1     -45.328  60.155 -54.069  1.00  0.00     0.004 A 
HETATM   10  C   UNL     1     -45.040  59.897 -51.739  1.00  0.00     0.103 A 
HETATM   11  C   UNL     1     -45.289  60.782 -52.771  1.00  0.00     0.068 A 
HETATM   12 CL   UNL     1     -45.565  62.473 -52.595  1.00  0.00    -0.082 Cl
HETATM   13  C   UNL     1     -45.590  60.680 -55.359  1.00  0.00     0.017 A 
HETATM   14  C   UNL     1     -45.618  59.848 -56.487  1.00  0.00     0.030 A 
BRANCH  10  15
HETATM   15  C   UNL     1     -44.981  60.178 -50.313  1.00  0.00     0.301 C 
HETATM   16  O   UNL     1     -45.785  59.786 -49.475  1.00  0.00    -0.259 OA
BRANCH  15  17
HETATM   17  O   UNL     1     -43.887  60.936 -49.997  1.00  0.00    -0.322 OA
HETATM   18  C   UNL     1     -42.661  60.462 -50.556  1.00  0.00     0.213 C 
ENDBRANCH  15  17
ENDBRANCH  10  15
ENDBRANCH   3   5
ENDBRANCH   1   3
BRANCH   1  19
HETATM   19  N   UNL     1     -43.721  56.135 -58.164  1.00  0.00    -0.274 N 
HETATM   20  H   UNL     1     -43.607  55.426 -58.889  1.00  0.00     0.189 HD
BRANCH  19  21
HETATM   21  N   UNL     1     -42.713  56.153 -57.187  1.00  0.00    -0.267 N 
HETATM   22  C   UNL     1     -42.757  55.154 -56.230  1.00  0.00     0.245 C 
HETATM   23  O   UNL     1     -43.441  54.138 -56.358  1.00  0.00    -0.271 OA
HETATM   24  H   UNL     1     -42.365  57.077 -56.935  1.00  0.00     0.190 HD
BRANCH  22  25
HETATM   25  C   UNL     1     -41.902  55.428 -55.009  1.00  0.00     0.178 C 
BRANCH  25  26
HETATM   26  S   UNL     1     -41.938  53.970 -53.922  1.00  0.00    -0.155 SA
BRANCH  26  27
HETATM   27  C   UNL     1     -40.221  53.416 -54.142  1.00  0.00     0.114 C 
BRANCH  27  28
HETATM   28  C   UNL     1     -39.983  52.084 -53.471  1.00  0.00    -0.032 A 
HETATM   29  C   UNL     1     -39.822  51.934 -52.083  1.00  0.00     0.018 A 
HETATM   30 BR   UNL     1     -39.865  53.410 -50.885  1.00  0.00    -0.051 Br
HETATM   31  C   UNL     1     -39.625  50.666 -51.521  1.00  0.00     0.019 A 
HETATM   32  C   UNL     1     -39.591  49.534 -52.333  1.00  0.00     0.001 A 
HETATM   33  C   UNL     1     -39.757  49.663 -53.708  1.00  0.00     0.001 A 
HETATM   34  C   UNL     1     -39.954  50.925 -54.271  1.00  0.00     0.009 A 
ENDBRANCH  27  28
ENDBRANCH  26  27
ENDBRANCH  25  26
ENDBRANCH  22  25
ENDBRANCH  19  21
ENDBRANCH   1  19
TORSDOF 10
ENDMDL
MODEL 8
REMARK VINA RESULT:      -7.0      2.794      5.190
REMARK  10 active torsions:
REMARK  status: ('A' for Active; 'I' for Inactive)
REMARK    1  A    between atoms: O_2  and  C_3 
REMARK    2  A    between atoms: C_3  and  C_4 
REMARK    3  A    between atoms: C_11  and  N_12 
REMARK    4  A    between atoms: N_12  and  C_13 
REMARK    5  A    between atoms: C_13  and  N_14 
REMARK    6  A    between atoms: N_14  and  N_15 
REMARK       I    between atoms: N_15  and  C_16 
REMARK    7  A    between atoms: C_16  and  C_17 
REMARK    8  A    between atoms: C_17  and  S_18 
REMARK    9  A    between atoms: S_18  and  C_19 
REMARK   10  A    between atoms: C_19  and  C_20 
ROOT
HETATM    1  C   UNL     1     -40.406  52.349 -53.232  1.00  0.00     0.191 C 
HETATM    2  S   UNL     1     -40.227  51.111 -54.349  1.00  0.00    -0.039 SA
ENDROOT
BRANCH   1   3
HETATM    3  N   UNL     1     -41.509  53.149 -53.340  1.00  0.00    -0.332 N 
HETATM    4  H   UNL     1     -42.333  52.727 -52.922  1.00  0.00     0.168 HD
BRANCH   3   5
HETATM    5  C   UNL     1     -41.740  54.330 -54.081  1.00  0.00     0.035 A 
HETATM    6  C   UNL     1     -42.372  54.173 -55.323  1.00  0.00     0.049 A 
HETATM    7  C   UNL     1     -42.564  55.293 -56.162  1.00  0.00     0.020 A 
HETATM    8  S   UNL     1     -43.287  55.300 -57.717  1.00  0.00    -0.082 SA
HETATM    9  C   UNL     1     -42.152  56.571 -55.787  1.00  0.00     0.004 A 
HETATM   10  C   UNL     1     -43.032  56.981 -57.940  1.00  0.00     0.103 A 
HETATM   11  C   UNL     1     -42.441  57.534 -56.820  1.00  0.00     0.068 A 
HETATM   12 CL   UNL     1     -42.033  59.196 -56.622  1.00  0.00    -0.082 Cl
HETATM   13  C   UNL     1     -41.524  56.707 -54.525  1.00  0.00     0.017 A 
HETATM   14  C   UNL     1     -41.311  55.594 -53.699  1.00  0.00     0.030 A 
BRANCH  10  15
HETATM   15  C   UNL     1     -43.409  57.648 -59.177  1.00  0.00     0.301 C 
HETATM   16  O   UNL     1     -42.640  58.206 -59.950  1.00  0.00    -0.259 OA
BRANCH  15  17
HETATM   17  O   UNL     1     -44.758  57.569 -59.397  1.00  0.00    -0.322 OA
HETATM   18  C   UNL     1     -45.553  58.267 -58.438  1.00  0.00     0.213 C 
ENDBRANCH  15  17
ENDBRANCH  10  15
ENDBRANCH   3   5
ENDBRANCH   1   3
BRANCH   1  19
HETATM   19  N   UNL     1     -39.528  52.609 -52.218  1.00  0.00    -0.274 N 
HETATM   20  H   UNL     1     -38.530  52.456 -52.366  1.00  0.00     0.189 HD
BRANCH  19  21
HETATM   21  N   UNL     1     -39.845  53.487 -51.169  1.00  0.00    -0.267 N 
HETATM   22  C   UNL     1     -40.403  52.924 -50.034  1.00  0.00     0.245 C 
HETATM   23  O   UNL     1     -40.372  51.715 -49.806  1.00  0.00    -0.271 OA
HETATM   24  H   UNL     1     -40.121  54.426 -51.453  1.00  0.00     0.190 HD
BRANCH  22  25
HETATM   25  C   UNL     1     -41.064  53.926 -49.107  1.00  0.00     0.178 C 
BRANCH  25  26
HETATM   26  S   UNL     1     -42.291  54.882 -50.051  1.00  0.00    -0.155 SA
BRANCH  26  27
HETATM   27  C   UNL     1     -41.446  56.492 -50.054  1.00  0.00     0.114 C 
BRANCH  27  28
HETATM   28  C   UNL     1     -42.165  57.487 -50.933  1.00  0.00    -0.032 A 
HETATM   29  C   UNL     1     -41.580  58.680 -51.392  1.00  0.00     0.018 A 
HETATM   30 BR   UNL     1     -39.806  59.188 -50.933  1.00  0.00    -0.051 Br
HETATM   31  C   UNL     1     -42.295  59.551 -52.223  1.00  0.00     0.019 A 
HETATM   32  C   UNL     1     -43.597  59.243 -52.611  1.00  0.00     0.001 A 
HETATM   33  C   UNL     1     -44.189  58.062 -52.174  1.00  0.00     0.001 A 
HETATM   34  C   UNL     1     -43.479  57.191 -51.346  1.00  0.00     0.009 A 
ENDBRANCH  27  28
ENDBRANCH  26  27
ENDBRANCH  25  26
ENDBRANCH  22  25
ENDBRANCH  19  21
ENDBRANCH   1  19
TORSDOF 10
ENDMDL
MODEL 9
REMARK VINA RESULT:      -6.9      3.072      5.496
REMARK  10 active torsions:
REMARK  status: ('A' for Active; 'I' for Inactive)
REMARK    1  A    between atoms: O_2  and  C_3 
REMARK    2  A    between atoms: C_3  and  C_4 
REMARK    3  A    between atoms: C_11  and  N_12 
REMARK    4  A    between atoms: N_12  and  C_13 
REMARK    5  A    between atoms: C_13  and  N_14 
REMARK    6  A    between atoms: N_14  and  N_15 
REMARK       I    between atoms: N_15  and  C_16 
REMARK    7  A    between atoms: C_16  and  C_17 
REMARK    8  A    between atoms: C_17  and  S_18 
REMARK    9  A    between atoms: S_18  and  C_19 
REMARK   10  A    between atoms: C_19  and  C_20 
ROOT
HETATM    1  C   UNL     1     -40.239  52.214 -52.803  1.00  0.00     0.191 C 
HETATM    2  S   UNL     1     -39.805  51.052 -53.932  1.00  0.00    -0.039 SA
ENDROOT
BRANCH   1   3
HETATM    3  N   UNL     1     -41.386  52.923 -53.028  1.00  0.00    -0.332 N 
HETATM    4  H   UNL     1     -42.212  52.434 -52.698  1.00  0.00     0.168 HD
BRANCH   3   5
HETATM    5  C   UNL     1     -41.633  54.087 -53.791  1.00  0.00     0.035 A 
HETATM    6  C   UNL     1     -42.935  54.607 -53.729  1.00  0.00     0.049 A 
HETATM    7  C   UNL     1     -43.287  55.718 -54.527  1.00  0.00     0.020 A 
HETATM    8  S   UNL     1     -44.823  56.476 -54.611  1.00  0.00    -0.082 SA
HETATM    9  C   UNL     1     -42.369  56.334 -55.377  1.00  0.00     0.004 A 
HETATM   10  C   UNL     1     -44.316  57.602 -55.800  1.00  0.00     0.103 A 
HETATM   11  C   UNL     1     -42.977  57.426 -56.095  1.00  0.00     0.068 A 
HETATM   12 CL   UNL     1     -42.068  58.362 -57.219  1.00  0.00    -0.082 Cl
HETATM   13  C   UNL     1     -41.059  55.797 -55.416  1.00  0.00     0.017 A 
HETATM   14  C   UNL     1     -40.711  54.680 -54.643  1.00  0.00     0.030 A 
BRANCH  10  15
HETATM   15  C   UNL     1     -45.239  58.570 -56.372  1.00  0.00     0.301 C 
HETATM   16  O   UNL     1     -45.542  59.648 -55.875  1.00  0.00    -0.259 OA
BRANCH  15  17
HETATM   17  O   UNL     1     -45.735  58.140 -57.573  1.00  0.00    -0.322 OA
HETATM   18  C   UNL     1     -47.161  58.123 -57.649  1.00  0.00     0.213 C 
ENDBRANCH  15  17
ENDBRANCH  10  15
ENDBRANCH   3   5
ENDBRANCH   1   3
BRANCH   1  19
HETATM   19  N   UNL     1     -39.528  52.497 -51.671  1.00  0.00    -0.274 N 
HETATM   20  H   UNL     1     -38.577  52.141 -51.573  1.00  0.00     0.189 HD
BRANCH  19  21
HETATM   21  N   UNL     1     -39.835  53.600 -50.858  1.00  0.00    -0.267 N 
HETATM   22  C   UNL     1     -40.529  53.337 -49.690  1.00  0.00     0.245 C 
HETATM   23  O   UNL     1     -40.635  52.205 -49.218  1.00  0.00    -0.271 OA
HETATM   24  H   UNL     1     -39.995  54.477 -51.352  1.00  0.00     0.190 HD
BRANCH  22  25
HETATM   25  C   UNL     1     -41.157  54.562 -49.053  1.00  0.00     0.178 C 
BRANCH  25  26
HETATM   26  S   UNL     1     -40.658  56.037 -49.995  1.00  0.00    -0.155 SA
BRANCH  26  27
HETATM   27  C   UNL     1     -42.283  56.498 -50.669  1.00  0.00     0.114 C 
BRANCH  27  28
HETATM   28  C   UNL     1     -42.164  57.626 -51.665  1.00  0.00    -0.032 A 
HETATM   29  C   UNL     1     -43.224  58.490 -51.988  1.00  0.00     0.018 A 
HETATM   30 BR   UNL     1     -44.952  58.317 -51.214  1.00  0.00    -0.051 Br
HETATM   31  C   UNL     1     -43.041  59.531 -52.907  1.00  0.00     0.019 A 
HETATM   32  C   UNL     1     -41.800  59.727 -53.510  1.00  0.00     0.001 A 
HETATM   33  C   UNL     1     -40.736  58.887 -53.195  1.00  0.00     0.001 A 
HETATM   34  C   UNL     1     -40.916  57.849 -52.279  1.00  0.00     0.009 A 
ENDBRANCH  27  28
ENDBRANCH  26  27
ENDBRANCH  25  26
ENDBRANCH  22  25
ENDBRANCH  19  21
ENDBRANCH   1  19
TORSDOF 10
ENDMDL
MODEL 10
REMARK VINA RESULT:      -6.9      3.339      7.195
REMARK  10 active torsions:
REMARK  status: ('A' for Active; 'I' for Inactive)
REMARK    1  A    between atoms: O_2  and  C_3 
REMARK    2  A    between atoms: C_3  and  C_4 
REMARK    3  A    between atoms: C_11  and  N_12 
REMARK    4  A    between atoms: N_12  and  C_13 
REMARK    5  A    between atoms: C_13  and  N_14 
REMARK    6  A    between atoms: N_14  and  N_15 
REMARK       I    between atoms: N_15  and  C_16 
REMARK    7  A    between atoms: C_16  and  C_17 
REMARK    8  A    between atoms: C_17  and  S_18 
REMARK    9  A    between atoms: S_18  and  C_19 
REMARK   10  A    between atoms: C_19  and  C_20 
ROOT
HETATM    1  C   UNL     1     -43.040  59.836 -51.055  1.00  0.00     0.191 C 
HETATM    2  S   UNL     1     -41.601  60.212 -50.280  1.00  0.00    -0.039 SA
ENDROOT
BRANCH   1   3
HETATM    3  N   UNL     1     -43.364  58.514 -51.189  1.00  0.00    -0.332 N 
HETATM    4  H   UNL     1     -44.090  58.229 -50.538  1.00  0.00     0.168 HD
BRANCH   3   5
HETATM    5  C   UNL     1     -42.749  57.467 -51.911  1.00  0.00     0.035 A 
HETATM    6  C   UNL     1     -42.517  56.277 -51.207  1.00  0.00     0.049 A 
HETATM    7  C   UNL     1     -41.831  55.212 -51.832  1.00  0.00     0.020 A 
HETATM    8  S   UNL     1     -41.431  53.697 -51.132  1.00  0.00    -0.082 SA
HETATM    9  C   UNL     1     -41.381  55.298 -53.148  1.00  0.00     0.004 A 
HETATM   10  C   UNL     1     -40.621  53.147 -52.539  1.00  0.00     0.103 A 
HETATM   11  C   UNL     1     -40.695  54.094 -53.544  1.00  0.00     0.068 A 
HETATM   12 CL   UNL     1     -40.031  53.930 -55.124  1.00  0.00    -0.082 Cl
HETATM   13  C   UNL     1     -41.634  56.507 -53.843  1.00  0.00     0.017 A 
HETATM   14  C   UNL     1     -42.294  57.576 -53.219  1.00  0.00     0.030 A 
BRANCH  10  15
HETATM   15  C   UNL     1     -39.964  51.849 -52.579  1.00  0.00     0.301 C 
HETATM   16  O   UNL     1     -39.695  51.216 -53.593  1.00  0.00    -0.259 OA
BRANCH  15  17
HETATM   17  O   UNL     1     -39.655  51.406 -51.322  1.00  0.00    -0.322 OA
HETATM   18  C   UNL     1     -39.280  50.029 -51.259  1.00  0.00     0.213 C 
ENDBRANCH  15  17
ENDBRANCH  10  15
ENDBRANCH   3   5
ENDBRANCH   1   3
BRANCH   1  19
HETATM   19  N   UNL     1     -43.913  60.759 -51.557  1.00  0.00    -0.274 N 
HETATM   20  H   UNL     1     -44.525  61.269 -50.920  1.00  0.00     0.189 HD
BRANCH  19  21
HETATM   21  N   UNL     1     -43.709  61.373 -52.803  1.00  0.00    -0.267 N 
HETATM   22  C   UNL     1     -44.196  60.703 -53.913  1.00  0.00     0.245 C 
HETATM   23  O   UNL     1     -45.007  59.781 -53.832  1.00  0.00    -0.271 OA
HETATM   24  H   UNL     1     -42.858  61.928 -52.883  1.00  0.00     0.190 HD
BRANCH  22  25
HETATM   25  C   UNL     1     -43.632  61.198 -55.230  1.00  0.00     0.178 C 
BRANCH  25  26
HETATM   26  S   UNL     1     -44.128  60.050 -56.552  1.00  0.00    -0.155 SA
BRANCH  26  27
HETATM   27  C   UNL     1     -42.524  59.241 -56.834  1.00  0.00     0.114 C 
BRANCH  27  28
HETATM   28  C   UNL     1     -42.652  58.089 -57.801  1.00  0.00    -0.032 A 
HETATM   29  C   UNL     1     -42.483  58.221 -59.190  1.00  0.00     0.018 A 
HETATM   30 BR   UNL     1     -42.091  59.889 -60.016  1.00  0.00    -0.051 Br
HETATM   31  C   UNL     1     -42.595  57.107 -60.031  1.00  0.00     0.019 A 
HETATM   32  C   UNL     1     -42.871  55.849 -59.499  1.00  0.00     0.001 A 
HETATM   33  C   UNL     1     -43.033  55.698 -58.126  1.00  0.00     0.001 A 
HETATM   34  C   UNL     1     -42.921  56.807 -57.285  1.00  0.00     0.009 A 
ENDBRANCH  27  28
ENDBRANCH  26  27
ENDBRANCH  25  26
ENDBRANCH  22  25
ENDBRANCH  19  21
ENDBRANCH   1  19
TORSDOF 10
ENDMDL
