MODEL 1
REMARK VINA RESULT:      -7.7      0.000      0.000
REMARK  12 active torsions:
REMARK  status: ('A' for Active; 'I' for Inactive)
REMARK    1  A    between atoms: C_2  and  C_3 
REMARK    2  A    between atoms: C_3  and  N_4 
REMARK    3  A    between atoms: C_3  and  C_25 
REMARK    4  A    between atoms: N_4  and  C_6 
REMARK    5  A    between atoms: N_4  and  C_21 
REMARK    6  A    between atoms: C_6  and  C_7 
REMARK    7  A    between atoms: C_8  and  O_9 
REMARK    8  A    between atoms: C_21  and  C_22 
REMARK    9  A    between atoms: C_22  and  C_23 
REMARK   10  A    between atoms: C_23  and  O_24 
REMARK   11  A    between atoms: N_26  and  C_27 
REMARK   12  A    between atoms: C_27  and  C_28 
ROOT
HETATM    1  N   UNL     1     -42.590  56.575 -57.983  1.00  0.00    -0.055 N 
HETATM    2  H   UNL     1     -41.619  56.394 -57.704  1.00  0.00     0.281 HD
ENDROOT
BRANCH   1   3
HETATM    3  C   UNL     1     -42.720  58.078 -57.608  1.00  0.00     0.263 C 
BRANCH   3   4
HETATM    4  C   UNL     1     -42.302  59.070 -58.737  1.00  0.00     0.016 C 
HETATM    5  C   UNL     1     -41.442  60.212 -58.170  1.00  0.00     0.012 C 
HETATM    6  C   UNL     1     -43.428  59.682 -59.565  1.00  0.00     0.012 C 
ENDBRANCH   3   4
BRANCH   3   7
HETATM    7  C   UNL     1     -44.007  58.433 -56.923  1.00  0.00     0.168 A 
HETATM    8  N   UNL     1     -44.161  59.186 -55.780  1.00  0.00    -0.257 N 
HETATM    9  N   UNL     1     -45.462  59.230 -55.450  1.00  0.00    -0.003 NA
HETATM   10  N   UNL     1     -46.094  58.545 -56.385  1.00  0.00     0.018 NA
HETATM   11  N   UNL     1     -45.211  58.051 -57.300  1.00  0.00    -0.145 NA
BRANCH   8  12
HETATM   12  C   UNL     1     -43.205  59.905 -54.955  1.00  0.00     0.186 C 
BRANCH  12  13
HETATM   13  C   UNL     1     -42.569  59.035 -53.900  1.00  0.00    -0.039 A 
HETATM   14  C   UNL     1     -41.351  58.389 -54.170  1.00  0.00     0.009 A 
HETATM   15  C   UNL     1     -40.725  57.618 -53.191  1.00  0.00     0.001 A 
HETATM   16  C   UNL     1     -41.300  57.493 -51.928  1.00  0.00     0.000 A 
HETATM   17  C   UNL     1     -42.497  58.144 -51.641  1.00  0.00     0.001 A 
HETATM   18  C   UNL     1     -43.128  58.917 -52.618  1.00  0.00     0.009 A 
ENDBRANCH  12  13
ENDBRANCH   8  12
ENDBRANCH   3   7
ENDBRANCH   1   3
BRANCH   1  19
HETATM   19  C   UNL     1     -43.302  55.501 -57.150  1.00  0.00     0.278 C 
BRANCH  19  20
HETATM   20  C   UNL     1     -42.903  55.143 -55.753  1.00  0.00     0.021 A 
HETATM   21  C   UNL     1     -43.669  55.441 -54.641  1.00  0.00     0.170 A 
HETATM   22  N   UNL     1     -43.419  55.071 -53.375  1.00  0.00    -0.224 NA
HETATM   23  C   UNL     1     -42.355  54.283 -53.152  1.00  0.00     0.072 A 
HETATM   24  C   UNL     1     -41.503  53.866 -54.209  1.00  0.00    -0.004 A 
HETATM   25  C   UNL     1     -42.100  53.835 -51.861  1.00  0.00     0.072 A 
HETATM   26  C   UNL     1     -41.795  54.322 -55.506  1.00  0.00     0.027 A 
HETATM   27  C   UNL     1     -40.423  52.999 -53.960  1.00  0.00     0.053 A 
HETATM   28  C   UNL     1     -40.231  52.563 -52.670  1.00  0.00     0.106 A 
HETATM   29  C   UNL     1     -41.044  52.975 -51.646  1.00  0.00     0.107 A 
HETATM   30  O   UNL     1     -39.267  51.700 -52.253  1.00  0.00    -0.323 OA
HETATM   31  O   UNL     1     -40.696  52.424 -50.453  1.00  0.00    -0.323 OA
HETATM   32  C   UNL     1     -39.592  51.583 -50.850  1.00  0.00     0.352 A 
BRANCH  21  33
HETATM   33  O   UNL     1     -44.825  56.131 -54.744  1.00  0.00    -0.344 OA
HETATM   34  H   UNL     1     -45.292  55.804 -53.948  1.00  0.00     0.219 HD
ENDBRANCH  21  33
ENDBRANCH  19  20
ENDBRANCH   1  19
BRANCH   1  35
HETATM   35  C   UNL     1     -42.554  56.332 -59.488  1.00  0.00     0.238 C 
BRANCH  35  36
HETATM   36  C   UNL     1     -43.593  55.299 -59.929  1.00  0.00     0.054 C 
BRANCH  36  37
HETATM   37  C   UNL     1     -44.723  55.944 -60.722  1.00  0.00     0.165 C 
BRANCH  37  38
HETATM   38  O   UNL     1     -45.052  55.115 -61.823  1.00  0.00    -0.401 OA
HETATM   39  H   UNL     1     -45.220  54.217 -61.477  1.00  0.00     0.209 HD
ENDBRANCH  37  38
ENDBRANCH  36  37
ENDBRANCH  35  36
ENDBRANCH   1  35
TORSDOF 12
ENDMDL
MODEL 2
REMARK VINA RESULT:      -7.3      2.392      7.694
REMARK  12 active torsions:
REMARK  status: ('A' for Active; 'I' for Inactive)
REMARK    1  A    between atoms: C_2  and  C_3 
REMARK    2  A    between atoms: C_3  and  N_4 
REMARK    3  A    between atoms: C_3  and  C_25 
REMARK    4  A    between atoms: N_4  and  C_6 
REMARK    5  A    between atoms: N_4  and  C_21 
REMARK    6  A    between atoms: C_6  and  C_7 
REMARK    7  A    between atoms: C_8  and  O_9 
REMARK    8  A    between atoms: C_21  and  C_22 
REMARK    9  A    between atoms: C_22  and  C_23 
REMARK   10  A    between atoms: C_23  and  O_24 
REMARK   11  A    between atoms: N_26  and  C_27 
REMARK   12  A    between atoms: C_27  and  C_28 
ROOT
HETATM    1  N   UNL     1     -41.705  57.529 -52.619  1.00  0.00    -0.055 N 
HETATM    2  H   UNL     1     -40.861  57.902 -52.171  1.00  0.00     0.281 HD
ENDROOT
BRANCH   1   3
HETATM    3  C   UNL     1     -41.540  56.012 -52.318  1.00  0.00     0.263 C 
BRANCH   3   4
HETATM    4  C   UNL     1     -41.710  55.624 -50.817  1.00  0.00     0.016 C 
HETATM    5  C   UNL     1     -40.340  55.439 -50.142  1.00  0.00     0.012 C 
HETATM    6  C   UNL     1     -42.562  54.394 -50.518  1.00  0.00     0.012 C 
ENDBRANCH   3   4
BRANCH   3   7
HETATM    7  C   UNL     1     -42.269  55.113 -53.272  1.00  0.00     0.168 A 
HETATM    8  N   UNL     1     -41.717  54.177 -54.121  1.00  0.00    -0.257 N 
HETATM    9  N   UNL     1     -42.690  53.616 -54.856  1.00  0.00    -0.003 NA
HETATM   10  N   UNL     1     -43.816  54.173 -54.448  1.00  0.00     0.018 NA
HETATM   11  N   UNL     1     -43.572  55.093 -53.472  1.00  0.00    -0.145 NA
BRANCH   8  12
HETATM   12  C   UNL     1     -40.349  53.724 -54.308  1.00  0.00     0.186 C 
BRANCH  12  13
HETATM   13  C   UNL     1     -40.072  52.403 -53.634  1.00  0.00    -0.039 A 
HETATM   14  C   UNL     1     -39.889  52.354 -52.243  1.00  0.00     0.009 A 
HETATM   15  C   UNL     1     -39.680  51.135 -51.597  1.00  0.00     0.001 A 
HETATM   16  C   UNL     1     -39.663  49.951 -52.332  1.00  0.00     0.000 A 
HETATM   17  C   UNL     1     -39.862  49.984 -53.710  1.00  0.00     0.001 A 
HETATM   18  C   UNL     1     -40.073  51.201 -54.360  1.00  0.00     0.009 A 
ENDBRANCH  12  13
ENDBRANCH   8  12
ENDBRANCH   3   7
ENDBRANCH   1   3
BRANCH   1  19
HETATM   19  C   UNL     1     -41.500  58.066 -54.042  1.00  0.00     0.278 C 
BRANCH  19  20
HETATM   20  C   UNL     1     -42.506  57.897 -55.138  1.00  0.00     0.021 A 
HETATM   21  C   UNL     1     -43.507  58.814 -55.402  1.00  0.00     0.170 A 
HETATM   22  N   UNL     1     -44.381  58.774 -56.420  1.00  0.00    -0.224 NA
HETATM   23  C   UNL     1     -44.249  57.785 -57.318  1.00  0.00     0.072 A 
HETATM   24  C   UNL     1     -43.238  56.796 -57.193  1.00  0.00    -0.004 A 
HETATM   25  C   UNL     1     -45.101  57.746 -58.415  1.00  0.00     0.072 A 
HETATM   26  C   UNL     1     -42.381  56.869 -56.081  1.00  0.00     0.027 A 
HETATM   27  C   UNL     1     -43.087  55.797 -58.173  1.00  0.00     0.053 A 
HETATM   28  C   UNL     1     -43.938  55.820 -59.253  1.00  0.00     0.106 A 
HETATM   29  C   UNL     1     -44.923  56.765 -59.368  1.00  0.00     0.107 A 
HETATM   30  O   UNL     1     -43.916  54.962 -60.307  1.00  0.00    -0.323 OA
HETATM   31  O   UNL     1     -45.648  56.624 -60.509  1.00  0.00    -0.323 OA
HETATM   32  C   UNL     1     -44.978  55.501 -61.123  1.00  0.00     0.352 A 
BRANCH  21  33
HETATM   33  O   UNL     1     -43.673  59.917 -54.639  1.00  0.00    -0.344 OA
HETATM   34  H   UNL     1     -44.460  59.649 -54.121  1.00  0.00     0.219 HD
ENDBRANCH  21  33
ENDBRANCH  19  20
ENDBRANCH   1  19
BRANCH   1  35
HETATM   35  C   UNL     1     -42.825  58.182 -51.818  1.00  0.00     0.238 C 
BRANCH  35  36
HETATM   36  C   UNL     1     -42.530  59.651 -51.509  1.00  0.00     0.054 C 
BRANCH  36  37
HETATM   37  C   UNL     1     -41.246  59.808 -50.703  1.00  0.00     0.165 C 
BRANCH  37  38
HETATM   38  O   UNL     1     -41.219  58.833 -49.675  1.00  0.00    -0.401 OA
HETATM   39  H   UNL     1     -40.353  58.383 -49.719  1.00  0.00     0.209 HD
ENDBRANCH  37  38
ENDBRANCH  36  37
ENDBRANCH  35  36
ENDBRANCH   1  35
TORSDOF 12
ENDMDL
MODEL 3
REMARK VINA RESULT:      -7.2      4.324      8.143
REMARK  12 active torsions:
REMARK  status: ('A' for Active; 'I' for Inactive)
REMARK    1  A    between atoms: C_2  and  C_3 
REMARK    2  A    between atoms: C_3  and  N_4 
REMARK    3  A    between atoms: C_3  and  C_25 
REMARK    4  A    between atoms: N_4  and  C_6 
REMARK    5  A    between atoms: N_4  and  C_21 
REMARK    6  A    between atoms: C_6  and  C_7 
REMARK    7  A    between atoms: C_8  and  O_9 
REMARK    8  A    between atoms: C_21  and  C_22 
REMARK    9  A    between atoms: C_22  and  C_23 
REMARK   10  A    between atoms: C_23  and  O_24 
REMARK   11  A    between atoms: N_26  and  C_27 
REMARK   12  A    between atoms: C_27  and  C_28 
ROOT
HETATM    1  N   UNL     1     -43.900  58.029 -53.108  1.00  0.00    -0.055 N 
HETATM    2  H   UNL     1     -44.577  57.593 -52.471  1.00  0.00     0.281 HD
ENDROOT
BRANCH   1   3
HETATM    3  C   UNL     1     -42.585  57.348 -52.637  1.00  0.00     0.263 C 
BRANCH   3   4
HETATM    4  C   UNL     1     -41.588  58.297 -51.902  1.00  0.00     0.016 C 
HETATM    5  C   UNL     1     -40.417  58.680 -52.825  1.00  0.00     0.012 C 
HETATM    6  C   UNL     1     -41.012  57.796 -50.581  1.00  0.00     0.012 C 
ENDBRANCH   3   4
BRANCH   3   7
HETATM    7  C   UNL     1     -42.783  56.023 -51.963  1.00  0.00     0.168 A 
HETATM    8  N   UNL     1     -42.005  54.894 -52.100  1.00  0.00    -0.257 N 
HETATM    9  N   UNL     1     -42.541  53.896 -51.380  1.00  0.00    -0.003 NA
HETATM   10  N   UNL     1     -43.607  54.408 -50.791  1.00  0.00     0.018 NA
HETATM   11  N   UNL     1     -43.767  55.717 -51.139  1.00  0.00    -0.145 NA
BRANCH   8  12
HETATM   12  C   UNL     1     -40.773  54.647 -52.830  1.00  0.00     0.186 C 
BRANCH  12  13
HETATM   13  C   UNL     1     -40.453  53.179 -52.960  1.00  0.00    -0.039 A 
HETATM   14  C   UNL     1     -40.769  52.498 -54.147  1.00  0.00     0.009 A 
HETATM   15  C   UNL     1     -40.437  51.152 -54.303  1.00  0.00     0.001 A 
HETATM   16  C   UNL     1     -39.777  50.474 -53.281  1.00  0.00     0.000 A 
HETATM   17  C   UNL     1     -39.441  51.142 -52.106  1.00  0.00     0.001 A 
HETATM   18  C   UNL     1     -39.770  52.489 -51.946  1.00  0.00     0.009 A 
ENDBRANCH  12  13
ENDBRANCH   8  12
ENDBRANCH   3   7
ENDBRANCH   1   3
BRANCH   1  19
HETATM   19  C   UNL     1     -44.166  59.508 -52.794  1.00  0.00     0.278 C 
BRANCH  19  20
HETATM   20  C   UNL     1     -44.703  59.987 -51.481  1.00  0.00     0.021 A 
HETATM   21  C   UNL     1     -45.392  59.176 -50.598  1.00  0.00     0.170 A 
HETATM   22  N   UNL     1     -45.820  59.512 -49.370  1.00  0.00    -0.224 NA
HETATM   23  C   UNL     1     -45.504  60.733 -48.911  1.00  0.00     0.072 A 
HETATM   24  C   UNL     1     -44.764  61.656 -49.697  1.00  0.00    -0.004 A 
HETATM   25  C   UNL     1     -45.882  61.092 -47.623  1.00  0.00     0.072 A 
HETATM   26  C   UNL     1     -44.382  61.259 -50.990  1.00  0.00     0.027 A 
HETATM   27  C   UNL     1     -44.401  62.912 -49.177  1.00  0.00     0.053 A 
HETATM   28  C   UNL     1     -44.776  63.208 -47.886  1.00  0.00     0.106 A 
HETATM   29  C   UNL     1     -45.502  62.324 -47.132  1.00  0.00     0.107 A 
HETATM   30  O   UNL     1     -44.484  64.350 -47.211  1.00  0.00    -0.323 OA
HETATM   31  O   UNL     1     -45.761  62.797 -45.884  1.00  0.00    -0.323 OA
HETATM   32  C   UNL     1     -45.077  64.068 -45.925  1.00  0.00     0.352 A 
BRANCH  21  33
HETATM   33  O   UNL     1     -45.673  57.888 -50.894  1.00  0.00    -0.344 OA
HETATM   34  H   UNL     1     -45.601  57.918 -51.870  1.00  0.00     0.219 HD
ENDBRANCH  21  33
ENDBRANCH  19  20
ENDBRANCH   1  19
BRANCH   1  35
HETATM   35  C   UNL     1     -44.371  57.547 -54.476  1.00  0.00     0.238 C 
BRANCH  35  36
HETATM   36  C   UNL     1     -44.405  58.678 -55.505  1.00  0.00     0.054 C 
BRANCH  36  37
HETATM   37  C   UNL     1     -45.477  58.441 -56.563  1.00  0.00     0.165 C 
BRANCH  37  38
HETATM   38  O   UNL     1     -46.477  57.591 -56.031  1.00  0.00    -0.401 OA
HETATM   39  H   UNL     1     -47.027  57.282 -56.777  1.00  0.00     0.209 HD
ENDBRANCH  37  38
ENDBRANCH  36  37
ENDBRANCH  35  36
ENDBRANCH   1  35
TORSDOF 12
ENDMDL
MODEL 4
REMARK VINA RESULT:      -7.1     16.401     19.510
REMARK  12 active torsions:
REMARK  status: ('A' for Active; 'I' for Inactive)
REMARK    1  A    between atoms: C_2  and  C_3 
REMARK    2  A    between atoms: C_3  and  N_4 
REMARK    3  A    between atoms: C_3  and  C_25 
REMARK    4  A    between atoms: N_4  and  C_6 
REMARK    5  A    between atoms: N_4  and  C_21 
REMARK    6  A    between atoms: C_6  and  C_7 
REMARK    7  A    between atoms: C_8  and  O_9 
REMARK    8  A    between atoms: C_21  and  C_22 
REMARK    9  A    between atoms: C_22  and  C_23 
REMARK   10  A    between atoms: C_23  and  O_24 
REMARK   11  A    between atoms: N_26  and  C_27 
REMARK   12  A    between atoms: C_27  and  C_28 
ROOT
HETATM    1  N   UNL     1     -35.746  41.006 -53.556  1.00  0.00    -0.055 N 
HETATM    2  H   UNL     1     -35.152  41.630 -54.111  1.00  0.00     0.281 HD
ENDROOT
BRANCH   1   3
HETATM    3  C   UNL     1     -34.896  39.705 -53.581  1.00  0.00     0.263 C 
BRANCH   3   4
HETATM    4  C   UNL     1     -35.669  38.430 -54.042  1.00  0.00     0.016 C 
HETATM    5  C   UNL     1     -35.726  37.388 -52.912  1.00  0.00     0.012 C 
HETATM    6  C   UNL     1     -35.164  37.741 -55.306  1.00  0.00     0.012 C 
ENDBRANCH   3   4
BRANCH   3   7
HETATM    7  C   UNL     1     -33.544  39.865 -54.210  1.00  0.00     0.168 A 
HETATM    8  N   UNL     1     -32.397  39.162 -53.909  1.00  0.00    -0.257 N 
HETATM    9  N   UNL     1     -31.380  39.635 -54.647  1.00  0.00    -0.003 NA
HETATM   10  N   UNL     1     -31.896  40.586 -55.404  1.00  0.00     0.018 NA
HETATM   11  N   UNL     1     -33.227  40.736 -55.148  1.00  0.00    -0.145 NA
BRANCH   8  12
HETATM   12  C   UNL     1     -32.147  38.054 -53.002  1.00  0.00     0.186 C 
BRANCH  12  13
HETATM   13  C   UNL     1     -32.281  38.443 -51.551  1.00  0.00    -0.039 A 
HETATM   14  C   UNL     1     -31.738  39.658 -51.101  1.00  0.00     0.009 A 
HETATM   15  C   UNL     1     -31.893  40.055 -49.774  1.00  0.00     0.001 A 
HETATM   16  C   UNL     1     -32.602  39.252 -48.884  1.00  0.00     0.000 A 
HETATM   17  C   UNL     1     -33.163  38.055 -49.321  1.00  0.00     0.001 A 
HETATM   18  C   UNL     1     -33.011  37.653 -50.649  1.00  0.00     0.009 A 
ENDBRANCH  12  13
ENDBRANCH   8  12
ENDBRANCH   3   7
ENDBRANCH   1   3
BRANCH   1  19
HETATM   19  C   UNL     1     -37.047  41.100 -54.365  1.00  0.00     0.278 C 
BRANCH  19  20
HETATM   20  C   UNL     1     -37.093  41.038 -55.860  1.00  0.00     0.021 A 
HETATM   21  C   UNL     1     -36.245  41.762 -56.679  1.00  0.00     0.170 A 
HETATM   22  N   UNL     1     -36.168  41.686 -58.017  1.00  0.00    -0.224 NA
HETATM   23  C   UNL     1     -36.941  40.780 -58.637  1.00  0.00     0.072 A 
HETATM   24  C   UNL     1     -37.829  39.940 -57.916  1.00  0.00    -0.004 A 
HETATM   25  C   UNL     1     -36.844  40.636 -60.017  1.00  0.00     0.072 A 
HETATM   26  C   UNL     1     -37.894  40.098 -56.520  1.00  0.00     0.027 A 
HETATM   27  C   UNL     1     -38.593  38.963 -58.581  1.00  0.00     0.053 A 
HETATM   28  C   UNL     1     -38.440  38.843 -59.943  1.00  0.00     0.106 A 
HETATM   29  C   UNL     1     -37.593  39.662 -60.643  1.00  0.00     0.107 A 
HETATM   30  O   UNL     1     -39.064  37.937 -60.740  1.00  0.00    -0.323 OA
HETATM   31  O   UNL     1     -37.575  39.377 -61.972  1.00  0.00    -0.323 OA
HETATM   32  C   UNL     1     -38.481  38.253 -62.023  1.00  0.00     0.352 A 
BRANCH  21  33
HETATM   33  O   UNL     1     -35.339  42.625 -56.170  1.00  0.00    -0.344 OA
HETATM   34  H   UNL     1     -35.379  42.376 -55.224  1.00  0.00     0.219 HD
ENDBRANCH  21  33
ENDBRANCH  19  20
ENDBRANCH   1  19
BRANCH   1  35
HETATM   35  C   UNL     1     -35.763  41.686 -52.192  1.00  0.00     0.238 C 
BRANCH  35  36
HETATM   36  C   UNL     1     -35.271  40.758 -51.079  1.00  0.00     0.054 C 
BRANCH  36  37
HETATM   37  C   UNL     1     -36.433  40.156 -50.298  1.00  0.00     0.165 C 
BRANCH  37  38
HETATM   38  O   UNL     1     -37.621  40.282 -51.057  1.00  0.00    -0.401 OA
HETATM   39  H   UNL     1     -37.416  40.835 -51.836  1.00  0.00     0.209 HD
ENDBRANCH  37  38
ENDBRANCH  36  37
ENDBRANCH  35  36
ENDBRANCH   1  35
TORSDOF 12
ENDMDL
MODEL 5
REMARK VINA RESULT:      -7.1      2.697      7.505
REMARK  12 active torsions:
REMARK  status: ('A' for Active; 'I' for Inactive)
REMARK    1  A    between atoms: C_2  and  C_3 
REMARK    2  A    between atoms: C_3  and  N_4 
REMARK    3  A    between atoms: C_3  and  C_25 
REMARK    4  A    between atoms: N_4  and  C_6 
REMARK    5  A    between atoms: N_4  and  C_21 
REMARK    6  A    between atoms: C_6  and  C_7 
REMARK    7  A    between atoms: C_8  and  O_9 
REMARK    8  A    between atoms: C_21  and  C_22 
REMARK    9  A    between atoms: C_22  and  C_23 
REMARK   10  A    between atoms: C_23  and  O_24 
REMARK   11  A    between atoms: N_26  and  C_27 
REMARK   12  A    between atoms: C_27  and  C_28 
ROOT
HETATM    1  N   UNL     1     -43.141  57.183 -53.796  1.00  0.00    -0.055 N 
HETATM    2  H   UNL     1     -42.743  58.043 -54.190  1.00  0.00     0.281 HD
ENDROOT
BRANCH   1   3
HETATM    3  C   UNL     1     -42.257  57.014 -52.528  1.00  0.00     0.263 C 
BRANCH   3   4
HETATM    4  C   UNL     1     -41.835  58.352 -51.846  1.00  0.00     0.016 C 
HETATM    5  C   UNL     1     -41.267  59.338 -52.881  1.00  0.00     0.012 C 
HETATM    6  C   UNL     1     -40.847  58.250 -50.687  1.00  0.00     0.012 C 
ENDBRANCH   3   4
BRANCH   3   7
HETATM    7  C   UNL     1     -42.743  55.963 -51.574  1.00  0.00     0.168 A 
HETATM    8  N   UNL     1     -42.017  54.915 -51.051  1.00  0.00    -0.257 N 
HETATM    9  N   UNL     1     -42.819  54.160 -50.283  1.00  0.00    -0.003 NA
HETATM   10  N   UNL     1     -44.002  54.748 -50.310  1.00  0.00     0.018 NA
HETATM   11  N   UNL     1     -43.968  55.860 -51.099  1.00  0.00    -0.145 NA
BRANCH   8  12
HETATM   12  C   UNL     1     -40.618  54.545 -51.175  1.00  0.00     0.186 C 
BRANCH  12  13
HETATM   13  C   UNL     1     -40.386  53.461 -52.198  1.00  0.00    -0.039 A 
HETATM   14  C   UNL     1     -39.796  52.247 -51.808  1.00  0.00     0.009 A 
HETATM   15  C   UNL     1     -39.618  51.217 -52.730  1.00  0.00     0.001 A 
HETATM   16  C   UNL     1     -40.038  51.380 -54.049  1.00  0.00     0.000 A 
HETATM   17  C   UNL     1     -40.642  52.571 -54.444  1.00  0.00     0.001 A 
HETATM   18  C   UNL     1     -40.823  53.605 -53.525  1.00  0.00     0.009 A 
ENDBRANCH  12  13
ENDBRANCH   8  12
ENDBRANCH   3   7
ENDBRANCH   1   3
BRANCH   1  19
HETATM   19  C   UNL     1     -42.964  56.243 -54.997  1.00  0.00     0.278 C 
BRANCH  19  20
HETATM   20  C   UNL     1     -42.704  56.727 -56.389  1.00  0.00     0.021 A 
HETATM   21  C   UNL     1     -43.026  56.001 -57.521  1.00  0.00     0.170 A 
HETATM   22  N   UNL     1     -42.907  56.410 -58.794  1.00  0.00    -0.224 NA
HETATM   23  C   UNL     1     -42.491  57.668 -59.011  1.00  0.00     0.072 A 
HETATM   24  C   UNL     1     -42.165  58.539 -57.939  1.00  0.00    -0.004 A 
HETATM   25  C   UNL     1     -42.411  58.141 -60.315  1.00  0.00     0.072 A 
HETATM   26  C   UNL     1     -42.270  58.037 -56.629  1.00  0.00     0.027 A 
HETATM   27  C   UNL     1     -41.779  59.869 -58.186  1.00  0.00     0.053 A 
HETATM   28  C   UNL     1     -41.742  60.296 -59.494  1.00  0.00     0.106 A 
HETATM   29  C   UNL     1     -42.044  59.453 -60.531  1.00  0.00     0.107 A 
HETATM   30  O   UNL     1     -41.430  61.549 -59.917  1.00  0.00    -0.323 OA
HETATM   31  O   UNL     1     -41.961  60.067 -61.741  1.00  0.00    -0.323 OA
HETATM   32  C   UNL     1     -41.609  61.410 -61.343  1.00  0.00     0.352 A 
BRANCH  21  33
HETATM   33  O   UNL     1     -43.561  54.764 -57.438  1.00  0.00    -0.344 OA
HETATM   34  H   UNL     1     -42.756  54.220 -57.567  1.00  0.00     0.219 HD
ENDBRANCH  21  33
ENDBRANCH  19  20
ENDBRANCH   1  19
BRANCH   1  35
HETATM   35  C   UNL     1     -44.574  57.593 -53.479  1.00  0.00     0.238 C 
BRANCH  35  36
HETATM   36  C   UNL     1     -44.887  59.011 -53.960  1.00  0.00     0.054 C 
BRANCH  36  37
HETATM   37  C   UNL     1     -45.446  59.012 -55.378  1.00  0.00     0.165 C 
BRANCH  37  38
HETATM   38  O   UNL     1     -45.990  57.736 -55.665  1.00  0.00    -0.401 OA
HETATM   39  H   UNL     1     -46.791  57.627 -55.116  1.00  0.00     0.209 HD
ENDBRANCH  37  38
ENDBRANCH  36  37
ENDBRANCH  35  36
ENDBRANCH   1  35
TORSDOF 12
ENDMDL
MODEL 6
REMARK VINA RESULT:      -7.0      2.619      7.149
REMARK  12 active torsions:
REMARK  status: ('A' for Active; 'I' for Inactive)
REMARK    1  A    between atoms: C_2  and  C_3 
REMARK    2  A    between atoms: C_3  and  N_4 
REMARK    3  A    between atoms: C_3  and  C_25 
REMARK    4  A    between atoms: N_4  and  C_6 
REMARK    5  A    between atoms: N_4  and  C_21 
REMARK    6  A    between atoms: C_6  and  C_7 
REMARK    7  A    between atoms: C_8  and  O_9 
REMARK    8  A    between atoms: C_21  and  C_22 
REMARK    9  A    between atoms: C_22  and  C_23 
REMARK   10  A    between atoms: C_23  and  O_24 
REMARK   11  A    between atoms: N_26  and  C_27 
REMARK   12  A    between atoms: C_27  and  C_28 
ROOT
HETATM    1  N   UNL     1     -42.236  55.446 -54.497  1.00  0.00    -0.055 N 
HETATM    2  H   UNL     1     -42.433  54.547 -54.044  1.00  0.00     0.281 HD
ENDROOT
BRANCH   1   3
HETATM    3  C   UNL     1     -42.760  56.432 -53.415  1.00  0.00     0.263 C 
BRANCH   3   4
HETATM    4  C   UNL     1     -42.849  55.833 -51.977  1.00  0.00     0.016 C 
HETATM    5  C   UNL     1     -43.132  54.321 -52.032  1.00  0.00     0.012 C 
HETATM    6  C   UNL     1     -43.857  56.475 -51.028  1.00  0.00     0.012 C 
ENDBRANCH   3   4
BRANCH   3   7
HETATM    7  C   UNL     1     -42.142  57.797 -53.475  1.00  0.00     0.168 A 
HETATM    8  N   UNL     1     -42.798  59.004 -53.581  1.00  0.00    -0.257 N 
HETATM    9  N   UNL     1     -41.895  59.995 -53.664  1.00  0.00    -0.003 NA
HETATM   10  N   UNL     1     -40.713  59.412 -53.581  1.00  0.00     0.018 NA
HETATM   11  N   UNL     1     -40.849  58.060 -53.462  1.00  0.00    -0.145 NA
BRANCH   8  12
HETATM   12  C   UNL     1     -44.211  59.343 -53.590  1.00  0.00     0.186 C 
BRANCH  12  13
HETATM   13  C   UNL     1     -44.812  59.314 -54.973  1.00  0.00    -0.039 A 
HETATM   14  C   UNL     1     -44.666  60.424 -55.821  1.00  0.00     0.009 A 
HETATM   15  C   UNL     1     -45.174  60.396 -57.120  1.00  0.00     0.001 A 
HETATM   16  C   UNL     1     -45.822  59.256 -57.591  1.00  0.00     0.000 A 
HETATM   17  C   UNL     1     -45.957  58.141 -56.766  1.00  0.00     0.001 A 
HETATM   18  C   UNL     1     -45.449  58.164 -55.466  1.00  0.00     0.009 A 
ENDBRANCH  12  13
ENDBRANCH   8  12
ENDBRANCH   3   7
ENDBRANCH   1   3
BRANCH   1  19
HETATM   19  C   UNL     1     -43.009  55.249 -55.809  1.00  0.00     0.278 C 
BRANCH  19  20
HETATM   20  C   UNL     1     -42.830  56.126 -57.009  1.00  0.00     0.021 A 
HETATM   21  C   UNL     1     -43.361  55.834 -58.252  1.00  0.00     0.170 A 
HETATM   22  N   UNL     1     -43.320  56.615 -59.343  1.00  0.00    -0.224 NA
HETATM   23  C   UNL     1     -42.765  57.831 -59.220  1.00  0.00     0.072 A 
HETATM   24  C   UNL     1     -42.216  58.279 -57.990  1.00  0.00    -0.004 A 
HETATM   25  C   UNL     1     -42.757  58.687 -60.316  1.00  0.00     0.072 A 
HETATM   26  C   UNL     1     -42.252  57.397 -56.895  1.00  0.00     0.027 A 
HETATM   27  C   UNL     1     -41.684  59.576 -57.871  1.00  0.00     0.053 A 
HETATM   28  C   UNL     1     -41.725  60.393 -58.977  1.00  0.00     0.106 A 
HETATM   29  C   UNL     1     -42.242  59.958 -60.169  1.00  0.00     0.107 A 
HETATM   30  O   UNL     1     -41.294  61.680 -59.036  1.00  0.00    -0.323 OA
HETATM   31  O   UNL     1     -42.202  60.916 -61.133  1.00  0.00    -0.323 OA
HETATM   32  C   UNL     1     -41.636  62.022 -60.397  1.00  0.00     0.352 A 
BRANCH  21  33
HETATM   33  O   UNL     1     -44.044  54.690 -58.476  1.00  0.00    -0.344 OA
HETATM   34  H   UNL     1     -43.342  54.033 -58.295  1.00  0.00     0.219 HD
ENDBRANCH  21  33
ENDBRANCH  19  20
ENDBRANCH   1  19
BRANCH   1  35
HETATM   35  C   UNL     1     -40.716  55.434 -54.614  1.00  0.00     0.238 C 
BRANCH  35  36
HETATM   36  C   UNL     1     -40.195  54.129 -55.219  1.00  0.00     0.054 C 
BRANCH  36  37
HETATM   37  C   UNL     1     -40.253  52.984 -54.214  1.00  0.00     0.165 C 
BRANCH  37  38
HETATM   38  O   UNL     1     -41.490  52.308 -54.348  1.00  0.00    -0.401 OA
HETATM   39  H   UNL     1     -42.199  52.979 -54.303  1.00  0.00     0.209 HD
ENDBRANCH  37  38
ENDBRANCH  36  37
ENDBRANCH  35  36
ENDBRANCH   1  35
TORSDOF 12
ENDMDL
MODEL 7
REMARK VINA RESULT:      -7.0      3.774      8.051
REMARK  12 active torsions:
REMARK  status: ('A' for Active; 'I' for Inactive)
REMARK    1  A    between atoms: C_2  and  C_3 
REMARK    2  A    between atoms: C_3  and  N_4 
REMARK    3  A    between atoms: C_3  and  C_25 
REMARK    4  A    between atoms: N_4  and  C_6 
REMARK    5  A    between atoms: N_4  and  C_21 
REMARK    6  A    between atoms: C_6  and  C_7 
REMARK    7  A    between atoms: C_8  and  O_9 
REMARK    8  A    between atoms: C_21  and  C_22 
REMARK    9  A    between atoms: C_22  and  C_23 
REMARK   10  A    between atoms: C_23  and  O_24 
REMARK   11  A    between atoms: N_26  and  C_27 
REMARK   12  A    between atoms: C_27  and  C_28 
ROOT
HETATM    1  N   UNL     1     -42.044  58.128 -53.138  1.00  0.00    -0.055 N 
HETATM    2  H   UNL     1     -43.062  58.254 -53.157  1.00  0.00     0.281 HD
ENDROOT
BRANCH   1   3
HETATM    3  C   UNL     1     -41.945  56.672 -52.602  1.00  0.00     0.263 C 
BRANCH   3   4
HETATM    4  C   UNL     1     -42.326  56.505 -51.099  1.00  0.00     0.016 C 
HETATM    5  C   UNL     1     -41.066  56.479 -50.216  1.00  0.00     0.012 C 
HETATM    6  C   UNL     1     -43.188  55.298 -50.740  1.00  0.00     0.012 C 
ENDBRANCH   3   4
BRANCH   3   7
HETATM    7  C   UNL     1     -42.549  55.640 -53.508  1.00  0.00     0.168 A 
HETATM    8  N   UNL     1     -41.882  54.674 -54.230  1.00  0.00    -0.257 N 
HETATM    9  N   UNL     1     -42.766  53.981 -54.965  1.00  0.00    -0.003 NA
HETATM   10  N   UNL     1     -43.950  54.490 -54.679  1.00  0.00     0.018 NA
HETATM   11  N   UNL     1     -43.832  55.510 -53.782  1.00  0.00    -0.145 NA
BRANCH   8  12
HETATM   12  C   UNL     1     -40.478  54.304 -54.291  1.00  0.00     0.186 C 
BRANCH  12  13
HETATM   13  C   UNL     1     -40.155  53.089 -53.458  1.00  0.00    -0.039 A 
HETATM   14  C   UNL     1     -40.154  53.184 -52.057  1.00  0.00     0.009 A 
HETATM   15  C   UNL     1     -39.904  52.059 -51.270  1.00  0.00     0.001 A 
HETATM   16  C   UNL     1     -39.665  50.826 -51.873  1.00  0.00     0.000 A 
HETATM   17  C   UNL     1     -39.683  50.714 -53.261  1.00  0.00     0.001 A 
HETATM   18  C   UNL     1     -39.933  51.836 -54.052  1.00  0.00     0.009 A 
ENDBRANCH  12  13
ENDBRANCH   8  12
ENDBRANCH   3   7
ENDBRANCH   1   3
BRANCH   1  19
HETATM   19  C   UNL     1     -41.655  59.314 -52.244  1.00  0.00     0.278 C 
BRANCH  19  20
HETATM   20  C   UNL     1     -42.617  60.381 -51.827  1.00  0.00     0.021 A 
HETATM   21  C   UNL     1     -42.979  61.441 -52.638  1.00  0.00     0.170 A 
HETATM   22  N   UNL     1     -43.901  62.378 -52.367  1.00  0.00    -0.224 NA
HETATM   23  C   UNL     1     -44.596  62.259 -51.224  1.00  0.00     0.072 A 
HETATM   24  C   UNL     1     -44.357  61.195 -50.315  1.00  0.00    -0.004 A 
HETATM   25  C   UNL     1     -45.597  63.180 -50.939  1.00  0.00     0.072 A 
HETATM   26  C   UNL     1     -43.348  60.270 -50.637  1.00  0.00     0.027 A 
HETATM   27  C   UNL     1     -45.131  61.062 -49.147  1.00  0.00     0.053 A 
HETATM   28  C   UNL     1     -46.127  61.984 -48.926  1.00  0.00     0.106 A 
HETATM   29  C   UNL     1     -46.351  63.019 -49.795  1.00  0.00     0.107 A 
HETATM   30  O   UNL     1     -46.991  61.990 -47.877  1.00  0.00    -0.323 OA
HETATM   31  O   UNL     1     -47.384  63.811 -49.406  1.00  0.00    -0.323 OA
HETATM   32  C   UNL     1     -47.815  63.130 -48.207  1.00  0.00     0.352 A 
BRANCH  21  33
HETATM   33  O   UNL     1     -42.436  61.609 -53.864  1.00  0.00    -0.344 OA
HETATM   34  H   UNL     1     -43.231  61.481 -54.421  1.00  0.00     0.219 HD
ENDBRANCH  21  33
ENDBRANCH  19  20
ENDBRANCH   1  19
BRANCH   1  35
HETATM   35  C   UNL     1     -41.664  58.255 -54.609  1.00  0.00     0.238 C 
BRANCH  35  36
HETATM   36  C   UNL     1     -42.888  58.454 -55.505  1.00  0.00     0.054 C 
BRANCH  36  37
HETATM   37  C   UNL     1     -42.852  57.531 -56.717  1.00  0.00     0.165 C 
BRANCH  37  38
HETATM   38  O   UNL     1     -43.908  56.592 -56.620  1.00  0.00    -0.401 OA
HETATM   39  H   UNL     1     -43.584  55.839 -56.089  1.00  0.00     0.209 HD
ENDBRANCH  37  38
ENDBRANCH  36  37
ENDBRANCH  35  36
ENDBRANCH   1  35
TORSDOF 12
ENDMDL
MODEL 8
REMARK VINA RESULT:      -7.0      2.474      5.680
REMARK  12 active torsions:
REMARK  status: ('A' for Active; 'I' for Inactive)
REMARK    1  A    between atoms: C_2  and  C_3 
REMARK    2  A    between atoms: C_3  and  N_4 
REMARK    3  A    between atoms: C_3  and  C_25 
REMARK    4  A    between atoms: N_4  and  C_6 
REMARK    5  A    between atoms: N_4  and  C_21 
REMARK    6  A    between atoms: C_6  and  C_7 
REMARK    7  A    between atoms: C_8  and  O_9 
REMARK    8  A    between atoms: C_21  and  C_22 
REMARK    9  A    between atoms: C_22  and  C_23 
REMARK   10  A    between atoms: C_23  and  O_24 
REMARK   11  A    between atoms: N_26  and  C_27 
REMARK   12  A    between atoms: C_27  and  C_28 
ROOT
HETATM    1  N   UNL     1     -43.556  57.323 -57.461  1.00  0.00    -0.055 N 
HETATM    2  H   UNL     1     -44.140  57.585 -56.660  1.00  0.00     0.281 HD
ENDROOT
BRANCH   1   3
HETATM    3  C   UNL     1     -44.496  57.708 -58.638  1.00  0.00     0.263 C 
BRANCH   3   4
HETATM    4  C   UNL     1     -44.281  59.149 -59.197  1.00  0.00     0.016 C 
HETATM    5  C   UNL     1     -45.415  60.085 -58.743  1.00  0.00     0.012 C 
HETATM    6  C   UNL     1     -44.125  59.282 -60.709  1.00  0.00     0.012 C 
ENDBRANCH   3   4
BRANCH   3   7
HETATM    7  C   UNL     1     -44.625  56.652 -59.695  1.00  0.00     0.168 A 
HETATM    8  N   UNL     1     -45.791  56.161 -60.243  1.00  0.00    -0.257 N 
HETATM    9  N   UNL     1     -45.494  55.184 -61.115  1.00  0.00    -0.003 NA
HETATM   10  N   UNL     1     -44.176  55.097 -61.123  1.00  0.00     0.018 NA
HETATM   11  N   UNL     1     -43.628  55.996 -60.257  1.00  0.00    -0.145 NA
BRANCH   8  12
HETATM   12  C   UNL     1     -47.183  56.530 -60.053  1.00  0.00     0.186 C 
BRANCH  12  13
HETATM   13  C   UNL     1     -47.724  57.376 -61.179  1.00  0.00    -0.039 A 
HETATM   14  C   UNL     1     -48.345  56.760 -62.278  1.00  0.00     0.009 A 
HETATM   15  C   UNL     1     -48.893  57.529 -63.305  1.00  0.00     0.001 A 
HETATM   16  C   UNL     1     -48.838  58.920 -63.240  1.00  0.00     0.000 A 
HETATM   17  C   UNL     1     -48.242  59.543 -62.146  1.00  0.00     0.001 A 
HETATM   18  C   UNL     1     -47.693  58.778 -61.116  1.00  0.00     0.009 A 
ENDBRANCH  12  13
ENDBRANCH   8  12
ENDBRANCH   3   7
ENDBRANCH   1   3
BRANCH   1  19
HETATM   19  C   UNL     1     -43.300  55.848 -57.122  1.00  0.00     0.278 C 
BRANCH  19  20
HETATM   20  C   UNL     1     -42.871  55.377 -55.768  1.00  0.00     0.021 A 
HETATM   21  C   UNL     1     -43.606  55.595 -54.617  1.00  0.00     0.170 A 
HETATM   22  N   UNL     1     -43.330  55.124 -53.390  1.00  0.00    -0.224 NA
HETATM   23  C   UNL     1     -42.271  54.309 -53.257  1.00  0.00     0.072 A 
HETATM   24  C   UNL     1     -41.451  53.967 -54.364  1.00  0.00    -0.004 A 
HETATM   25  C   UNL     1     -41.991  53.759 -52.012  1.00  0.00     0.072 A 
HETATM   26  C   UNL     1     -41.768  54.527 -55.614  1.00  0.00     0.027 A 
HETATM   27  C   UNL     1     -40.376  53.072 -54.212  1.00  0.00     0.053 A 
HETATM   28  C   UNL     1     -40.158  52.534 -52.965  1.00  0.00     0.106 A 
HETATM   29  C   UNL     1     -40.940  52.873 -51.892  1.00  0.00     0.107 A 
HETATM   30  O   UNL     1     -39.196  51.631 -52.641  1.00  0.00    -0.323 OA
HETATM   31  O   UNL     1     -40.571  52.227 -50.755  1.00  0.00    -0.323 OA
HETATM   32  C   UNL     1     -39.487  51.407 -51.245  1.00  0.00     0.352 A 
BRANCH  21  33
HETATM   33  O   UNL     1     -44.755  56.304 -54.637  1.00  0.00    -0.344 OA
HETATM   34  H   UNL     1     -44.653  56.819 -53.810  1.00  0.00     0.219 HD
ENDBRANCH  21  33
ENDBRANCH  19  20
ENDBRANCH   1  19
BRANCH   1  35
HETATM   35  C   UNL     1     -42.357  58.254 -57.320  1.00  0.00     0.238 C 
BRANCH  35  36
HETATM   36  C   UNL     1     -42.268  58.870 -55.922  1.00  0.00     0.054 C 
BRANCH  36  37
HETATM   37  C   UNL     1     -43.413  59.843 -55.665  1.00  0.00     0.165 C 
BRANCH  37  38
HETATM   38  O   UNL     1     -44.576  59.114 -55.318  1.00  0.00    -0.401 OA
HETATM   39  H   UNL     1     -45.258  59.760 -55.046  1.00  0.00     0.209 HD
ENDBRANCH  37  38
ENDBRANCH  36  37
ENDBRANCH  35  36
ENDBRANCH   1  35
TORSDOF 12
ENDMDL
MODEL 9
REMARK VINA RESULT:      -7.0      2.676      5.413
REMARK  12 active torsions:
REMARK  status: ('A' for Active; 'I' for Inactive)
REMARK    1  A    between atoms: C_2  and  C_3 
REMARK    2  A    between atoms: C_3  and  N_4 
REMARK    3  A    between atoms: C_3  and  C_25 
REMARK    4  A    between atoms: N_4  and  C_6 
REMARK    5  A    between atoms: N_4  and  C_21 
REMARK    6  A    between atoms: C_6  and  C_7 
REMARK    7  A    between atoms: C_8  and  O_9 
REMARK    8  A    between atoms: C_21  and  C_22 
REMARK    9  A    between atoms: C_22  and  C_23 
REMARK   10  A    between atoms: C_23  and  O_24 
REMARK   11  A    between atoms: N_26  and  C_27 
REMARK   12  A    between atoms: C_27  and  C_28 
ROOT
HETATM    1  N   UNL     1     -42.898  58.230 -53.520  1.00  0.00    -0.055 N 
HETATM    2  H   UNL     1     -43.200  58.791 -52.715  1.00  0.00     0.281 HD
ENDROOT
BRANCH   1   3
HETATM    3  C   UNL     1     -43.613  58.983 -54.677  1.00  0.00     0.263 C 
BRANCH   3   4
HETATM    4  C   UNL     1     -44.401  60.255 -54.237  1.00  0.00     0.016 C 
HETATM    5  C   UNL     1     -44.978  60.078 -52.821  1.00  0.00     0.012 C 
HETATM    6  C   UNL     1     -45.526  60.719 -55.158  1.00  0.00     0.012 C 
ENDBRANCH   3   4
BRANCH   3   7
HETATM    7  C   UNL     1     -42.768  59.176 -55.901  1.00  0.00     0.168 A 
HETATM    8  N   UNL     1     -42.453  58.230 -56.853  1.00  0.00    -0.257 N 
HETATM    9  N   UNL     1     -41.628  58.773 -57.762  1.00  0.00    -0.003 NA
HETATM   10  N   UNL     1     -41.464  60.031 -57.394  1.00  0.00     0.018 NA
HETATM   11  N   UNL     1     -42.162  60.293 -56.252  1.00  0.00    -0.145 NA
BRANCH   8  12
HETATM   12  C   UNL     1     -42.867  56.847 -57.021  1.00  0.00     0.186 C 
BRANCH  12  13
HETATM   13  C   UNL     1     -43.735  56.640 -58.237  1.00  0.00    -0.039 A 
HETATM   14  C   UNL     1     -43.487  55.555 -59.095  1.00  0.00     0.009 A 
HETATM   15  C   UNL     1     -44.308  55.320 -60.197  1.00  0.00     0.001 A 
HETATM   16  C   UNL     1     -45.393  56.157 -60.450  1.00  0.00     0.000 A 
HETATM   17  C   UNL     1     -45.662  57.225 -59.596  1.00  0.00     0.001 A 
HETATM   18  C   UNL     1     -44.843  57.463 -58.491  1.00  0.00     0.009 A 
ENDBRANCH  12  13
ENDBRANCH   8  12
ENDBRANCH   3   7
ENDBRANCH   1   3
BRANCH   1  19
HETATM   19  C   UNL     1     -43.391  56.848 -53.070  1.00  0.00     0.278 C 
BRANCH  19  20
HETATM   20  C   UNL     1     -42.471  55.725 -52.705  1.00  0.00     0.021 A 
HETATM   21  C   UNL     1     -42.094  55.440 -51.406  1.00  0.00     0.170 A 
HETATM   22  N   UNL     1     -41.352  54.399 -50.998  1.00  0.00    -0.224 NA
HETATM   23  C   UNL     1     -40.977  53.499 -51.921  1.00  0.00     0.072 A 
HETATM   24  C   UNL     1     -41.329  53.644 -53.289  1.00  0.00    -0.004 A 
HETATM   25  C   UNL     1     -40.256  52.379 -51.524  1.00  0.00     0.072 A 
HETATM   26  C   UNL     1     -42.072  54.779 -53.658  1.00  0.00     0.027 A 
HETATM   27  C   UNL     1     -40.969  52.664 -54.231  1.00  0.00     0.053 A 
HETATM   28  C   UNL     1     -40.279  51.561 -53.782  1.00  0.00     0.106 A 
HETATM   29  C   UNL     1     -39.927  51.425 -52.465  1.00  0.00     0.107 A 
HETATM   30  O   UNL     1     -39.883  50.504 -54.537  1.00  0.00    -0.323 OA
HETATM   31  O   UNL     1     -39.263  50.264 -52.222  1.00  0.00    -0.323 OA
HETATM   32  C   UNL     1     -39.273  49.663 -53.534  1.00  0.00     0.352 A 
BRANCH  21  33
HETATM   33  O   UNL     1     -42.501  56.204 -50.369  1.00  0.00    -0.344 OA
HETATM   34  H   UNL     1     -41.829  56.916 -50.406  1.00  0.00     0.219 HD
ENDBRANCH  21  33
ENDBRANCH  19  20
ENDBRANCH   1  19
BRANCH   1  35
HETATM   35  C   UNL     1     -41.387  58.429 -53.517  1.00  0.00     0.238 C 
BRANCH  35  36
HETATM   36  C   UNL     1     -40.955  59.549 -52.568  1.00  0.00     0.054 C 
BRANCH  36  37
HETATM   37  C   UNL     1     -40.886  59.064 -51.125  1.00  0.00     0.165 C 
BRANCH  37  38
HETATM   38  O   UNL     1     -42.192  59.043 -50.577  1.00  0.00    -0.401 OA
HETATM   39  H   UNL     1     -42.166  59.537 -49.734  1.00  0.00     0.209 HD
ENDBRANCH  37  38
ENDBRANCH  36  37
ENDBRANCH  35  36
ENDBRANCH   1  35
TORSDOF 12
ENDMDL
MODEL 10
REMARK VINA RESULT:      -6.8      1.686      2.337
REMARK  12 active torsions:
REMARK  status: ('A' for Active; 'I' for Inactive)
REMARK    1  A    between atoms: C_2  and  C_3 
REMARK    2  A    between atoms: C_3  and  N_4 
REMARK    3  A    between atoms: C_3  and  C_25 
REMARK    4  A    between atoms: N_4  and  C_6 
REMARK    5  A    between atoms: N_4  and  C_21 
REMARK    6  A    between atoms: C_6  and  C_7 
REMARK    7  A    between atoms: C_8  and  O_9 
REMARK    8  A    between atoms: C_21  and  C_22 
REMARK    9  A    between atoms: C_22  and  C_23 
REMARK   10  A    between atoms: C_23  and  O_24 
REMARK   11  A    between atoms: N_26  and  C_27 
REMARK   12  A    between atoms: C_27  and  C_28 
ROOT
HETATM    1  N   UNL     1     -44.087  58.417 -56.863  1.00  0.00    -0.055 N 
HETATM    2  H   UNL     1     -43.237  57.985 -57.240  1.00  0.00     0.281 HD
ENDROOT
BRANCH   1   3
HETATM    3  C   UNL     1     -43.540  59.813 -56.453  1.00  0.00     0.263 C 
BRANCH   3   4
HETATM    4  C   UNL     1     -43.042  60.692 -57.642  1.00  0.00     0.016 C 
HETATM    5  C   UNL     1     -41.656  60.227 -58.122  1.00  0.00     0.012 C 
HETATM    6  C   UNL     1     -42.988  62.199 -57.407  1.00  0.00     0.012 C 
ENDBRANCH   3   4
BRANCH   3   7
HETATM    7  C   UNL     1     -44.398  60.546 -55.464  1.00  0.00     0.168 A 
HETATM    8  N   UNL     1     -43.993  61.129 -54.283  1.00  0.00    -0.257 N 
HETATM    9  N   UNL     1     -45.063  61.635 -53.649  1.00  0.00    -0.003 NA
HETATM   10  N   UNL     1     -46.096  61.393 -54.436  1.00  0.00     0.018 NA
HETATM   11  N   UNL     1     -45.700  60.726 -55.558  1.00  0.00    -0.145 NA
BRANCH   8  12
HETATM   12  C   UNL     1     -42.682  61.290 -53.679  1.00  0.00     0.186 C 
BRANCH  12  13
HETATM   13  C   UNL     1     -42.152  60.011 -53.080  1.00  0.00    -0.039 A 
HETATM   14  C   UNL     1     -41.183  59.265 -53.771  1.00  0.00     0.009 A 
HETATM   15  C   UNL     1     -40.648  58.105 -53.210  1.00  0.00     0.001 A 
HETATM   16  C   UNL     1     -41.064  57.684 -51.949  1.00  0.00     0.000 A 
HETATM   17  C   UNL     1     -42.009  58.425 -51.245  1.00  0.00     0.001 A 
HETATM   18  C   UNL     1     -42.548  59.586 -51.801  1.00  0.00     0.009 A 
ENDBRANCH  12  13
ENDBRANCH   8  12
ENDBRANCH   3   7
ENDBRANCH   1   3
BRANCH   1  19
HETATM   19  C   UNL     1     -44.451  57.380 -55.792  1.00  0.00     0.278 C 
BRANCH  19  20
HETATM   20  C   UNL     1     -43.495  56.343 -55.291  1.00  0.00     0.021 A 
HETATM   21  C   UNL     1     -42.361  55.955 -55.982  1.00  0.00     0.170 A 
HETATM   22  N   UNL     1     -41.415  55.104 -55.553  1.00  0.00    -0.224 NA
HETATM   23  C   UNL     1     -41.532  54.616 -54.308  1.00  0.00     0.072 A 
HETATM   24  C   UNL     1     -42.626  54.962 -53.472  1.00  0.00    -0.004 A 
HETATM   25  C   UNL     1     -40.541  53.777 -53.813  1.00  0.00     0.072 A 
HETATM   26  C   UNL     1     -43.605  55.824 -53.995  1.00  0.00     0.027 A 
HETATM   27  C   UNL     1     -42.702  54.477 -52.153  1.00  0.00     0.053 A 
HETATM   28  C   UNL     1     -41.681  53.673 -51.702  1.00  0.00     0.106 A 
HETATM   29  C   UNL     1     -40.632  53.327 -52.512  1.00  0.00     0.107 A 
HETATM   30  O   UNL     1     -41.570  53.147 -50.454  1.00  0.00    -0.323 OA
HETATM   31  O   UNL     1     -39.725  52.538 -51.878  1.00  0.00    -0.323 OA
HETATM   32  C   UNL     1     -40.304  52.459 -50.558  1.00  0.00     0.352 A 
BRANCH  21  33
HETATM   33  O   UNL     1     -42.068  56.462 -57.199  1.00  0.00    -0.344 OA
HETATM   34  H   UNL     1     -42.938  56.843 -57.440  1.00  0.00     0.219 HD
ENDBRANCH  21  33
ENDBRANCH  19  20
ENDBRANCH   1  19
BRANCH   1  35
HETATM   35  C   UNL     1     -45.005  58.465 -58.079  1.00  0.00     0.238 C 
BRANCH  35  36
HETATM   36  C   UNL     1     -44.402  57.741 -59.285  1.00  0.00     0.054 C 
BRANCH  36  37
HETATM   37  C   UNL     1     -45.068  56.390 -59.517  1.00  0.00     0.165 C 
BRANCH  37  38
HETATM   38  O   UNL     1     -44.343  55.388 -58.828  1.00  0.00    -0.401 OA
HETATM   39  H   UNL     1     -44.470  55.538 -57.871  1.00  0.00     0.209 HD
ENDBRANCH  37  38
ENDBRANCH  36  37
ENDBRANCH  35  36
ENDBRANCH   1  35
TORSDOF 12
ENDMDL
