MODEL 1
REMARK VINA RESULT:      -7.6      0.000      0.000
REMARK  8 active torsions:
REMARK  status: ('A' for Active; 'I' for Inactive)
REMARK    1  A    between atoms: C_4  and  C_5 
REMARK    2  A    between atoms: C_5  and  C_6 
REMARK    3  A    between atoms: C_10  and  S_11 
REMARK    4  A    between atoms: S_11  and  C_12 
REMARK    5  A    between atoms: C_12  and  C_13 
REMARK       I    between atoms: C_13  and  N_14 
REMARK    6  A    between atoms: N_14  and  N_15 
REMARK       I    between atoms: N_15  and  C_16 
REMARK       I    between atoms: C_16  and  N_17 
REMARK    7  A    between atoms: N_17  and  C_18 
REMARK    8  A    between atoms: C_18  and  C_19 
ROOT
HETATM    1  C   UNL     1     -43.756  56.793 -56.384  1.00  0.00     0.245 C 
HETATM    2  N   UNL     1     -44.007  56.172 -55.176  1.00  0.00    -0.265 N 
HETATM    3  O   UNL     1     -43.255  56.201 -57.343  1.00  0.00    -0.271 OA
HETATM    4  H   UNL     1     -44.034  56.732 -54.319  1.00  0.00     0.190 HD
ENDROOT
BRANCH   1   5
HETATM    5  C   UNL     1     -44.071  58.270 -56.439  1.00  0.00     0.187 C 
BRANCH   5   6
HETATM    6  S   UNL     1     -42.567  59.239 -56.196  1.00  0.00    -0.081 SA
BRANCH   6   7
HETATM    7  C   UNL     1     -42.223  59.150 -54.506  1.00  0.00     0.185 A 
HETATM    8  N   UNL     1     -40.985  59.211 -53.940  1.00  0.00    -0.254 N 
HETATM    9  N   UNL     1     -41.045  59.000 -52.611  1.00  0.00    -0.157 NA
HETATM   10  H   UNL     1     -40.079  59.347 -54.381  1.00  0.00     0.191 HD
HETATM   11  C   UNL     1     -42.354  58.760 -52.441  1.00  0.00     0.153 A 
HETATM   12  N   UNL     1     -43.116  58.901 -53.578  1.00  0.00    -0.206 NA
BRANCH  11  13
HETATM   13  C   UNL     1     -42.936  58.363 -51.131  1.00  0.00     0.120 C 
BRANCH  13  14
HETATM   14  C   UNL     1     -42.667  56.882 -50.991  1.00  0.00    -0.051 A 
HETATM   15  C   UNL     1     -43.645  55.937 -51.340  1.00  0.00     0.007 A 
HETATM   16  C   UNL     1     -43.402  54.572 -51.178  1.00  0.00     0.001 A 
HETATM   17  C   UNL     1     -42.180  54.136 -50.668  1.00  0.00     0.000 A 
HETATM   18  C   UNL     1     -41.201  55.063 -50.317  1.00  0.00     0.001 A 
HETATM   19  C   UNL     1     -41.443  56.428 -50.475  1.00  0.00     0.007 A 
ENDBRANCH  13  14
ENDBRANCH  11  13
ENDBRANCH   6   7
ENDBRANCH   5   6
ENDBRANCH   1   5
BRANCH   2  20
HETATM   20  N   UNL     1     -43.412  54.895 -55.002  1.00  0.00    -0.249 N 
HETATM   21  C   UNL     1     -42.087  54.901 -54.609  1.00  0.00     0.335 C 
HETATM   22  N   UNL     1     -41.498  53.678 -54.763  1.00  0.00    -0.338 N 
HETATM   23  O   UNL     1     -41.524  55.908 -54.193  1.00  0.00    -0.246 OA
HETATM   24  H   UNL     1     -42.101  52.870 -54.785  1.00  0.00     0.164 HD
HETATM   25  H   UNL     1     -43.659  54.225 -55.730  1.00  0.00     0.192 HD
BRANCH  22  26
HETATM   26  C   UNL     1     -40.126  53.460 -54.368  1.00  0.00     0.162 C 
BRANCH  26  27
HETATM   27  C   UNL     1     -39.983  52.125 -53.687  1.00  0.00    -0.040 A 
HETATM   28  C   UNL     1     -39.728  52.066 -52.310  1.00  0.00     0.009 A 
HETATM   29  C   UNL     1     -39.569  50.836 -51.669  1.00  0.00     0.001 A 
HETATM   30  C   UNL     1     -39.657  49.654 -52.401  1.00  0.00     0.000 A 
HETATM   31  C   UNL     1     -39.900  49.700 -53.773  1.00  0.00     0.001 A 
HETATM   32  C   UNL     1     -40.059  50.930 -54.416  1.00  0.00     0.009 A 
ENDBRANCH  26  27
ENDBRANCH  22  26
ENDBRANCH   2  20
TORSDOF 8
ENDMDL
MODEL 2
REMARK VINA RESULT:      -7.6      2.447      4.796
REMARK  8 active torsions:
REMARK  status: ('A' for Active; 'I' for Inactive)
REMARK    1  A    between atoms: C_4  and  C_5 
REMARK    2  A    between atoms: C_5  and  C_6 
REMARK    3  A    between atoms: C_10  and  S_11 
REMARK    4  A    between atoms: S_11  and  C_12 
REMARK    5  A    between atoms: C_12  and  C_13 
REMARK       I    between atoms: C_13  and  N_14 
REMARK    6  A    between atoms: N_14  and  N_15 
REMARK       I    between atoms: N_15  and  C_16 
REMARK       I    between atoms: C_16  and  N_17 
REMARK    7  A    between atoms: N_17  and  C_18 
REMARK    8  A    between atoms: C_18  and  C_19 
ROOT
HETATM    1  C   UNL     1     -43.426  61.171 -55.041  1.00  0.00     0.245 C 
HETATM    2  N   UNL     1     -42.237  61.019 -54.355  1.00  0.00    -0.265 N 
HETATM    3  O   UNL     1     -44.526  61.044 -54.498  1.00  0.00    -0.271 OA
HETATM    4  H   UNL     1     -41.395  60.736 -54.865  1.00  0.00     0.190 HD
ENDROOT
BRANCH   1   5
HETATM    5  C   UNL     1     -43.297  61.439 -56.523  1.00  0.00     0.187 C 
BRANCH   5   6
HETATM    6  S   UNL     1     -42.007  60.397 -57.236  1.00  0.00    -0.081 SA
BRANCH   6   7
HETATM    7  C   UNL     1     -42.504  58.770 -56.934  1.00  0.00     0.185 A 
HETATM    8  N   UNL     1     -42.977  57.896 -57.866  1.00  0.00    -0.254 N 
HETATM    9  N   UNL     1     -43.383  56.746 -57.296  1.00  0.00    -0.157 NA
HETATM   10  H   UNL     1     -43.090  58.020 -58.869  1.00  0.00     0.191 HD
HETATM   11  C   UNL     1     -43.177  57.010 -55.996  1.00  0.00     0.153 A 
HETATM   12  N   UNL     1     -42.584  58.225 -55.744  1.00  0.00    -0.206 NA
BRANCH  11  13
HETATM   13  C   UNL     1     -43.568  56.070 -54.911  1.00  0.00     0.120 C 
BRANCH  13  14
HETATM   14  C   UNL     1     -42.415  55.102 -54.769  1.00  0.00    -0.051 A 
HETATM   15  C   UNL     1     -41.087  55.556 -54.801  1.00  0.00     0.007 A 
HETATM   16  C   UNL     1     -40.027  54.653 -54.702  1.00  0.00     0.001 A 
HETATM   17  C   UNL     1     -40.281  53.289 -54.570  1.00  0.00     0.000 A 
HETATM   18  C   UNL     1     -41.594  52.825 -54.538  1.00  0.00     0.001 A 
HETATM   19  C   UNL     1     -42.656  53.725 -54.640  1.00  0.00     0.007 A 
ENDBRANCH  13  14
ENDBRANCH  11  13
ENDBRANCH   6   7
ENDBRANCH   5   6
ENDBRANCH   1   5
BRANCH   2  20
HETATM   20  N   UNL     1     -42.339  60.441 -53.062  1.00  0.00    -0.249 N 
HETATM   21  C   UNL     1     -41.392  59.482 -52.759  1.00  0.00     0.335 C 
HETATM   22  N   UNL     1     -41.728  58.757 -51.651  1.00  0.00    -0.338 N 
HETATM   23  O   UNL     1     -40.384  59.307 -53.437  1.00  0.00    -0.246 OA
HETATM   24  H   UNL     1     -42.368  59.178 -50.996  1.00  0.00     0.164 HD
HETATM   25  H   UNL     1     -43.296  60.228 -52.782  1.00  0.00     0.192 HD
BRANCH  22  26
HETATM   26  C   UNL     1     -40.849  57.731 -51.140  1.00  0.00     0.162 C 
BRANCH  26  27
HETATM   27  C   UNL     1     -41.544  56.396 -51.146  1.00  0.00    -0.040 A 
HETATM   28  C   UNL     1     -42.943  56.334 -51.219  1.00  0.00     0.009 A 
HETATM   29  C   UNL     1     -43.601  55.104 -51.201  1.00  0.00     0.001 A 
HETATM   30  C   UNL     1     -42.868  53.923 -51.104  1.00  0.00     0.000 A 
HETATM   31  C   UNL     1     -41.477  53.972 -51.020  1.00  0.00     0.001 A 
HETATM   32  C   UNL     1     -40.816  55.203 -51.038  1.00  0.00     0.009 A 
ENDBRANCH  26  27
ENDBRANCH  22  26
ENDBRANCH   2  20
TORSDOF 8
ENDMDL
MODEL 3
REMARK VINA RESULT:      -7.5      1.926      3.119
REMARK  8 active torsions:
REMARK  status: ('A' for Active; 'I' for Inactive)
REMARK    1  A    between atoms: C_4  and  C_5 
REMARK    2  A    between atoms: C_5  and  C_6 
REMARK    3  A    between atoms: C_10  and  S_11 
REMARK    4  A    between atoms: S_11  and  C_12 
REMARK    5  A    between atoms: C_12  and  C_13 
REMARK       I    between atoms: C_13  and  N_14 
REMARK    6  A    between atoms: N_14  and  N_15 
REMARK       I    between atoms: N_15  and  C_16 
REMARK       I    between atoms: C_16  and  N_17 
REMARK    7  A    between atoms: N_17  and  C_18 
REMARK    8  A    between atoms: C_18  and  C_19 
ROOT
HETATM    1  C   UNL     1     -41.079  59.101 -53.456  1.00  0.00     0.245 C 
HETATM    2  N   UNL     1     -41.408  57.993 -54.212  1.00  0.00    -0.265 N 
HETATM    3  O   UNL     1     -40.002  59.205 -52.864  1.00  0.00    -0.271 OA
HETATM    4  H   UNL     1     -42.394  57.751 -54.346  1.00  0.00     0.190 HD
ENDROOT
BRANCH   1   5
HETATM    5  C   UNL     1     -42.154  60.158 -53.341  1.00  0.00     0.187 C 
BRANCH   5   6
HETATM    6  S   UNL     1     -42.848  60.165 -51.675  1.00  0.00    -0.081 SA
BRANCH   6   7
HETATM    7  C   UNL     1     -43.519  58.590 -51.444  1.00  0.00     0.185 A 
HETATM    8  N   UNL     1     -44.600  58.290 -50.671  1.00  0.00    -0.254 N 
HETATM    9  N   UNL     1     -44.803  56.960 -50.610  1.00  0.00    -0.157 NA
HETATM   10  H   UNL     1     -45.204  58.910 -50.137  1.00  0.00     0.191 HD
HETATM   11  C   UNL     1     -43.768  56.502 -51.331  1.00  0.00     0.153 A 
HETATM   12  N   UNL     1     -42.992  57.482 -51.906  1.00  0.00    -0.206 NA
BRANCH  11  13
HETATM   13  C   UNL     1     -43.476  55.052 -51.489  1.00  0.00     0.120 C 
BRANCH  13  14
HETATM   14  C   UNL     1     -42.210  54.799 -50.701  1.00  0.00    -0.051 A 
HETATM   15  C   UNL     1     -42.150  53.767 -49.751  1.00  0.00     0.007 A 
HETATM   16  C   UNL     1     -40.989  53.558 -49.004  1.00  0.00     0.001 A 
HETATM   17  C   UNL     1     -39.877  54.377 -49.198  1.00  0.00     0.000 A 
HETATM   18  C   UNL     1     -39.925  55.405 -50.136  1.00  0.00     0.001 A 
HETATM   19  C   UNL     1     -41.084  55.617 -50.883  1.00  0.00     0.007 A 
ENDBRANCH  13  14
ENDBRANCH  11  13
ENDBRANCH   6   7
ENDBRANCH   5   6
ENDBRANCH   1   5
BRANCH   2  20
HETATM   20  N   UNL     1     -40.563  56.863 -54.052  1.00  0.00    -0.249 N 
HETATM   21  C   UNL     1     -40.963  55.719 -54.714  1.00  0.00     0.335 C 
HETATM   22  N   UNL     1     -40.297  54.610 -54.275  1.00  0.00    -0.338 N 
HETATM   23  O   UNL     1     -41.834  55.722 -55.577  1.00  0.00    -0.246 OA
HETATM   24  H   UNL     1     -39.403  54.749 -53.830  1.00  0.00     0.164 HD
HETATM   25  H   UNL     1     -40.228  56.733 -53.098  1.00  0.00     0.192 HD
BRANCH  22  26
HETATM   26  C   UNL     1     -40.537  53.315 -54.869  1.00  0.00     0.162 C 
BRANCH  26  27
HETATM   27  C   UNL     1     -40.173  52.220 -53.903  1.00  0.00    -0.040 A 
HETATM   28  C   UNL     1     -40.082  50.894 -54.350  1.00  0.00     0.009 A 
HETATM   29  C   UNL     1     -39.769  49.865 -53.460  1.00  0.00     0.001 A 
HETATM   30  C   UNL     1     -39.551  50.151 -52.114  1.00  0.00     0.000 A 
HETATM   31  C   UNL     1     -39.648  51.464 -51.656  1.00  0.00     0.001 A 
HETATM   32  C   UNL     1     -39.962  52.496 -52.545  1.00  0.00     0.009 A 
ENDBRANCH  26  27
ENDBRANCH  22  26
ENDBRANCH   2  20
TORSDOF 8
ENDMDL
MODEL 4
REMARK VINA RESULT:      -7.5      2.412      3.532
REMARK  8 active torsions:
REMARK  status: ('A' for Active; 'I' for Inactive)
REMARK    1  A    between atoms: C_4  and  C_5 
REMARK    2  A    between atoms: C_5  and  C_6 
REMARK    3  A    between atoms: C_10  and  S_11 
REMARK    4  A    between atoms: S_11  and  C_12 
REMARK    5  A    between atoms: C_12  and  C_13 
REMARK       I    between atoms: C_13  and  N_14 
REMARK    6  A    between atoms: N_14  and  N_15 
REMARK       I    between atoms: N_15  and  C_16 
REMARK       I    between atoms: C_16  and  N_17 
REMARK    7  A    between atoms: N_17  and  C_18 
REMARK    8  A    between atoms: C_18  and  C_19 
ROOT
HETATM    1  C   UNL     1     -43.495  57.109 -58.106  1.00  0.00     0.245 C 
HETATM    2  N   UNL     1     -43.609  55.980 -57.319  1.00  0.00    -0.265 N 
HETATM    3  O   UNL     1     -42.404  57.586 -58.428  1.00  0.00    -0.271 OA
HETATM    4  H   UNL     1     -44.453  55.843 -56.755  1.00  0.00     0.190 HD
ENDROOT
BRANCH   1   5
HETATM    5  C   UNL     1     -44.797  57.769 -58.497  1.00  0.00     0.187 C 
BRANCH   5   6
HETATM    6  S   UNL     1     -44.952  59.374 -57.685  1.00  0.00    -0.081 SA
BRANCH   6   7
HETATM    7  C   UNL     1     -45.064  59.031 -55.996  1.00  0.00     0.185 A 
HETATM    8  N   UNL     1     -45.485  59.899 -55.033  1.00  0.00    -0.254 N 
HETATM    9  N   UNL     1     -45.350  59.367 -53.804  1.00  0.00    -0.157 NA
HETATM   10  H   UNL     1     -45.825  60.852 -55.127  1.00  0.00     0.191 HD
HETATM   11  C   UNL     1     -44.786  58.183 -54.089  1.00  0.00     0.153 A 
HETATM   12  N   UNL     1     -44.650  57.922 -55.433  1.00  0.00    -0.206 NA
BRANCH  11  13
HETATM   13  C   UNL     1     -44.335  57.231 -53.039  1.00  0.00     0.120 C 
BRANCH  13  14
HETATM   14  C   UNL     1     -42.970  57.715 -52.603  1.00  0.00    -0.051 A 
HETATM   15  C   UNL     1     -42.789  58.326 -51.352  1.00  0.00     0.007 A 
HETATM   16  C   UNL     1     -41.533  58.799 -50.969  1.00  0.00     0.001 A 
HETATM   17  C   UNL     1     -40.444  58.667 -51.830  1.00  0.00     0.000 A 
HETATM   18  C   UNL     1     -40.610  58.064 -53.074  1.00  0.00     0.001 A 
HETATM   19  C   UNL     1     -41.866  57.592 -53.461  1.00  0.00     0.007 A 
ENDBRANCH  13  14
ENDBRANCH  11  13
ENDBRANCH   6   7
ENDBRANCH   5   6
ENDBRANCH   1   5
BRANCH   2  20
HETATM   20  N   UNL     1     -42.419  55.554 -56.673  1.00  0.00    -0.249 N 
HETATM   21  C   UNL     1     -42.569  54.529 -55.758  1.00  0.00     0.335 C 
HETATM   22  N   UNL     1     -41.470  54.386 -54.960  1.00  0.00    -0.338 N 
HETATM   23  O   UNL     1     -43.591  53.855 -55.679  1.00  0.00    -0.246 OA
HETATM   24  H   UNL     1     -40.592  54.739 -55.309  1.00  0.00     0.164 HD
HETATM   25  H   UNL     1     -41.810  56.321 -56.388  1.00  0.00     0.192 HD
BRANCH  22  26
HETATM   26  C   UNL     1     -41.406  53.341 -53.965  1.00  0.00     0.162 C 
BRANCH  26  27
HETATM   27  C   UNL     1     -41.652  53.908 -52.593  1.00  0.00    -0.040 A 
HETATM   28  C   UNL     1     -42.948  53.908 -52.057  1.00  0.00     0.009 A 
HETATM   29  C   UNL     1     -43.195  54.453 -50.796  1.00  0.00     0.001 A 
HETATM   30  C   UNL     1     -42.150  55.010 -50.062  1.00  0.00     0.000 A 
HETATM   31  C   UNL     1     -40.859  55.026 -50.588  1.00  0.00     0.001 A 
HETATM   32  C   UNL     1     -40.610  54.480 -51.850  1.00  0.00     0.009 A 
ENDBRANCH  26  27
ENDBRANCH  22  26
ENDBRANCH   2  20
TORSDOF 8
ENDMDL
MODEL 5
REMARK VINA RESULT:      -7.4      4.940      9.308
REMARK  8 active torsions:
REMARK  status: ('A' for Active; 'I' for Inactive)
REMARK    1  A    between atoms: C_4  and  C_5 
REMARK    2  A    between atoms: C_5  and  C_6 
REMARK    3  A    between atoms: C_10  and  S_11 
REMARK    4  A    between atoms: S_11  and  C_12 
REMARK    5  A    between atoms: C_12  and  C_13 
REMARK       I    between atoms: C_13  and  N_14 
REMARK    6  A    between atoms: N_14  and  N_15 
REMARK       I    between atoms: N_15  and  C_16 
REMARK       I    between atoms: C_16  and  N_17 
REMARK    7  A    between atoms: N_17  and  C_18 
REMARK    8  A    between atoms: C_18  and  C_19 
ROOT
HETATM    1  C   UNL     1     -44.602  58.224 -51.055  1.00  0.00     0.245 C 
HETATM    2  N   UNL     1     -44.630  59.517 -50.571  1.00  0.00    -0.265 N 
HETATM    3  O   UNL     1     -45.393  57.356 -50.676  1.00  0.00    -0.271 OA
HETATM    4  H   UNL     1     -43.771  60.076 -50.581  1.00  0.00     0.190 HD
ENDROOT
BRANCH   1   5
HETATM    5  C   UNL     1     -43.494  57.915 -52.035  1.00  0.00     0.187 C 
BRANCH   5   6
HETATM    6  S   UNL     1     -42.394  56.653 -51.357  1.00  0.00    -0.081 SA
BRANCH   6   7
HETATM    7  C   UNL     1     -42.153  55.513 -52.632  1.00  0.00     0.185 A 
HETATM    8  N   UNL     1     -43.125  54.765 -53.226  1.00  0.00    -0.254 N 
HETATM    9  N   UNL     1     -42.599  53.893 -54.107  1.00  0.00    -0.157 NA
HETATM   10  H   UNL     1     -44.128  54.761 -53.061  1.00  0.00     0.191 HD
HETATM   11  C   UNL     1     -41.286  54.127 -53.959  1.00  0.00     0.153 A 
HETATM   12  N   UNL     1     -40.981  55.159 -53.101  1.00  0.00    -0.206 NA
BRANCH  11  13
HETATM   13  C   UNL     1     -40.242  53.331 -54.658  1.00  0.00     0.120 C 
BRANCH  13  14
HETATM   14  C   UNL     1     -40.028  52.097 -53.811  1.00  0.00    -0.051 A 
HETATM   15  C   UNL     1     -39.802  52.203 -52.429  1.00  0.00     0.007 A 
HETATM   16  C   UNL     1     -39.575  51.062 -51.658  1.00  0.00     0.001 A 
HETATM   17  C   UNL     1     -39.570  49.803 -52.258  1.00  0.00     0.000 A 
HETATM   18  C   UNL     1     -39.792  49.684 -53.628  1.00  0.00     0.001 A 
HETATM   19  C   UNL     1     -40.018  50.824 -54.402  1.00  0.00     0.007 A 
ENDBRANCH  13  14
ENDBRANCH  11  13
ENDBRANCH   6   7
ENDBRANCH   5   6
ENDBRANCH   1   5
BRANCH   2  20
HETATM   20  N   UNL     1     -45.432  59.728 -49.418  1.00  0.00    -0.249 N 
HETATM   21  C   UNL     1     -45.457  61.023 -48.936  1.00  0.00     0.335 C 
HETATM   22  N   UNL     1     -45.977  61.094 -47.676  1.00  0.00    -0.338 N 
HETATM   23  O   UNL     1     -45.034  61.978 -49.579  1.00  0.00    -0.246 OA
HETATM   24  H   UNL     1     -46.584  60.344 -47.380  1.00  0.00     0.164 HD
HETATM   25  H   UNL     1     -45.345  58.993 -48.718  1.00  0.00     0.192 HD
BRANCH  22  26
HETATM   26  C   UNL     1     -46.133  62.364 -47.006  1.00  0.00     0.162 C 
BRANCH  26  27
HETATM   27  C   UNL     1     -45.357  62.375 -45.717  1.00  0.00    -0.040 A 
HETATM   28  C   UNL     1     -45.300  63.544 -44.944  1.00  0.00     0.009 A 
HETATM   29  C   UNL     1     -44.564  63.575 -43.758  1.00  0.00     0.001 A 
HETATM   30  C   UNL     1     -43.872  62.441 -43.338  1.00  0.00     0.000 A 
HETATM   31  C   UNL     1     -43.913  61.276 -44.103  1.00  0.00     0.001 A 
HETATM   32  C   UNL     1     -44.649  61.243 -45.290  1.00  0.00     0.009 A 
ENDBRANCH  26  27
ENDBRANCH  22  26
ENDBRANCH   2  20
TORSDOF 8
ENDMDL
MODEL 6
REMARK VINA RESULT:      -7.4      2.641      6.486
REMARK  8 active torsions:
REMARK  status: ('A' for Active; 'I' for Inactive)
REMARK    1  A    between atoms: C_4  and  C_5 
REMARK    2  A    between atoms: C_5  and  C_6 
REMARK    3  A    between atoms: C_10  and  S_11 
REMARK    4  A    between atoms: S_11  and  C_12 
REMARK    5  A    between atoms: C_12  and  C_13 
REMARK       I    between atoms: C_13  and  N_14 
REMARK    6  A    between atoms: N_14  and  N_15 
REMARK       I    between atoms: N_15  and  C_16 
REMARK       I    between atoms: C_16  and  N_17 
REMARK    7  A    between atoms: N_17  and  C_18 
REMARK    8  A    between atoms: C_18  and  C_19 
ROOT
HETATM    1  C   UNL     1     -43.510  58.071 -53.345  1.00  0.00     0.245 C 
HETATM    2  N   UNL     1     -42.466  58.250 -54.231  1.00  0.00    -0.265 N 
HETATM    3  O   UNL     1     -44.685  57.985 -53.712  1.00  0.00    -0.271 OA
HETATM    4  H   UNL     1     -41.606  58.703 -53.909  1.00  0.00     0.190 HD
ENDROOT
BRANCH   1   5
HETATM    5  C   UNL     1     -43.132  58.053 -51.882  1.00  0.00     0.187 C 
BRANCH   5   6
HETATM    6  S   UNL     1     -43.329  56.390 -51.206  1.00  0.00    -0.081 SA
BRANCH   6   7
HETATM    7  C   UNL     1     -42.779  55.318 -52.443  1.00  0.00     0.185 A 
HETATM    8  N   UNL     1     -43.521  54.342 -53.039  1.00  0.00    -0.254 N 
HETATM    9  N   UNL     1     -42.773  53.606 -53.883  1.00  0.00    -0.157 NA
HETATM   10  H   UNL     1     -44.498  54.097 -52.898  1.00  0.00     0.191 HD
HETATM   11  C   UNL     1     -41.561  54.158 -53.710  1.00  0.00     0.153 A 
HETATM   12  N   UNL     1     -41.542  55.250 -52.874  1.00  0.00    -0.206 NA
BRANCH  11  13
HETATM   13  C   UNL     1     -40.334  53.627 -54.362  1.00  0.00     0.120 C 
BRANCH  13  14
HETATM   14  C   UNL     1     -40.063  52.292 -53.705  1.00  0.00    -0.051 A 
HETATM   15  C   UNL     1     -40.139  51.099 -54.441  1.00  0.00     0.007 A 
HETATM   16  C   UNL     1     -39.919  49.868 -53.821  1.00  0.00     0.001 A 
HETATM   17  C   UNL     1     -39.621  49.814 -52.460  1.00  0.00     0.000 A 
HETATM   18  C   UNL     1     -39.544  50.990 -51.718  1.00  0.00     0.001 A 
HETATM   19  C   UNL     1     -39.766  52.222 -52.334  1.00  0.00     0.007 A 
ENDBRANCH  13  14
ENDBRANCH  11  13
ENDBRANCH   6   7
ENDBRANCH   5   6
ENDBRANCH   1   5
BRANCH   2  20
HETATM   20  N   UNL     1     -42.834  58.605 -55.556  1.00  0.00    -0.249 N 
HETATM   21  C   UNL     1     -42.503  57.688 -56.534  1.00  0.00     0.335 C 
HETATM   22  N   UNL     1     -42.596  58.218 -57.790  1.00  0.00    -0.338 N 
HETATM   23  O   UNL     1     -42.149  56.542 -56.277  1.00  0.00    -0.246 OA
HETATM   24  H   UNL     1     -43.196  59.019 -57.914  1.00  0.00     0.164 HD
HETATM   25  H   UNL     1     -42.657  59.583 -55.782  1.00  0.00     0.192 HD
BRANCH  22  26
HETATM   26  C   UNL     1     -42.335  57.410 -58.959  1.00  0.00     0.162 C 
BRANCH  26  27
HETATM   27  C   UNL     1     -43.603  56.758 -59.440  1.00  0.00    -0.040 A 
HETATM   28  C   UNL     1     -43.621  55.384 -59.720  1.00  0.00     0.009 A 
HETATM   29  C   UNL     1     -44.784  54.771 -60.190  1.00  0.00     0.001 A 
HETATM   30  C   UNL     1     -45.937  55.527 -60.390  1.00  0.00     0.000 A 
HETATM   31  C   UNL     1     -45.929  56.895 -60.124  1.00  0.00     0.001 A 
HETATM   32  C   UNL     1     -44.766  57.511 -59.654  1.00  0.00     0.009 A 
ENDBRANCH  26  27
ENDBRANCH  22  26
ENDBRANCH   2  20
TORSDOF 8
ENDMDL
MODEL 7
REMARK VINA RESULT:      -7.4      2.548      5.216
REMARK  8 active torsions:
REMARK  status: ('A' for Active; 'I' for Inactive)
REMARK    1  A    between atoms: C_4  and  C_5 
REMARK    2  A    between atoms: C_5  and  C_6 
REMARK    3  A    between atoms: C_10  and  S_11 
REMARK    4  A    between atoms: S_11  and  C_12 
REMARK    5  A    between atoms: C_12  and  C_13 
REMARK       I    between atoms: C_13  and  N_14 
REMARK    6  A    between atoms: N_14  and  N_15 
REMARK       I    between atoms: N_15  and  C_16 
REMARK       I    between atoms: C_16  and  N_17 
REMARK    7  A    between atoms: N_17  and  C_18 
REMARK    8  A    between atoms: C_18  and  C_19 
ROOT
HETATM    1  C   UNL     1     -44.373  58.251 -51.023  1.00  0.00     0.245 C 
HETATM    2  N   UNL     1     -43.095  57.784 -50.784  1.00  0.00    -0.265 N 
HETATM    3  O   UNL     1     -45.379  57.566 -50.819  1.00  0.00    -0.271 OA
HETATM    4  H   UNL     1     -42.309  58.179 -51.310  1.00  0.00     0.190 HD
ENDROOT
BRANCH   1   5
HETATM    5  C   UNL     1     -44.463  59.637 -51.617  1.00  0.00     0.187 C 
BRANCH   5   6
HETATM    6  S   UNL     1     -45.277  59.575 -53.227  1.00  0.00    -0.081 SA
BRANCH   6   7
HETATM    7  C   UNL     1     -44.586  58.221 -54.046  1.00  0.00     0.185 A 
HETATM    8  N   UNL     1     -44.934  56.916 -53.863  1.00  0.00    -0.254 N 
HETATM    9  N   UNL     1     -44.134  56.093 -54.566  1.00  0.00    -0.157 NA
HETATM   10  H   UNL     1     -45.654  56.518 -53.264  1.00  0.00     0.191 HD
HETATM   11  C   UNL     1     -43.277  56.967 -55.118  1.00  0.00     0.153 A 
HETATM   12  N   UNL     1     -43.562  58.288 -54.863  1.00  0.00    -0.206 NA
BRANCH  11  13
HETATM   13  C   UNL     1     -42.106  56.543 -55.931  1.00  0.00     0.120 C 
BRANCH  13  14
HETATM   14  C   UNL     1     -42.529  56.696 -57.374  1.00  0.00    -0.051 A 
HETATM   15  C   UNL     1     -43.193  55.655 -58.043  1.00  0.00     0.007 A 
HETATM   16  C   UNL     1     -43.553  55.790 -59.385  1.00  0.00     0.001 A 
HETATM   17  C   UNL     1     -43.255  56.966 -60.073  1.00  0.00     0.000 A 
HETATM   18  C   UNL     1     -42.596  58.005 -59.422  1.00  0.00     0.001 A 
HETATM   19  C   UNL     1     -42.232  57.872 -58.081  1.00  0.00     0.007 A 
ENDBRANCH  13  14
ENDBRANCH  11  13
ENDBRANCH   6   7
ENDBRANCH   5   6
ENDBRANCH   1   5
BRANCH   2  20
HETATM   20  N   UNL     1     -42.980  56.388 -50.553  1.00  0.00    -0.249 N 
HETATM   21  C   UNL     1     -41.695  55.881 -50.579  1.00  0.00     0.335 C 
HETATM   22  N   UNL     1     -41.680  54.518 -50.664  1.00  0.00    -0.338 N 
HETATM   23  O   UNL     1     -40.699  56.597 -50.549  1.00  0.00    -0.246 OA
HETATM   24  H   UNL     1     -42.501  54.023 -50.351  1.00  0.00     0.164 HD
HETATM   25  H   UNL     1     -43.689  55.833 -51.033  1.00  0.00     0.192 HD
BRANCH  22  26
HETATM   26  C   UNL     1     -40.434  53.787 -50.660  1.00  0.00     0.162 C 
BRANCH  26  27
HETATM   27  C   UNL     1     -40.305  52.965 -51.914  1.00  0.00    -0.040 A 
HETATM   28  C   UNL     1     -40.875  53.421 -53.112  1.00  0.00     0.009 A 
HETATM   29  C   UNL     1     -40.784  52.658 -54.277  1.00  0.00     0.001 A 
HETATM   30  C   UNL     1     -40.127  51.429 -54.255  1.00  0.00     0.000 A 
HETATM   31  C   UNL     1     -39.565  50.961 -53.068  1.00  0.00     0.001 A 
HETATM   32  C   UNL     1     -39.656  51.723 -51.900  1.00  0.00     0.009 A 
ENDBRANCH  26  27
ENDBRANCH  22  26
ENDBRANCH   2  20
TORSDOF 8
ENDMDL
MODEL 8
REMARK VINA RESULT:      -7.3      2.742      6.061
REMARK  8 active torsions:
REMARK  status: ('A' for Active; 'I' for Inactive)
REMARK    1  A    between atoms: C_4  and  C_5 
REMARK    2  A    between atoms: C_5  and  C_6 
REMARK    3  A    between atoms: C_10  and  S_11 
REMARK    4  A    between atoms: S_11  and  C_12 
REMARK    5  A    between atoms: C_12  and  C_13 
REMARK       I    between atoms: C_13  and  N_14 
REMARK    6  A    between atoms: N_14  and  N_15 
REMARK       I    between atoms: N_15  and  C_16 
REMARK       I    between atoms: C_16  and  N_17 
REMARK    7  A    between atoms: N_17  and  C_18 
REMARK    8  A    between atoms: C_18  and  C_19 
ROOT
HETATM    1  C   UNL     1     -41.686  59.576 -53.566  1.00  0.00     0.245 C 
HETATM    2  N   UNL     1     -42.580  59.210 -54.552  1.00  0.00    -0.265 N 
HETATM    3  O   UNL     1     -40.489  59.278 -53.610  1.00  0.00    -0.271 OA
HETATM    4  H   UNL     1     -43.572  59.110 -54.319  1.00  0.00     0.190 HD
ENDROOT
BRANCH   1   5
HETATM    5  C   UNL     1     -42.278  60.313 -52.386  1.00  0.00     0.187 C 
BRANCH   5   6
HETATM    6  S   UNL     1     -43.780  59.487 -51.824  1.00  0.00    -0.081 SA
BRANCH   6   7
HETATM    7  C   UNL     1     -43.311  57.865 -51.460  1.00  0.00     0.185 A 
HETATM    8  N   UNL     1     -42.257  57.496 -50.678  1.00  0.00    -0.254 N 
HETATM    9  N   UNL     1     -42.089  56.161 -50.682  1.00  0.00    -0.157 NA
HETATM   10  H   UNL     1     -41.603  58.078 -50.160  1.00  0.00     0.191 HD
HETATM   11  C   UNL     1     -43.049  55.777 -51.538  1.00  0.00     0.153 A 
HETATM   12  N   UNL     1     -43.854  56.796 -51.991  1.00  0.00    -0.206 NA
BRANCH  11  13
HETATM   13  C   UNL     1     -43.223  54.365 -51.973  1.00  0.00     0.120 C 
BRANCH  13  14
HETATM   14  C   UNL     1     -42.196  54.139 -53.060  1.00  0.00    -0.051 A 
HETATM   15  C   UNL     1     -42.338  54.740 -54.321  1.00  0.00     0.007 A 
HETATM   16  C   UNL     1     -41.404  54.502 -55.329  1.00  0.00     0.001 A 
HETATM   17  C   UNL     1     -40.317  53.661 -55.091  1.00  0.00     0.000 A 
HETATM   18  C   UNL     1     -40.165  53.057 -53.846  1.00  0.00     0.001 A 
HETATM   19  C   UNL     1     -41.099  53.292 -52.835  1.00  0.00     0.007 A 
ENDBRANCH  13  14
ENDBRANCH  11  13
ENDBRANCH   6   7
ENDBRANCH   5   6
ENDBRANCH   1   5
BRANCH   2  20
HETATM   20  N   UNL     1     -42.114  58.241 -55.480  1.00  0.00    -0.249 N 
HETATM   21  C   UNL     1     -42.360  58.520 -56.810  1.00  0.00     0.335 C 
HETATM   22  N   UNL     1     -42.174  57.427 -57.609  1.00  0.00    -0.338 N 
HETATM   23  O   UNL     1     -42.723  59.624 -57.200  1.00  0.00    -0.246 OA
HETATM   24  H   UNL     1     -41.574  56.694 -57.263  1.00  0.00     0.164 HD
HETATM   25  H   UNL     1     -42.281  57.279 -55.187  1.00  0.00     0.192 HD
BRANCH  22  26
HETATM   26  C   UNL     1     -42.338  57.517 -59.041  1.00  0.00     0.162 C 
BRANCH  26  27
HETATM   27  C   UNL     1     -43.603  56.823 -59.468  1.00  0.00    -0.040 A 
HETATM   28  C   UNL     1     -43.564  55.481 -59.872  1.00  0.00     0.009 A 
HETATM   29  C   UNL     1     -44.725  54.832 -60.293  1.00  0.00     0.001 A 
HETATM   30  C   UNL     1     -45.936  55.520 -60.322  1.00  0.00     0.000 A 
HETATM   31  C   UNL     1     -45.986  56.858 -59.934  1.00  0.00     0.001 A 
HETATM   32  C   UNL     1     -44.825  57.510 -59.511  1.00  0.00     0.009 A 
ENDBRANCH  26  27
ENDBRANCH  22  26
ENDBRANCH   2  20
TORSDOF 8
ENDMDL
MODEL 9
REMARK VINA RESULT:      -7.2      2.861      6.509
REMARK  8 active torsions:
REMARK  status: ('A' for Active; 'I' for Inactive)
REMARK    1  A    between atoms: C_4  and  C_5 
REMARK    2  A    between atoms: C_5  and  C_6 
REMARK    3  A    between atoms: C_10  and  S_11 
REMARK    4  A    between atoms: S_11  and  C_12 
REMARK    5  A    between atoms: C_12  and  C_13 
REMARK       I    between atoms: C_13  and  N_14 
REMARK    6  A    between atoms: N_14  and  N_15 
REMARK       I    between atoms: N_15  and  C_16 
REMARK       I    between atoms: C_16  and  N_17 
REMARK    7  A    between atoms: N_17  and  C_18 
REMARK    8  A    between atoms: C_18  and  C_19 
ROOT
HETATM    1  C   UNL     1     -44.732  57.993 -52.597  1.00  0.00     0.245 C 
HETATM    2  N   UNL     1     -44.772  56.874 -53.405  1.00  0.00    -0.265 N 
HETATM    3  O   UNL     1     -45.373  59.017 -52.848  1.00  0.00    -0.271 OA
HETATM    4  H   UNL     1     -43.975  56.231 -53.413  1.00  0.00     0.190 HD
ENDROOT
BRANCH   1   5
HETATM    5  C   UNL     1     -43.797  57.912 -51.412  1.00  0.00     0.187 C 
BRANCH   5   6
HETATM    6  S   UNL     1     -42.108  57.604 -51.969  1.00  0.00    -0.081 SA
BRANCH   6   7
HETATM    7  C   UNL     1     -41.807  55.935 -51.641  1.00  0.00     0.185 A 
HETATM    8  N   UNL     1     -42.726  55.032 -51.198  1.00  0.00    -0.254 N 
HETATM    9  N   UNL     1     -42.153  53.843 -50.932  1.00  0.00    -0.157 NA
HETATM   10  H   UNL     1     -43.719  55.157 -51.016  1.00  0.00     0.191 HD
HETATM   11  C   UNL     1     -40.863  54.109 -51.186  1.00  0.00     0.153 A 
HETATM   12  N   UNL     1     -40.624  55.371 -51.679  1.00  0.00    -0.206 NA
BRANCH  11  13
HETATM   13  C   UNL     1     -39.774  53.124 -50.946  1.00  0.00     0.120 C 
BRANCH  13  14
HETATM   14  C   UNL     1     -39.862  52.128 -52.080  1.00  0.00    -0.051 A 
HETATM   15  C   UNL     1     -40.227  52.540 -53.372  1.00  0.00     0.007 A 
HETATM   16  C   UNL     1     -40.336  51.610 -54.407  1.00  0.00     0.001 A 
HETATM   17  C   UNL     1     -40.083  50.261 -54.165  1.00  0.00     0.000 A 
HETATM   18  C   UNL     1     -39.721  49.839 -52.888  1.00  0.00     0.001 A 
HETATM   19  C   UNL     1     -39.612  50.766 -51.850  1.00  0.00     0.007 A 
ENDBRANCH  13  14
ENDBRANCH  11  13
ENDBRANCH   6   7
ENDBRANCH   5   6
ENDBRANCH   1   5
BRANCH   2  20
HETATM   20  N   UNL     1     -45.368  57.055 -54.681  1.00  0.00    -0.249 N 
HETATM   21  C   UNL     1     -44.491  57.276 -55.725  1.00  0.00     0.335 C 
HETATM   22  N   UNL     1     -45.125  57.746 -56.840  1.00  0.00    -0.338 N 
HETATM   23  O   UNL     1     -43.283  57.086 -55.628  1.00  0.00    -0.246 OA
HETATM   24  H   UNL     1     -46.110  57.552 -56.932  1.00  0.00     0.164 HD
HETATM   25  H   UNL     1     -46.201  57.642 -54.665  1.00  0.00     0.192 HD
BRANCH  22  26
HETATM   26  C   UNL     1     -44.393  58.001 -58.059  1.00  0.00     0.162 C 
BRANCH  26  27
HETATM   27  C   UNL     1     -44.654  56.913 -59.065  1.00  0.00    -0.040 A 
HETATM   28  C   UNL     1     -45.840  56.921 -59.813  1.00  0.00     0.009 A 
HETATM   29  C   UNL     1     -46.106  55.904 -60.732  1.00  0.00     0.001 A 
HETATM   30  C   UNL     1     -45.193  54.867 -60.907  1.00  0.00     0.000 A 
HETATM   31  C   UNL     1     -44.015  54.842 -60.161  1.00  0.00     0.001 A 
HETATM   32  C   UNL     1     -43.746  55.859 -59.241  1.00  0.00     0.009 A 
ENDBRANCH  26  27
ENDBRANCH  22  26
ENDBRANCH   2  20
TORSDOF 8
ENDMDL
MODEL 10
REMARK VINA RESULT:      -7.0     14.850     17.768
REMARK  8 active torsions:
REMARK  status: ('A' for Active; 'I' for Inactive)
REMARK    1  A    between atoms: C_4  and  C_5 
REMARK    2  A    between atoms: C_5  and  C_6 
REMARK    3  A    between atoms: C_10  and  S_11 
REMARK    4  A    between atoms: S_11  and  C_12 
REMARK    5  A    between atoms: C_12  and  C_13 
REMARK       I    between atoms: C_13  and  N_14 
REMARK    6  A    between atoms: N_14  and  N_15 
REMARK       I    between atoms: N_15  and  C_16 
REMARK       I    between atoms: C_16  and  N_17 
REMARK    7  A    between atoms: N_17  and  C_18 
REMARK    8  A    between atoms: C_18  and  C_19 
ROOT
HETATM    1  C   UNL     1     -37.740  41.779 -56.337  1.00  0.00     0.245 C 
HETATM    2  N   UNL     1     -36.984  42.256 -55.284  1.00  0.00    -0.265 N 
HETATM    3  O   UNL     1     -38.699  41.020 -56.176  1.00  0.00    -0.271 OA
HETATM    4  H   UNL     1     -36.010  42.529 -55.447  1.00  0.00     0.190 HD
ENDROOT
BRANCH   1   5
HETATM    5  C   UNL     1     -37.276  42.191 -57.716  1.00  0.00     0.187 C 
BRANCH   5   6
HETATM    6  S   UNL     1     -36.436  40.816 -58.530  1.00  0.00    -0.081 SA
BRANCH   6   7
HETATM    7  C   UNL     1     -35.414  40.118 -57.325  1.00  0.00     0.185 A 
HETATM    8  N   UNL     1     -35.570  38.885 -56.764  1.00  0.00    -0.254 N 
HETATM    9  N   UNL     1     -34.677  38.681 -55.779  1.00  0.00    -0.157 NA
HETATM   10  H   UNL     1     -36.264  38.169 -56.963  1.00  0.00     0.191 HD
HETATM   11  C   UNL     1     -34.035  39.859 -55.755  1.00  0.00     0.153 A 
HETATM   12  N   UNL     1     -34.427  40.745 -56.732  1.00  0.00    -0.206 NA
BRANCH  11  13
HETATM   13  C   UNL     1     -32.991  40.188 -54.747  1.00  0.00     0.120 C 
BRANCH  13  14
HETATM   14  C   UNL     1     -31.746  39.453 -55.189  1.00  0.00    -0.051 A 
HETATM   15  C   UNL     1     -31.029  39.868 -56.322  1.00  0.00     0.007 A 
HETATM   16  C   UNL     1     -29.898  39.166 -56.742  1.00  0.00     0.001 A 
HETATM   17  C   UNL     1     -29.472  38.041 -56.036  1.00  0.00     0.000 A 
HETATM   18  C   UNL     1     -30.175  37.618 -54.911  1.00  0.00     0.001 A 
HETATM   19  C   UNL     1     -31.307  38.317 -54.490  1.00  0.00     0.007 A 
ENDBRANCH  13  14
ENDBRANCH  11  13
ENDBRANCH   6   7
ENDBRANCH   5   6
ENDBRANCH   1   5
BRANCH   2  20
HETATM   20  N   UNL     1     -37.193  41.616 -54.034  1.00  0.00    -0.249 N 
HETATM   21  C   UNL     1     -36.268  41.909 -53.050  1.00  0.00     0.335 C 
HETATM   22  N   UNL     1     -36.341  41.040 -51.999  1.00  0.00    -0.338 N 
HETATM   23  O   UNL     1     -35.470  42.836 -53.145  1.00  0.00    -0.246 OA
HETATM   24  H   UNL     1     -37.210  40.548 -51.861  1.00  0.00     0.164 HD
HETATM   25  H   UNL     1     -37.464  40.637 -54.115  1.00  0.00     0.192 HD
BRANCH  22  26
HETATM   26  C   UNL     1     -35.488  41.198 -50.844  1.00  0.00     0.162 C 
BRANCH  26  27
HETATM   27  C   UNL     1     -34.298  40.281 -50.942  1.00  0.00    -0.040 A 
HETATM   28  C   UNL     1     -33.002  40.799 -50.813  1.00  0.00     0.009 A 
HETATM   29  C   UNL     1     -31.889  39.965 -50.926  1.00  0.00     0.001 A 
HETATM   30  C   UNL     1     -32.061  38.605 -51.176  1.00  0.00     0.000 A 
HETATM   31  C   UNL     1     -33.345  38.079 -51.317  1.00  0.00     0.001 A 
HETATM   32  C   UNL     1     -34.460  38.913 -51.204  1.00  0.00     0.009 A 
ENDBRANCH  26  27
ENDBRANCH  22  26
ENDBRANCH   2  20
TORSDOF 8
ENDMDL
