MODEL 1
REMARK VINA RESULT:      -7.4      0.000      0.000
REMARK  7 active torsions:
REMARK  status: ('A' for Active; 'I' for Inactive)
REMARK    1  A    between atoms: C_2  and  C_3 
REMARK    2  A    between atoms: C_4  and  N_5 
REMARK       I    between atoms: N_5  and  C_6 
REMARK    3  A    between atoms: C_6  and  C_7 
REMARK    4  A    between atoms: C_7  and  N_8 
REMARK    5  A    between atoms: N_12  and  C_13 
REMARK    6  A    between atoms: C_14  and  O_15 
REMARK    7  A    between atoms: C_24  and  C_25 
ROOT
HETATM    1  N   UNL     1     -42.160  58.154 -55.434  1.00  0.00    -0.325 N 
HETATM    2  C   UNL     1     -43.114  58.567 -54.522  1.00  0.00     0.248 C 
HETATM    3  O   UNL     1     -44.335  58.491 -54.651  1.00  0.00    -0.271 OA
HETATM    4  H   UNL     1     -41.294  58.679 -55.448  1.00  0.00     0.169 HD
ENDROOT
BRANCH   2   5
HETATM    5  C   UNL     1     -42.521  59.186 -53.253  1.00  0.00     0.337 C 
BRANCH   5   6
HETATM    6  N   UNL     1     -42.521  58.212 -52.083  1.00  0.00    -0.060 N 
HETATM    7  H   UNL     1     -43.030  58.688 -51.321  1.00  0.00     0.280 HD
HETATM    8  C   UNL     1     -43.323  56.936 -52.365  1.00  0.00     0.255 C 
HETATM    9  C   UNL     1     -43.348  56.040 -51.110  1.00  0.00     0.150 C 
HETATM   10  N   UNL     1     -41.986  55.763 -50.630  1.00  0.00    -0.375 N 
HETATM   11  C   UNL     1     -41.156  56.954 -50.368  1.00  0.00     0.150 C 
HETATM   12  C   UNL     1     -41.118  57.878 -51.602  1.00  0.00     0.255 C 
BRANCH  10  13
HETATM   13  C   UNL     1     -41.332  54.563 -50.939  1.00  0.00     0.064 A 
HETATM   14  C   UNL     1     -40.966  53.626 -49.931  1.00  0.00     0.094 A 
HETATM   15  C   UNL     1     -40.285  52.445 -50.266  1.00  0.00     0.039 A 
HETATM   16  C   UNL     1     -39.992  52.148 -51.594  1.00  0.00     0.003 A 
HETATM   17  C   UNL     1     -40.377  53.025 -52.596  1.00  0.00     0.002 A 
HETATM   18  C   UNL     1     -41.039  54.212 -52.271  1.00  0.00     0.032 A 
BRANCH  14  19
HETATM   19  O   UNL     1     -41.331  53.933 -48.639  1.00  0.00    -0.354 OA
HETATM   20  C   UNL     1     -40.292  54.000 -47.668  1.00  0.00     0.210 C 
ENDBRANCH  14  19
ENDBRANCH  10  13
ENDBRANCH   5   6
ENDBRANCH   2   5
BRANCH   1  21
HETATM   21  C   UNL     1     -42.512  57.549 -56.665  1.00  0.00     0.048 A 
HETATM   22  C   UNL     1     -42.699  56.140 -56.704  1.00  0.00    -0.027 A 
HETATM   23  C   UNL     1     -43.091  55.553 -57.921  1.00  0.00     0.010 A 
HETATM   24  C   UNL     1     -43.321  56.324 -59.054  1.00  0.00     0.001 A 
HETATM   25  C   UNL     1     -43.156  57.703 -58.999  1.00  0.00     0.010 A 
HETATM   26  C   UNL     1     -42.752  58.347 -57.814  1.00  0.00    -0.027 A 
BRANCH  22  27
HETATM   27  C   UNL     1     -42.359  55.222 -55.529  1.00  0.00     0.013 C 
HETATM   28  C   UNL     1     -40.944  54.659 -55.700  1.00  0.00     0.015 C 
HETATM   29  C   UNL     1     -43.369  54.088 -55.312  1.00  0.00     0.015 C 
ENDBRANCH  22  27
BRANCH  26  30
HETATM   30  C   UNL     1     -42.699  59.873 -57.812  1.00  0.00     0.013 C 
HETATM   31  C   UNL     1     -42.016  60.434 -59.064  1.00  0.00     0.015 C 
HETATM   32  C   UNL     1     -44.100  60.474 -57.641  1.00  0.00     0.015 C 
ENDBRANCH  26  30
ENDBRANCH   1  21
TORSDOF 7
ENDMDL
MODEL 2
REMARK VINA RESULT:      -7.4      2.221      8.647
REMARK  7 active torsions:
REMARK  status: ('A' for Active; 'I' for Inactive)
REMARK    1  A    between atoms: C_2  and  C_3 
REMARK    2  A    between atoms: C_4  and  N_5 
REMARK       I    between atoms: N_5  and  C_6 
REMARK    3  A    between atoms: C_6  and  C_7 
REMARK    4  A    between atoms: C_7  and  N_8 
REMARK    5  A    between atoms: N_12  and  C_13 
REMARK    6  A    between atoms: C_14  and  O_15 
REMARK    7  A    between atoms: C_24  and  C_25 
ROOT
HETATM    1  N   UNL     1     -40.157  53.792 -52.551  1.00  0.00    -0.325 N 
HETATM    2  C   UNL     1     -41.339  54.265 -53.091  1.00  0.00     0.248 C 
HETATM    3  O   UNL     1     -42.455  53.761 -52.972  1.00  0.00    -0.271 OA
HETATM    4  H   UNL     1     -39.314  53.975 -53.082  1.00  0.00     0.169 HD
ENDROOT
BRANCH   2   5
HETATM    5  C   UNL     1     -41.165  55.540 -53.920  1.00  0.00     0.337 C 
BRANCH   5   6
HETATM    6  N   UNL     1     -42.331  55.772 -54.871  1.00  0.00    -0.060 N 
HETATM    7  H   UNL     1     -43.136  55.277 -54.455  1.00  0.00     0.280 HD
HETATM    8  C   UNL     1     -42.761  57.242 -54.945  1.00  0.00     0.255 C 
HETATM    9  C   UNL     1     -43.996  57.386 -55.858  1.00  0.00     0.150 C 
HETATM   10  N   UNL     1     -43.747  56.798 -57.182  1.00  0.00    -0.375 N 
HETATM   11  C   UNL     1     -43.302  55.391 -57.173  1.00  0.00     0.150 C 
HETATM   12  C   UNL     1     -42.073  55.211 -56.260  1.00  0.00     0.255 C 
BRANCH  10  13
HETATM   13  C   UNL     1     -43.387  57.591 -58.279  1.00  0.00     0.064 A 
HETATM   14  C   UNL     1     -44.295  57.860 -59.342  1.00  0.00     0.094 A 
HETATM   15  C   UNL     1     -43.899  58.635 -60.443  1.00  0.00     0.039 A 
HETATM   16  C   UNL     1     -42.624  59.190 -60.497  1.00  0.00     0.003 A 
HETATM   17  C   UNL     1     -41.737  58.977 -59.453  1.00  0.00     0.002 A 
HETATM   18  C   UNL     1     -42.116  58.192 -58.361  1.00  0.00     0.032 A 
BRANCH  14  19
HETATM   19  O   UNL     1     -45.566  57.342 -59.216  1.00  0.00    -0.354 OA
HETATM   20  C   UNL     1     -45.905  56.242 -60.055  1.00  0.00     0.210 C 
ENDBRANCH  14  19
ENDBRANCH  10  13
ENDBRANCH   5   6
ENDBRANCH   2   5
BRANCH   1  21
HETATM   21  C   UNL     1     -40.114  52.627 -51.745  1.00  0.00     0.048 A 
HETATM   22  C   UNL     1     -40.401  52.747 -50.358  1.00  0.00    -0.027 A 
HETATM   23  C   UNL     1     -40.399  51.579 -49.574  1.00  0.00     0.010 A 
HETATM   24  C   UNL     1     -40.154  50.332 -50.136  1.00  0.00     0.001 A 
HETATM   25  C   UNL     1     -39.896  50.223 -51.497  1.00  0.00     0.010 A 
HETATM   26  C   UNL     1     -39.871  51.358 -52.331  1.00  0.00    -0.027 A 
BRANCH  22  27
HETATM   27  C   UNL     1     -40.570  54.094 -49.655  1.00  0.00     0.013 C 
HETATM   28  C   UNL     1     -40.055  54.000 -48.214  1.00  0.00     0.015 C 
HETATM   29  C   UNL     1     -42.006  54.634 -49.681  1.00  0.00     0.015 C 
ENDBRANCH  22  27
BRANCH  26  30
HETATM   30  C   UNL     1     -39.687  51.138 -53.831  1.00  0.00     0.013 C 
HETATM   31  C   UNL     1     -38.915  49.851 -54.141  1.00  0.00     0.015 C 
HETATM   32  C   UNL     1     -41.036  51.152 -54.560  1.00  0.00     0.015 C 
ENDBRANCH  26  30
ENDBRANCH   1  21
TORSDOF 7
ENDMDL
MODEL 3
REMARK VINA RESULT:      -7.3      2.684      5.403
REMARK  7 active torsions:
REMARK  status: ('A' for Active; 'I' for Inactive)
REMARK    1  A    between atoms: C_2  and  C_3 
REMARK    2  A    between atoms: C_4  and  N_5 
REMARK       I    between atoms: N_5  and  C_6 
REMARK    3  A    between atoms: C_6  and  C_7 
REMARK    4  A    between atoms: C_7  and  N_8 
REMARK    5  A    between atoms: N_12  and  C_13 
REMARK    6  A    between atoms: C_14  and  O_15 
REMARK    7  A    between atoms: C_24  and  C_25 
ROOT
HETATM    1  N   UNL     1     -43.052  58.926 -53.555  1.00  0.00    -0.325 N 
HETATM    2  C   UNL     1     -43.565  57.652 -53.713  1.00  0.00     0.248 C 
HETATM    3  O   UNL     1     -44.101  56.963 -52.846  1.00  0.00    -0.271 OA
HETATM    4  H   UNL     1     -42.259  59.168 -54.138  1.00  0.00     0.169 HD
ENDROOT
BRANCH   2   5
HETATM    5  C   UNL     1     -43.403  57.098 -55.132  1.00  0.00     0.337 C 
BRANCH   5   6
HETATM    6  N   UNL     1     -42.466  55.899 -55.177  1.00  0.00    -0.060 N 
HETATM    7  H   UNL     1     -42.203  55.784 -56.169  1.00  0.00     0.280 HD
HETATM    8  C   UNL     1     -41.145  56.140 -54.437  1.00  0.00     0.255 C 
HETATM    9  C   UNL     1     -40.218  54.919 -54.597  1.00  0.00     0.150 C 
HETATM   10  N   UNL     1     -40.892  53.683 -54.170  1.00  0.00    -0.375 N 
HETATM   11  C   UNL     1     -42.184  53.411 -54.829  1.00  0.00     0.150 C 
HETATM   12  C   UNL     1     -43.133  54.620 -54.695  1.00  0.00     0.255 C 
BRANCH  10  13
HETATM   13  C   UNL     1     -40.675  53.132 -52.901  1.00  0.00     0.064 A 
HETATM   14  C   UNL     1     -39.896  51.955 -52.716  1.00  0.00     0.094 A 
HETATM   15  C   UNL     1     -39.718  51.409 -51.435  1.00  0.00     0.039 A 
HETATM   16  C   UNL     1     -40.266  52.030 -50.317  1.00  0.00     0.003 A 
HETATM   17  C   UNL     1     -40.992  53.202 -50.468  1.00  0.00     0.002 A 
HETATM   18  C   UNL     1     -41.189  53.743 -51.742  1.00  0.00     0.032 A 
BRANCH  14  19
HETATM   19  O   UNL     1     -39.322  51.409 -53.844  1.00  0.00    -0.354 OA
HETATM   20  C   UNL     1     -39.894  50.206 -54.346  1.00  0.00     0.210 C 
ENDBRANCH  14  19
ENDBRANCH  10  13
ENDBRANCH   5   6
ENDBRANCH   2   5
BRANCH   1  21
HETATM   21  C   UNL     1     -43.115  59.612 -52.317  1.00  0.00     0.048 A 
HETATM   22  C   UNL     1     -42.003  59.527 -51.434  1.00  0.00    -0.027 A 
HETATM   23  C   UNL     1     -42.056  60.246 -50.226  1.00  0.00     0.010 A 
HETATM   24  C   UNL     1     -43.147  61.045 -49.908  1.00  0.00     0.001 A 
HETATM   25  C   UNL     1     -44.218  61.138 -50.788  1.00  0.00     0.010 A 
HETATM   26  C   UNL     1     -44.230  60.431 -52.006  1.00  0.00    -0.027 A 
BRANCH  22  27
HETATM   27  C   UNL     1     -40.822  58.585 -51.669  1.00  0.00     0.013 C 
HETATM   28  C   UNL     1     -41.019  57.292 -50.869  1.00  0.00     0.015 C 
HETATM   29  C   UNL     1     -39.456  59.208 -51.358  1.00  0.00     0.015 C 
ENDBRANCH  22  27
BRANCH  26  30
HETATM   30  C   UNL     1     -45.396  60.674 -52.962  1.00  0.00     0.013 C 
HETATM   31  C   UNL     1     -46.743  60.741 -52.234  1.00  0.00     0.015 C 
HETATM   32  C   UNL     1     -45.168  61.938 -53.801  1.00  0.00     0.015 C 
ENDBRANCH  26  30
ENDBRANCH   1  21
TORSDOF 7
ENDMDL
MODEL 4
REMARK VINA RESULT:      -7.3      0.225      3.091
REMARK  7 active torsions:
REMARK  status: ('A' for Active; 'I' for Inactive)
REMARK    1  A    between atoms: C_2  and  C_3 
REMARK    2  A    between atoms: C_4  and  N_5 
REMARK       I    between atoms: N_5  and  C_6 
REMARK    3  A    between atoms: C_6  and  C_7 
REMARK    4  A    between atoms: C_7  and  N_8 
REMARK    5  A    between atoms: N_12  and  C_13 
REMARK    6  A    between atoms: C_14  and  O_15 
REMARK    7  A    between atoms: C_24  and  C_25 
ROOT
HETATM    1  N   UNL     1     -42.315  58.102 -55.585  1.00  0.00    -0.325 N 
HETATM    2  C   UNL     1     -43.261  58.547 -54.679  1.00  0.00     0.248 C 
HETATM    3  O   UNL     1     -44.483  58.450 -54.786  1.00  0.00    -0.271 OA
HETATM    4  H   UNL     1     -41.456  58.636 -55.636  1.00  0.00     0.169 HD
ENDROOT
BRANCH   2   5
HETATM    5  C   UNL     1     -42.657  59.232 -53.450  1.00  0.00     0.337 C 
BRANCH   5   6
HETATM    6  N   UNL     1     -42.625  58.313 -52.236  1.00  0.00    -0.060 N 
HETATM    7  H   UNL     1     -43.121  58.820 -51.486  1.00  0.00     0.280 HD
HETATM    8  C   UNL     1     -43.424  57.020 -52.441  1.00  0.00     0.255 C 
HETATM    9  C   UNL     1     -43.416  56.184 -51.146  1.00  0.00     0.150 C 
HETATM   10  N   UNL     1     -42.042  55.936 -50.684  1.00  0.00    -0.375 N 
HETATM   11  C   UNL     1     -41.214  57.143 -50.496  1.00  0.00     0.150 C 
HETATM   12  C   UNL     1     -41.210  58.009 -51.772  1.00  0.00     0.255 C 
BRANCH  10  13
HETATM   13  C   UNL     1     -41.386  54.728 -50.951  1.00  0.00     0.064 A 
HETATM   14  C   UNL     1     -40.972  53.851 -49.908  1.00  0.00     0.094 A 
HETATM   15  C   UNL     1     -40.291  52.660 -50.204  1.00  0.00     0.039 A 
HETATM   16  C   UNL     1     -40.045  52.292 -51.523  1.00  0.00     0.003 A 
HETATM   17  C   UNL     1     -40.477  53.109 -52.557  1.00  0.00     0.002 A 
HETATM   18  C   UNL     1     -41.140  54.307 -52.272  1.00  0.00     0.032 A 
BRANCH  14  19
HETATM   19  O   UNL     1     -41.292  54.226 -48.621  1.00  0.00    -0.354 OA
HETATM   20  C   UNL     1     -40.385  53.849 -47.591  1.00  0.00     0.210 C 
ENDBRANCH  14  19
ENDBRANCH  10  13
ENDBRANCH   5   6
ENDBRANCH   2   5
BRANCH   1  21
HETATM   21  C   UNL     1     -42.678  57.436 -56.781  1.00  0.00     0.048 A 
HETATM   22  C   UNL     1     -42.876  58.208 -57.958  1.00  0.00    -0.027 A 
HETATM   23  C   UNL     1     -43.193  57.534 -59.152  1.00  0.00     0.010 A 
HETATM   24  C   UNL     1     -43.284  56.148 -59.196  1.00  0.00     0.001 A 
HETATM   25  C   UNL     1     -43.066  55.401 -58.045  1.00  0.00     0.010 A 
HETATM   26  C   UNL     1     -42.759  56.019 -56.817  1.00  0.00    -0.027 A 
BRANCH  22  27
HETATM   27  C   UNL     1     -42.901  59.737 -57.958  1.00  0.00     0.013 C 
HETATM   28  C   UNL     1     -44.348  60.235 -58.049  1.00  0.00     0.015 C 
HETATM   29  C   UNL     1     -42.040  60.374 -59.056  1.00  0.00     0.015 C 
ENDBRANCH  22  27
BRANCH  26  30
HETATM   30  C   UNL     1     -42.430  55.121 -55.627  1.00  0.00     0.013 C 
HETATM   31  C   UNL     1     -43.377  53.920 -55.524  1.00  0.00     0.015 C 
HETATM   32  C   UNL     1     -40.969  54.659 -55.672  1.00  0.00     0.015 C 
ENDBRANCH  26  30
ENDBRANCH   1  21
TORSDOF 7
ENDMDL
MODEL 5
REMARK VINA RESULT:      -7.3      2.659      5.800
REMARK  7 active torsions:
REMARK  status: ('A' for Active; 'I' for Inactive)
REMARK    1  A    between atoms: C_2  and  C_3 
REMARK    2  A    between atoms: C_4  and  N_5 
REMARK       I    between atoms: N_5  and  C_6 
REMARK    3  A    between atoms: C_6  and  C_7 
REMARK    4  A    between atoms: C_7  and  N_8 
REMARK    5  A    between atoms: N_12  and  C_13 
REMARK    6  A    between atoms: C_14  and  O_15 
REMARK    7  A    between atoms: C_24  and  C_25 
ROOT
HETATM    1  N   UNL     1     -42.962  59.064 -53.641  1.00  0.00    -0.325 N 
HETATM    2  C   UNL     1     -43.550  57.820 -53.777  1.00  0.00     0.248 C 
HETATM    3  O   UNL     1     -44.120  57.177 -52.896  1.00  0.00    -0.271 OA
HETATM    4  H   UNL     1     -42.160  59.250 -54.230  1.00  0.00     0.169 HD
ENDROOT
BRANCH   2   5
HETATM    5  C   UNL     1     -43.428  57.236 -55.187  1.00  0.00     0.337 C 
BRANCH   5   6
HETATM    6  N   UNL     1     -42.520  56.015 -55.228  1.00  0.00    -0.060 N 
HETATM    7  H   UNL     1     -42.275  55.879 -56.221  1.00  0.00     0.280 HD
HETATM    8  C   UNL     1     -41.182  56.237 -54.511  1.00  0.00     0.255 C 
HETATM    9  C   UNL     1     -40.286  54.992 -54.666  1.00  0.00     0.150 C 
HETATM   10  N   UNL     1     -40.981  53.779 -54.210  1.00  0.00    -0.375 N 
HETATM   11  C   UNL     1     -42.289  53.527 -54.844  1.00  0.00     0.150 C 
HETATM   12  C   UNL     1     -43.208  54.759 -54.716  1.00  0.00     0.255 C 
BRANCH  10  13
HETATM   13  C   UNL     1     -40.758  53.243 -52.936  1.00  0.00     0.064 A 
HETATM   14  C   UNL     1     -39.969  52.074 -52.740  1.00  0.00     0.094 A 
HETATM   15  C   UNL     1     -39.785  51.542 -51.454  1.00  0.00     0.039 A 
HETATM   16  C   UNL     1     -40.334  52.171 -50.341  1.00  0.00     0.003 A 
HETATM   17  C   UNL     1     -41.069  53.336 -50.503  1.00  0.00     0.002 A 
HETATM   18  C   UNL     1     -41.273  53.863 -51.781  1.00  0.00     0.032 A 
BRANCH  14  19
HETATM   19  O   UNL     1     -39.395  51.520 -53.864  1.00  0.00    -0.354 OA
HETATM   20  C   UNL     1     -39.952  50.301 -54.345  1.00  0.00     0.210 C 
ENDBRANCH  14  19
ENDBRANCH  10  13
ENDBRANCH   5   6
ENDBRANCH   2   5
BRANCH   1  21
HETATM   21  C   UNL     1     -42.978  59.771 -52.413  1.00  0.00     0.048 A 
HETATM   22  C   UNL     1     -44.102  60.588 -52.111  1.00  0.00    -0.027 A 
HETATM   23  C   UNL     1     -44.129  61.252 -50.871  1.00  0.00     0.010 A 
HETATM   24  C   UNL     1     -43.104  61.096 -49.946  1.00  0.00     0.001 A 
HETATM   25  C   UNL     1     -42.021  60.278 -50.242  1.00  0.00     0.010 A 
HETATM   26  C   UNL     1     -41.930  59.598 -51.472  1.00  0.00    -0.027 A 
BRANCH  22  27
HETATM   27  C   UNL     1     -45.208  60.891 -53.122  1.00  0.00     0.013 C 
HETATM   28  C   UNL     1     -44.848  62.143 -53.930  1.00  0.00     0.015 C 
HETATM   29  C   UNL     1     -46.601  61.033 -52.498  1.00  0.00     0.015 C 
ENDBRANCH  22  27
BRANCH  26  30
HETATM   30  C   UNL     1     -40.761  58.636 -51.673  1.00  0.00     0.013 C 
HETATM   31  C   UNL     1     -39.423  59.247 -51.244  1.00  0.00     0.015 C 
HETATM   32  C   UNL     1     -41.009  57.307 -50.948  1.00  0.00     0.015 C 
ENDBRANCH  26  30
ENDBRANCH   1  21
TORSDOF 7
ENDMDL
MODEL 6
REMARK VINA RESULT:      -7.3      2.240      8.603
REMARK  7 active torsions:
REMARK  status: ('A' for Active; 'I' for Inactive)
REMARK    1  A    between atoms: C_2  and  C_3 
REMARK    2  A    between atoms: C_4  and  N_5 
REMARK       I    between atoms: N_5  and  C_6 
REMARK    3  A    between atoms: C_6  and  C_7 
REMARK    4  A    between atoms: C_7  and  N_8 
REMARK    5  A    between atoms: N_12  and  C_13 
REMARK    6  A    between atoms: C_14  and  O_15 
REMARK    7  A    between atoms: C_24  and  C_25 
ROOT
HETATM    1  N   UNL     1     -40.185  53.688 -52.681  1.00  0.00    -0.325 N 
HETATM    2  C   UNL     1     -41.343  54.228 -53.211  1.00  0.00     0.248 C 
HETATM    3  O   UNL     1     -42.490  53.815 -53.043  1.00  0.00    -0.271 OA
HETATM    4  H   UNL     1     -39.346  53.785 -53.241  1.00  0.00     0.169 HD
ENDROOT
BRANCH   2   5
HETATM    5  C   UNL     1     -41.098  55.451 -54.099  1.00  0.00     0.337 C 
BRANCH   5   6
HETATM    6  N   UNL     1     -42.285  55.754 -55.002  1.00  0.00    -0.060 N 
HETATM    7  H   UNL     1     -43.081  55.230 -54.606  1.00  0.00     0.280 HD
HETATM    8  C   UNL     1     -42.712  57.226 -54.959  1.00  0.00     0.255 C 
HETATM    9  C   UNL     1     -43.967  57.438 -55.830  1.00  0.00     0.150 C 
HETATM   10  N   UNL     1     -43.750  56.948 -57.199  1.00  0.00    -0.375 N 
HETATM   11  C   UNL     1     -43.309  55.544 -57.304  1.00  0.00     0.150 C 
HETATM   12  C   UNL     1     -42.060  55.295 -56.435  1.00  0.00     0.255 C 
BRANCH  10  13
HETATM   13  C   UNL     1     -43.412  57.819 -58.243  1.00  0.00     0.064 A 
HETATM   14  C   UNL     1     -44.244  57.978 -59.388  1.00  0.00     0.094 A 
HETATM   15  C   UNL     1     -43.868  58.837 -60.432  1.00  0.00     0.039 A 
HETATM   16  C   UNL     1     -42.695  59.581 -60.350  1.00  0.00     0.003 A 
HETATM   17  C   UNL     1     -41.891  59.476 -59.226  1.00  0.00     0.002 A 
HETATM   18  C   UNL     1     -42.248  58.609 -58.188  1.00  0.00     0.032 A 
BRANCH  14  19
HETATM   19  O   UNL     1     -45.425  57.268 -59.398  1.00  0.00    -0.354 OA
HETATM   20  C   UNL     1     -46.609  57.971 -59.036  1.00  0.00     0.210 C 
ENDBRANCH  14  19
ENDBRANCH  10  13
ENDBRANCH   5   6
ENDBRANCH   2   5
BRANCH   1  21
HETATM   21  C   UNL     1     -40.207  52.557 -51.828  1.00  0.00     0.048 A 
HETATM   22  C   UNL     1     -39.921  51.279 -52.382  1.00  0.00    -0.027 A 
HETATM   23  C   UNL     1     -39.902  50.168 -51.520  1.00  0.00     0.010 A 
HETATM   24  C   UNL     1     -40.126  50.309 -50.156  1.00  0.00     0.001 A 
HETATM   25  C   UNL     1     -40.382  51.565 -49.621  1.00  0.00     0.010 A 
HETATM   26  C   UNL     1     -40.428  52.713 -50.435  1.00  0.00    -0.027 A 
BRANCH  22  27
HETATM   27  C   UNL     1     -39.775  51.036 -53.885  1.00  0.00     0.013 C 
HETATM   28  C   UNL     1     -41.160  50.896 -54.528  1.00  0.00     0.015 C 
HETATM   29  C   UNL     1     -38.891  49.834 -54.239  1.00  0.00     0.015 C 
ENDBRANCH  22  27
BRANCH  26  30
HETATM   30  C   UNL     1     -40.609  54.067 -49.753  1.00  0.00     0.013 C 
HETATM   31  C   UNL     1     -42.072  54.525 -49.744  1.00  0.00     0.015 C 
HETATM   32  C   UNL     1     -40.037  54.049 -48.330  1.00  0.00     0.015 C 
ENDBRANCH  26  30
ENDBRANCH   1  21
TORSDOF 7
ENDMDL
MODEL 7
REMARK VINA RESULT:      -7.2      2.283      3.647
REMARK  7 active torsions:
REMARK  status: ('A' for Active; 'I' for Inactive)
REMARK    1  A    between atoms: C_2  and  C_3 
REMARK    2  A    between atoms: C_4  and  N_5 
REMARK       I    between atoms: N_5  and  C_6 
REMARK    3  A    between atoms: C_6  and  C_7 
REMARK    4  A    between atoms: C_7  and  N_8 
REMARK    5  A    between atoms: N_12  and  C_13 
REMARK    6  A    between atoms: C_14  and  O_15 
REMARK    7  A    between atoms: C_24  and  C_25 
ROOT
HETATM    1  N   UNL     1     -42.843  58.194 -57.088  1.00  0.00    -0.325 N 
HETATM    2  C   UNL     1     -43.810  58.315 -56.106  1.00  0.00     0.248 C 
HETATM    3  O   UNL     1     -44.883  58.909 -56.202  1.00  0.00    -0.271 OA
HETATM    4  H   UNL     1     -41.883  58.134 -56.770  1.00  0.00     0.169 HD
ENDROOT
BRANCH   2   5
HETATM    5  C   UNL     1     -43.433  57.632 -54.789  1.00  0.00     0.337 C 
BRANCH   5   6
HETATM    6  N   UNL     1     -42.592  56.382 -55.010  1.00  0.00    -0.060 N 
HETATM    7  H   UNL     1     -42.458  56.309 -56.031  1.00  0.00     0.280 HD
HETATM    8  C   UNL     1     -41.179  56.499 -54.427  1.00  0.00     0.255 C 
HETATM    9  C   UNL     1     -40.363  55.235 -54.762  1.00  0.00     0.150 C 
HETATM   10  N   UNL     1     -41.062  54.020 -54.317  1.00  0.00    -0.375 N 
HETATM   11  C   UNL     1     -42.440  53.866 -54.824  1.00  0.00     0.150 C 
HETATM   12  C   UNL     1     -43.281  55.120 -54.514  1.00  0.00     0.255 C 
BRANCH  10  13
HETATM   13  C   UNL     1     -40.733  53.384 -53.114  1.00  0.00     0.064 A 
HETATM   14  C   UNL     1     -40.118  52.100 -53.086  1.00  0.00     0.094 A 
HETATM   15  C   UNL     1     -39.824  51.474 -51.864  1.00  0.00     0.039 A 
HETATM   16  C   UNL     1     -40.089  52.114 -50.658  1.00  0.00     0.003 A 
HETATM   17  C   UNL     1     -40.647  53.383 -50.661  1.00  0.00     0.002 A 
HETATM   18  C   UNL     1     -40.960  54.007 -51.872  1.00  0.00     0.032 A 
BRANCH  14  19
HETATM   19  O   UNL     1     -39.818  51.531 -54.305  1.00  0.00    -0.354 OA
HETATM   20  C   UNL     1     -39.802  50.109 -54.372  1.00  0.00     0.210 C 
ENDBRANCH  14  19
ENDBRANCH  10  13
ENDBRANCH   5   6
ENDBRANCH   2   5
BRANCH   1  21
HETATM   21  C   UNL     1     -43.010  58.752 -58.379  1.00  0.00     0.048 A 
HETATM   22  C   UNL     1     -43.776  58.035 -59.339  1.00  0.00    -0.027 A 
HETATM   23  C   UNL     1     -43.974  58.617 -60.604  1.00  0.00     0.010 A 
HETATM   24  C   UNL     1     -43.464  59.873 -60.909  1.00  0.00     0.001 A 
HETATM   25  C   UNL     1     -42.737  60.575 -59.956  1.00  0.00     0.010 A 
HETATM   26  C   UNL     1     -42.493  60.040 -58.677  1.00  0.00    -0.027 A 
BRANCH  22  27
HETATM   27  C   UNL     1     -44.271  56.606 -59.110  1.00  0.00     0.013 C 
HETATM   28  C   UNL     1     -43.215  55.604 -59.590  1.00  0.00     0.015 C 
HETATM   29  C   UNL     1     -45.631  56.307 -59.753  1.00  0.00     0.015 C 
ENDBRANCH  22  27
BRANCH  26  30
HETATM   30  C   UNL     1     -41.777  60.922 -57.656  1.00  0.00     0.013 C 
HETATM   31  C   UNL     1     -40.702  61.804 -58.301  1.00  0.00     0.015 C 
HETATM   32  C   UNL     1     -42.777  61.775 -56.866  1.00  0.00     0.015 C 
ENDBRANCH  26  30
ENDBRANCH   1  21
TORSDOF 7
ENDMDL
MODEL 8
REMARK VINA RESULT:      -7.2      2.415      7.157
REMARK  7 active torsions:
REMARK  status: ('A' for Active; 'I' for Inactive)
REMARK    1  A    between atoms: C_2  and  C_3 
REMARK    2  A    between atoms: C_4  and  N_5 
REMARK       I    between atoms: N_5  and  C_6 
REMARK    3  A    between atoms: C_6  and  C_7 
REMARK    4  A    between atoms: C_7  and  N_8 
REMARK    5  A    between atoms: N_12  and  C_13 
REMARK    6  A    between atoms: C_14  and  O_15 
REMARK    7  A    between atoms: C_24  and  C_25 
ROOT
HETATM    1  N   UNL     1     -41.847  53.582 -53.973  1.00  0.00    -0.325 N 
HETATM    2  C   UNL     1     -41.351  54.600 -54.768  1.00  0.00     0.248 C 
HETATM    3  O   UNL     1     -40.278  55.185 -54.627  1.00  0.00    -0.271 OA
HETATM    4  H   UNL     1     -42.854  53.534 -53.879  1.00  0.00     0.169 HD
ENDROOT
BRANCH   2   5
HETATM    5  C   UNL     1     -42.291  54.999 -55.908  1.00  0.00     0.337 C 
BRANCH   5   6
HETATM    6  N   UNL     1     -43.108  56.239 -55.574  1.00  0.00    -0.060 N 
HETATM    7  H   UNL     1     -43.859  56.281 -56.281  1.00  0.00     0.280 HD
HETATM    8  C   UNL     1     -43.832  56.136 -54.226  1.00  0.00     0.255 C 
HETATM    9  C   UNL     1     -44.702  57.388 -53.995  1.00  0.00     0.150 C 
HETATM   10  N   UNL     1     -43.904  58.617 -54.120  1.00  0.00    -0.375 N 
HETATM   11  C   UNL     1     -43.161  58.759 -55.387  1.00  0.00     0.150 C 
HETATM   12  C   UNL     1     -42.287  57.517 -55.653  1.00  0.00     0.255 C 
BRANCH  10  13
HETATM   13  C   UNL     1     -43.411  59.287 -52.993  1.00  0.00     0.064 A 
HETATM   14  C   UNL     1     -44.122  60.362 -52.388  1.00  0.00     0.094 A 
HETATM   15  C   UNL     1     -43.591  61.035 -51.276  1.00  0.00     0.039 A 
HETATM   16  C   UNL     1     -42.380  60.637 -50.719  1.00  0.00     0.003 A 
HETATM   17  C   UNL     1     -41.692  59.564 -51.264  1.00  0.00     0.002 A 
HETATM   18  C   UNL     1     -42.203  58.900 -52.383  1.00  0.00     0.032 A 
BRANCH  14  19
HETATM   19  O   UNL     1     -45.345  60.682 -52.937  1.00  0.00    -0.354 OA
HETATM   20  C   UNL     1     -46.491  60.523 -52.107  1.00  0.00     0.210 C 
ENDBRANCH  14  19
ENDBRANCH  10  13
ENDBRANCH   5   6
ENDBRANCH   2   5
BRANCH   1  21
HETATM   21  C   UNL     1     -41.119  53.069 -52.871  1.00  0.00     0.048 A 
HETATM   22  C   UNL     1     -41.299  53.671 -51.596  1.00  0.00    -0.027 A 
HETATM   23  C   UNL     1     -40.605  53.128 -50.499  1.00  0.00     0.010 A 
HETATM   24  C   UNL     1     -39.787  52.014 -50.641  1.00  0.00     0.001 A 
HETATM   25  C   UNL     1     -39.636  51.420 -51.888  1.00  0.00     0.010 A 
HETATM   26  C   UNL     1     -40.293  51.926 -53.026  1.00  0.00    -0.027 A 
BRANCH  22  27
HETATM   27  C   UNL     1     -42.094  54.961 -51.387  1.00  0.00     0.013 C 
HETATM   28  C   UNL     1     -41.316  55.911 -50.468  1.00  0.00     0.015 C 
HETATM   29  C   UNL     1     -43.515  54.738 -50.855  1.00  0.00     0.015 C 
ENDBRANCH  22  27
BRANCH  26  30
HETATM   30  C   UNL     1     -40.157  51.150 -54.335  1.00  0.00     0.013 C 
HETATM   31  C   UNL     1     -38.856  50.343 -54.402  1.00  0.00     0.015 C 
HETATM   32  C   UNL     1     -41.371  50.242 -54.566  1.00  0.00     0.015 C 
ENDBRANCH  26  30
ENDBRANCH   1  21
TORSDOF 7
ENDMDL
MODEL 9
REMARK VINA RESULT:      -7.2      2.423      7.911
REMARK  7 active torsions:
REMARK  status: ('A' for Active; 'I' for Inactive)
REMARK    1  A    between atoms: C_2  and  C_3 
REMARK    2  A    between atoms: C_4  and  N_5 
REMARK       I    between atoms: N_5  and  C_6 
REMARK    3  A    between atoms: C_6  and  C_7 
REMARK    4  A    between atoms: C_7  and  N_8 
REMARK    5  A    between atoms: N_12  and  C_13 
REMARK    6  A    between atoms: C_14  and  O_15 
REMARK    7  A    between atoms: C_24  and  C_25 
ROOT
HETATM    1  N   UNL     1     -41.226  57.798 -53.879  1.00  0.00    -0.325 N 
HETATM    2  C   UNL     1     -42.319  58.544 -54.280  1.00  0.00     0.248 C 
HETATM    3  O   UNL     1     -43.396  58.642 -53.695  1.00  0.00    -0.271 OA
HETATM    4  H   UNL     1     -40.644  57.419 -54.617  1.00  0.00     0.169 HD
ENDROOT
BRANCH   2   5
HETATM    5  C   UNL     1     -42.101  59.285 -55.602  1.00  0.00     0.337 C 
BRANCH   5   6
HETATM    6  N   UNL     1     -42.207  58.359 -56.806  1.00  0.00    -0.060 N 
HETATM    7  H   UNL     1     -41.280  57.915 -56.903  1.00  0.00     0.280 HD
HETATM    8  C   UNL     1     -43.185  57.198 -56.585  1.00  0.00     0.255 C 
HETATM    9  C   UNL     1     -43.177  56.260 -57.808  1.00  0.00     0.150 C 
HETATM   10  N   UNL     1     -43.446  57.003 -59.048  1.00  0.00    -0.375 N 
HETATM   11  C   UNL     1     -42.554  58.151 -59.301  1.00  0.00     0.150 C 
HETATM   12  C   UNL     1     -42.531  59.106 -58.090  1.00  0.00     0.255 C 
BRANCH  10  13
HETATM   13  C   UNL     1     -44.723  57.028 -59.624  1.00  0.00     0.064 A 
HETATM   14  C   UNL     1     -45.235  55.923 -60.361  1.00  0.00     0.094 A 
HETATM   15  C   UNL     1     -46.508  55.986 -60.952  1.00  0.00     0.039 A 
HETATM   16  C   UNL     1     -47.309  57.113 -60.792  1.00  0.00     0.003 A 
HETATM   17  C   UNL     1     -46.848  58.183 -60.042  1.00  0.00     0.002 A 
HETATM   18  C   UNL     1     -45.575  58.137 -59.465  1.00  0.00     0.032 A 
BRANCH  14  19
HETATM   19  O   UNL     1     -44.433  54.806 -60.442  1.00  0.00    -0.354 OA
HETATM   20  C   UNL     1     -44.821  53.670 -59.676  1.00  0.00     0.210 C 
ENDBRANCH  14  19
ENDBRANCH  10  13
ENDBRANCH   5   6
ENDBRANCH   2   5
BRANCH   1  21
HETATM   21  C   UNL     1     -41.231  57.047 -52.678  1.00  0.00     0.048 A 
HETATM   22  C   UNL     1     -41.362  55.634 -52.757  1.00  0.00    -0.027 A 
HETATM   23  C   UNL     1     -41.322  54.892 -51.562  1.00  0.00     0.010 A 
HETATM   24  C   UNL     1     -41.130  55.513 -50.333  1.00  0.00     0.001 A 
HETATM   25  C   UNL     1     -40.980  56.892 -50.269  1.00  0.00     0.010 A 
HETATM   26  C   UNL     1     -41.025  57.690 -51.429  1.00  0.00    -0.027 A 
BRANCH  22  27
HETATM   27  C   UNL     1     -41.685  54.898 -54.058  1.00  0.00     0.013 C 
HETATM   28  C   UNL     1     -43.124  54.370 -54.016  1.00  0.00     0.015 C 
HETATM   29  C   UNL     1     -40.705  53.768 -54.396  1.00  0.00     0.015 C 
ENDBRANCH  22  27
BRANCH  26  30
HETATM   30  C   UNL     1     -40.745  59.184 -51.282  1.00  0.00     0.013 C 
HETATM   31  C   UNL     1     -41.881  59.922 -50.564  1.00  0.00     0.015 C 
HETATM   32  C   UNL     1     -39.407  59.427 -50.573  1.00  0.00     0.015 C 
ENDBRANCH  26  30
ENDBRANCH   1  21
TORSDOF 7
ENDMDL
MODEL 10
REMARK VINA RESULT:      -7.2      2.225      4.345
REMARK  7 active torsions:
REMARK  status: ('A' for Active; 'I' for Inactive)
REMARK    1  A    between atoms: C_2  and  C_3 
REMARK    2  A    between atoms: C_4  and  N_5 
REMARK       I    between atoms: N_5  and  C_6 
REMARK    3  A    between atoms: C_6  and  C_7 
REMARK    4  A    between atoms: C_7  and  N_8 
REMARK    5  A    between atoms: N_12  and  C_13 
REMARK    6  A    between atoms: C_14  and  O_15 
REMARK    7  A    between atoms: C_24  and  C_25 
ROOT
HETATM    1  N   UNL     1     -42.803  58.345 -57.049  1.00  0.00    -0.325 N 
HETATM    2  C   UNL     1     -43.776  58.389 -56.067  1.00  0.00     0.248 C 
HETATM    3  O   UNL     1     -44.903  58.872 -56.170  1.00  0.00    -0.271 OA
HETATM    4  H   UNL     1     -41.842  58.385 -56.733  1.00  0.00     0.169 HD
ENDROOT
BRANCH   2   5
HETATM    5  C   UNL     1     -43.333  57.768 -54.739  1.00  0.00     0.337 C 
BRANCH   5   6
HETATM    6  N   UNL     1     -42.574  56.464 -54.939  1.00  0.00    -0.060 N 
HETATM    7  H   UNL     1     -42.477  56.347 -55.960  1.00  0.00     0.280 HD
HETATM    8  C   UNL     1     -41.138  56.517 -54.404  1.00  0.00     0.255 C 
HETATM    9  C   UNL     1     -40.408  55.195 -54.716  1.00  0.00     0.150 C 
HETATM   10  N   UNL     1     -41.163  54.040 -54.206  1.00  0.00    -0.375 N 
HETATM   11  C   UNL     1     -42.563  53.951 -54.664  1.00  0.00     0.150 C 
HETATM   12  C   UNL     1     -43.319  55.264 -54.376  1.00  0.00     0.255 C 
BRANCH  10  13
HETATM   13  C   UNL     1     -40.833  53.429 -52.990  1.00  0.00     0.064 A 
HETATM   14  C   UNL     1     -40.106  52.205 -52.938  1.00  0.00     0.094 A 
HETATM   15  C   UNL     1     -39.813  51.600 -51.705  1.00  0.00     0.039 A 
HETATM   16  C   UNL     1     -40.190  52.205 -50.510  1.00  0.00     0.003 A 
HETATM   17  C   UNL     1     -40.860  53.419 -50.536  1.00  0.00     0.002 A 
HETATM   18  C   UNL     1     -41.172  54.020 -51.758  1.00  0.00     0.032 A 
BRANCH  14  19
HETATM   19  O   UNL     1     -39.701  51.674 -54.143  1.00  0.00    -0.354 OA
HETATM   20  C   UNL     1     -39.769  50.259 -54.285  1.00  0.00     0.210 C 
ENDBRANCH  14  19
ENDBRANCH  10  13
ENDBRANCH   5   6
ENDBRANCH   2   5
BRANCH   1  21
HETATM   21  C   UNL     1     -43.027  58.862 -58.349  1.00  0.00     0.048 A 
HETATM   22  C   UNL     1     -42.448  60.114 -58.694  1.00  0.00    -0.027 A 
HETATM   23  C   UNL     1     -42.639  60.599 -60.001  1.00  0.00     0.010 A 
HETATM   24  C   UNL     1     -43.347  59.868 -60.947  1.00  0.00     0.001 A 
HETATM   25  C   UNL     1     -43.889  58.635 -60.606  1.00  0.00     0.010 A 
HETATM   26  C   UNL     1     -43.744  58.103 -59.310  1.00  0.00    -0.027 A 
BRANCH  22  27
HETATM   27  C   UNL     1     -41.754  61.020 -57.676  1.00  0.00     0.013 C 
HETATM   28  C   UNL     1     -42.789  61.906 -56.974  1.00  0.00     0.015 C 
HETATM   29  C   UNL     1     -40.626  61.873 -58.269  1.00  0.00     0.015 C 
ENDBRANCH  22  27
BRANCH  26  30
HETATM   30  C   UNL     1     -44.278  56.695 -59.051  1.00  0.00     0.013 C 
HETATM   31  C   UNL     1     -45.653  56.467 -59.688  1.00  0.00     0.015 C 
HETATM   32  C   UNL     1     -43.278  55.631 -59.519  1.00  0.00     0.015 C 
ENDBRANCH  26  30
ENDBRANCH   1  21
TORSDOF 7
ENDMDL
