MODEL 1
REMARK VINA RESULT:      -7.7      0.000      0.000
REMARK  6 active torsions:
REMARK  status: ('A' for Active; 'I' for Inactive)
REMARK    1  A    between atoms: C_2  and  O_3 
REMARK    2  A    between atoms: O_3  and  C_4 
REMARK    3  A    between atoms: C_5  and  O_6 
REMARK    4  A    between atoms: C_9  and  C_10 
REMARK    5  A    between atoms: C_19  and  C_20 
REMARK    6  A    between atoms: C_22  and  O_23 
ROOT
HETATM    1  C   UNL     1     -43.241  55.136 -55.061  1.00  0.00     0.156 A 
HETATM    2  N   UNL     1     -43.554  54.587 -56.393  1.00  0.00    -0.343 N 
HETATM    3  C   UNL     1     -43.283  55.452 -57.448  1.00  0.00     0.271 A 
HETATM    4  O   UNL     1     -43.450  55.248 -58.635  1.00  0.00    -0.266 OA
HETATM    5  C   UNL     1     -42.759  56.595 -56.806  1.00  0.00     0.128 A 
HETATM    6  C   UNL     1     -42.703  56.456 -55.450  1.00  0.00     0.034 A 
HETATM    7  N   UNL     1     -42.256  57.799 -57.118  1.00  0.00    -0.272 N 
HETATM    8  H   UNL     1     -42.138  58.231 -58.029  1.00  0.00     0.189 HD
HETATM    9  N   UNL     1     -41.854  58.468 -56.010  1.00  0.00    -0.173 NA
HETATM   10  C   UNL     1     -42.132  57.644 -54.967  1.00  0.00     0.098 A 
HETATM   11  H   UNL     1     -43.912  53.658 -56.555  1.00  0.00     0.163 HD
ENDROOT
BRANCH   1  12
HETATM   12  C   UNL     1     -42.177  54.350 -54.338  1.00  0.00    -0.028 A 
HETATM   13  C   UNL     1     -41.080  53.759 -54.996  1.00  0.00     0.012 A 
HETATM   14  C   UNL     1     -40.135  53.006 -54.293  1.00  0.00     0.040 A 
HETATM   15  C   UNL     1     -40.281  52.831 -52.925  1.00  0.00     0.099 A 
HETATM   16  C   UNL     1     -41.339  53.433 -52.249  1.00  0.00     0.102 A 
HETATM   17  C   UNL     1     -42.295  54.166 -52.948  1.00  0.00     0.049 A 
BRANCH  15  18
HETATM   18  O   UNL     1     -39.382  52.040 -52.270  1.00  0.00    -0.358 OA
HETATM   19  H   UNL     1     -38.545  52.124 -52.763  1.00  0.00     0.218 HD
ENDBRANCH  15  18
BRANCH  16  20
HETATM   20  O   UNL     1     -41.496  53.265 -50.899  1.00  0.00    -0.349 OA
BRANCH  20  21
HETATM   21  C   UNL     1     -41.852  54.509 -50.275  1.00  0.00     0.171 C 
HETATM   22  C   UNL     1     -40.570  55.235 -49.914  1.00  0.00     0.034 C 
ENDBRANCH  20  21
ENDBRANCH  16  20
ENDBRANCH   1  12
BRANCH  10  23
HETATM   23  C   UNL     1     -41.812  58.025 -53.591  1.00  0.00    -0.002 A 
HETATM   24  C   UNL     1     -40.553  58.577 -53.294  1.00  0.00     0.050 A 
HETATM   25  C   UNL     1     -40.218  58.927 -51.986  1.00  0.00     0.069 A 
HETATM   26  C   UNL     1     -41.148  58.728 -50.964  1.00  0.00     0.037 A 
HETATM   27  C   UNL     1     -42.405  58.194 -51.244  1.00  0.00     0.004 A 
HETATM   28  C   UNL     1     -42.738  57.847 -52.555  1.00  0.00     0.014 A 
BRANCH  25  29
HETATM   29  O   UNL     1     -39.027  59.465 -51.578  1.00  0.00    -0.356 OA
HETATM   30  C   UNL     1     -38.912  59.791 -50.198  1.00  0.00     0.210 C 
ENDBRANCH  25  29
ENDBRANCH  10  23
TORSDOF 6
ENDMDL
MODEL 2
REMARK VINA RESULT:      -7.4      2.685      6.237
REMARK  6 active torsions:
REMARK  status: ('A' for Active; 'I' for Inactive)
REMARK    1  A    between atoms: C_2  and  O_3 
REMARK    2  A    between atoms: O_3  and  C_4 
REMARK    3  A    between atoms: C_5  and  O_6 
REMARK    4  A    between atoms: C_9  and  C_10 
REMARK    5  A    between atoms: C_19  and  C_20 
REMARK    6  A    between atoms: C_22  and  O_23 
ROOT
HETATM    1  C   UNL     1     -43.955  56.033 -52.611  1.00  0.00     0.156 A 
HETATM    2  N   UNL     1     -44.618  57.314 -52.309  1.00  0.00    -0.343 N 
HETATM    3  C   UNL     1     -43.927  58.119 -51.409  1.00  0.00     0.271 A 
HETATM    4  O   UNL     1     -44.252  59.214 -50.993  1.00  0.00    -0.266 OA
HETATM    5  C   UNL     1     -42.768  57.365 -51.120  1.00  0.00     0.128 A 
HETATM    6  C   UNL     1     -42.734  56.178 -51.792  1.00  0.00     0.034 A 
HETATM    7  N   UNL     1     -41.643  57.462 -50.398  1.00  0.00    -0.272 N 
HETATM    8  H   UNL     1     -41.334  58.211 -49.786  1.00  0.00     0.189 HD
HETATM    9  N   UNL     1     -40.848  56.378 -50.573  1.00  0.00    -0.173 NA
HETATM   10  C   UNL     1     -41.519  55.571 -51.434  1.00  0.00     0.098 A 
HETATM   11  H   UNL     1     -45.486  57.616 -52.724  1.00  0.00     0.163 HD
ENDROOT
BRANCH   1  12
HETATM   12  C   UNL     1     -43.576  55.896 -54.064  1.00  0.00    -0.028 A 
HETATM   13  C   UNL     1     -43.527  54.655 -54.729  1.00  0.00     0.012 A 
HETATM   14  C   UNL     1     -43.134  54.567 -56.068  1.00  0.00     0.040 A 
HETATM   15  C   UNL     1     -42.778  55.720 -56.753  1.00  0.00     0.099 A 
HETATM   16  C   UNL     1     -42.849  56.960 -56.125  1.00  0.00     0.102 A 
HETATM   17  C   UNL     1     -43.220  57.050 -54.784  1.00  0.00     0.049 A 
BRANCH  15  18
HETATM   18  O   UNL     1     -42.336  55.603 -58.038  1.00  0.00    -0.358 OA
HETATM   19  H   UNL     1     -42.361  54.650 -58.243  1.00  0.00     0.218 HD
ENDBRANCH  15  18
BRANCH  16  20
HETATM   20  O   UNL     1     -42.498  58.105 -56.788  1.00  0.00    -0.349 OA
BRANCH  20  21
HETATM   21  C   UNL     1     -43.582  59.047 -56.778  1.00  0.00     0.171 C 
HETATM   22  C   UNL     1     -44.461  58.764 -57.982  1.00  0.00     0.034 C 
ENDBRANCH  20  21
ENDBRANCH  16  20
ENDBRANCH   1  12
BRANCH  10  23
HETATM   23  C   UNL     1     -40.954  54.298 -51.880  1.00  0.00    -0.002 A 
HETATM   24  C   UNL     1     -40.748  53.262 -50.952  1.00  0.00     0.050 A 
HETATM   25  C   UNL     1     -40.190  52.046 -51.350  1.00  0.00     0.069 A 
HETATM   26  C   UNL     1     -39.835  51.863 -52.688  1.00  0.00     0.037 A 
HETATM   27  C   UNL     1     -40.043  52.876 -53.622  1.00  0.00     0.004 A 
HETATM   28  C   UNL     1     -40.605  54.089 -53.221  1.00  0.00     0.014 A 
BRANCH  25  29
HETATM   29  O   UNL     1     -39.940  50.973 -50.539  1.00  0.00    -0.356 OA
HETATM   30  C   UNL     1     -39.493  49.781 -51.175  1.00  0.00     0.210 C 
ENDBRANCH  25  29
ENDBRANCH  10  23
TORSDOF 6
ENDMDL
MODEL 3
REMARK VINA RESULT:      -7.4      2.813      6.553
REMARK  6 active torsions:
REMARK  status: ('A' for Active; 'I' for Inactive)
REMARK    1  A    between atoms: C_2  and  O_3 
REMARK    2  A    between atoms: O_3  and  C_4 
REMARK    3  A    between atoms: C_5  and  O_6 
REMARK    4  A    between atoms: C_9  and  C_10 
REMARK    5  A    between atoms: C_19  and  C_20 
REMARK    6  A    between atoms: C_22  and  O_23 
ROOT
HETATM    1  C   UNL     1     -44.187  56.529 -53.671  1.00  0.00     0.156 A 
HETATM    2  N   UNL     1     -45.000  57.552 -52.990  1.00  0.00    -0.343 N 
HETATM    3  C   UNL     1     -44.583  57.849 -51.697  1.00  0.00     0.271 A 
HETATM    4  O   UNL     1     -45.077  58.647 -50.924  1.00  0.00    -0.266 OA
HETATM    5  C   UNL     1     -43.454  57.020 -51.519  1.00  0.00     0.128 A 
HETATM    6  C   UNL     1     -43.182  56.262 -52.620  1.00  0.00     0.034 A 
HETATM    7  N   UNL     1     -42.520  56.755 -50.595  1.00  0.00    -0.272 N 
HETATM    8  H   UNL     1     -42.409  57.141 -49.662  1.00  0.00     0.189 HD
HETATM    9  N   UNL     1     -41.620  55.848 -51.048  1.00  0.00    -0.173 NA
HETATM   10  C   UNL     1     -42.026  55.531 -52.304  1.00  0.00     0.098 A 
HETATM   11  H   UNL     1     -45.783  58.029 -53.412  1.00  0.00     0.163 HD
ENDROOT
BRANCH   1  12
HETATM   12  C   UNL     1     -43.498  57.052 -54.906  1.00  0.00    -0.028 A 
HETATM   13  C   UNL     1     -42.915  58.334 -54.973  1.00  0.00     0.012 A 
HETATM   14  C   UNL     1     -42.319  58.795 -56.150  1.00  0.00     0.040 A 
HETATM   15  C   UNL     1     -42.306  57.983 -57.275  1.00  0.00     0.099 A 
HETATM   16  C   UNL     1     -42.847  56.701 -57.221  1.00  0.00     0.102 A 
HETATM   17  C   UNL     1     -43.462  56.245 -56.057  1.00  0.00     0.049 A 
BRANCH  15  18
HETATM   18  O   UNL     1     -41.776  58.479 -58.430  1.00  0.00    -0.358 OA
HETATM   19  H   UNL     1     -41.927  57.794 -59.108  1.00  0.00     0.218 HD
ENDBRANCH  15  18
BRANCH  16  20
HETATM   20  O   UNL     1     -42.844  55.891 -58.325  1.00  0.00    -0.349 OA
BRANCH  20  21
HETATM   21  C   UNL     1     -44.099  55.976 -59.017  1.00  0.00     0.171 C 
HETATM   22  C   UNL     1     -44.369  54.631 -59.665  1.00  0.00     0.034 C 
ENDBRANCH  20  21
ENDBRANCH  16  20
ENDBRANCH   1  12
BRANCH  10  23
HETATM   23  C   UNL     1     -41.277  54.581 -53.128  1.00  0.00    -0.002 A 
HETATM   24  C   UNL     1     -41.035  53.281 -52.650  1.00  0.00     0.050 A 
HETATM   25  C   UNL     1     -40.304  52.366 -53.409  1.00  0.00     0.069 A 
HETATM   26  C   UNL     1     -39.812  52.751 -54.657  1.00  0.00     0.037 A 
HETATM   27  C   UNL     1     -40.054  54.032 -55.151  1.00  0.00     0.004 A 
HETATM   28  C   UNL     1     -40.787  54.944 -54.390  1.00  0.00     0.014 A 
BRANCH  25  29
HETATM   29  O   UNL     1     -40.003  51.081 -53.046  1.00  0.00    -0.356 OA
HETATM   30  C   UNL     1     -39.899  50.128 -54.097  1.00  0.00     0.210 C 
ENDBRANCH  25  29
ENDBRANCH  10  23
TORSDOF 6
ENDMDL
MODEL 4
REMARK VINA RESULT:      -7.3      1.510      5.166
REMARK  6 active torsions:
REMARK  status: ('A' for Active; 'I' for Inactive)
REMARK    1  A    between atoms: C_2  and  O_3 
REMARK    2  A    between atoms: O_3  and  C_4 
REMARK    3  A    between atoms: C_5  and  O_6 
REMARK    4  A    between atoms: C_9  and  C_10 
REMARK    5  A    between atoms: C_19  and  C_20 
REMARK    6  A    between atoms: C_22  and  O_23 
ROOT
HETATM    1  C   UNL     1     -41.843  57.213 -55.026  1.00  0.00     0.156 A 
HETATM    2  N   UNL     1     -42.380  57.858 -56.238  1.00  0.00    -0.343 N 
HETATM    3  C   UNL     1     -43.096  57.006 -57.072  1.00  0.00     0.271 A 
HETATM    4  O   UNL     1     -43.636  57.282 -58.125  1.00  0.00    -0.266 OA
HETATM    5  C   UNL     1     -43.053  55.770 -56.390  1.00  0.00     0.128 A 
HETATM    6  C   UNL     1     -42.364  55.843 -55.215  1.00  0.00     0.034 A 
HETATM    7  N   UNL     1     -43.514  54.518 -56.521  1.00  0.00    -0.272 N 
HETATM    8  H   UNL     1     -44.070  54.111 -57.267  1.00  0.00     0.189 HD
HETATM    9  N   UNL     1     -43.162  53.749 -55.461  1.00  0.00    -0.173 NA
HETATM   10  C   UNL     1     -42.443  54.562 -54.646  1.00  0.00     0.098 A 
HETATM   11  H   UNL     1     -42.271  58.837 -56.456  1.00  0.00     0.163 HD
ENDROOT
BRANCH   1  12
HETATM   12  C   UNL     1     -42.405  57.795 -53.754  1.00  0.00    -0.028 A 
HETATM   13  C   UNL     1     -43.787  57.854 -53.483  1.00  0.00     0.012 A 
HETATM   14  C   UNL     1     -44.268  58.436 -52.307  1.00  0.00     0.040 A 
HETATM   15  C   UNL     1     -43.373  58.972 -51.393  1.00  0.00     0.099 A 
HETATM   16  C   UNL     1     -42.003  58.896 -51.624  1.00  0.00     0.102 A 
HETATM   17  C   UNL     1     -41.518  58.336 -52.805  1.00  0.00     0.049 A 
BRANCH  15  18
HETATM   18  O   UNL     1     -43.869  59.592 -50.283  1.00  0.00    -0.358 OA
HETATM   19  H   UNL     1     -43.156  60.174 -49.962  1.00  0.00     0.218 HD
ENDBRANCH  15  18
BRANCH  16  20
HETATM   20  O   UNL     1     -41.109  59.423 -50.731  1.00  0.00    -0.349 OA
BRANCH  20  21
HETATM   21  C   UNL     1     -39.762  59.128 -51.133  1.00  0.00     0.171 C 
HETATM   22  C   UNL     1     -38.822  59.847 -50.183  1.00  0.00     0.034 C 
ENDBRANCH  20  21
ENDBRANCH  16  20
ENDBRANCH   1  12
BRANCH  10  23
HETATM   23  C   UNL     1     -41.905  54.080 -53.373  1.00  0.00    -0.002 A 
HETATM   24  C   UNL     1     -40.804  53.205 -53.367  1.00  0.00     0.050 A 
HETATM   25  C   UNL     1     -40.288  52.715 -52.167  1.00  0.00     0.069 A 
HETATM   26  C   UNL     1     -40.875  53.103 -50.961  1.00  0.00     0.037 A 
HETATM   27  C   UNL     1     -41.960  53.979 -50.950  1.00  0.00     0.004 A 
HETATM   28  C   UNL     1     -42.471  54.469 -52.152  1.00  0.00     0.014 A 
BRANCH  25  29
HETATM   29  O   UNL     1     -39.228  51.859 -52.038  1.00  0.00    -0.356 OA
HETATM   30  C   UNL     1     -39.504  50.581 -51.476  1.00  0.00     0.210 C 
ENDBRANCH  25  29
ENDBRANCH  10  23
TORSDOF 6
ENDMDL
MODEL 5
REMARK VINA RESULT:      -7.1      1.763      2.781
REMARK  6 active torsions:
REMARK  status: ('A' for Active; 'I' for Inactive)
REMARK    1  A    between atoms: C_2  and  O_3 
REMARK    2  A    between atoms: O_3  and  C_4 
REMARK    3  A    between atoms: C_5  and  O_6 
REMARK    4  A    between atoms: C_9  and  C_10 
REMARK    5  A    between atoms: C_19  and  C_20 
REMARK    6  A    between atoms: C_22  and  O_23 
ROOT
HETATM    1  C   UNL     1     -43.280  56.049 -54.362  1.00  0.00     0.156 A 
HETATM    2  N   UNL     1     -43.533  55.443 -55.682  1.00  0.00    -0.343 N 
HETATM    3  C   UNL     1     -43.147  56.234 -56.759  1.00  0.00     0.271 A 
HETATM    4  O   UNL     1     -43.245  55.973 -57.942  1.00  0.00    -0.266 OA
HETATM    5  C   UNL     1     -42.606  57.384 -56.143  1.00  0.00     0.128 A 
HETATM    6  C   UNL     1     -42.648  57.317 -54.781  1.00  0.00     0.034 A 
HETATM    7  N   UNL     1     -42.021  58.541 -56.481  1.00  0.00    -0.272 N 
HETATM    8  H   UNL     1     -41.819  58.915 -57.404  1.00  0.00     0.189 HD
HETATM    9  N   UNL     1     -41.657  59.250 -55.384  1.00  0.00    -0.173 NA
HETATM   10  C   UNL     1     -42.048  58.501 -54.322  1.00  0.00     0.098 A 
HETATM   11  H   UNL     1     -43.929  54.526 -55.819  1.00  0.00     0.163 HD
ENDROOT
BRANCH   1  12
HETATM   12  C   UNL     1     -42.311  55.253 -53.526  1.00  0.00    -0.028 A 
HETATM   13  C   UNL     1     -42.116  55.485 -52.150  1.00  0.00     0.012 A 
HETATM   14  C   UNL     1     -41.179  54.748 -51.418  1.00  0.00     0.040 A 
HETATM   15  C   UNL     1     -40.422  53.779 -52.058  1.00  0.00     0.099 A 
HETATM   16  C   UNL     1     -40.620  53.511 -53.409  1.00  0.00     0.102 A 
HETATM   17  C   UNL     1     -41.537  54.256 -54.148  1.00  0.00     0.049 A 
BRANCH  15  18
HETATM   18  O   UNL     1     -39.469  53.117 -51.339  1.00  0.00    -0.358 OA
HETATM   19  H   UNL     1     -39.212  53.722 -50.618  1.00  0.00     0.218 HD
ENDBRANCH  15  18
BRANCH  16  20
HETATM   20  O   UNL     1     -39.877  52.558 -54.053  1.00  0.00    -0.349 OA
BRANCH  20  21
HETATM   21  C   UNL     1     -40.683  51.407 -54.353  1.00  0.00     0.171 C 
HETATM   22  C   UNL     1     -39.854  50.168 -54.069  1.00  0.00     0.034 C 
ENDBRANCH  20  21
ENDBRANCH  16  20
ENDBRANCH   1  12
BRANCH  10  23
HETATM   23  C   UNL     1     -41.800  58.942 -52.949  1.00  0.00    -0.002 A 
HETATM   24  C   UNL     1     -42.828  59.566 -52.220  1.00  0.00     0.050 A 
HETATM   25  C   UNL     1     -42.609  60.014 -50.917  1.00  0.00     0.069 A 
HETATM   26  C   UNL     1     -41.352  59.836 -50.335  1.00  0.00     0.037 A 
HETATM   27  C   UNL     1     -40.327  59.207 -51.040  1.00  0.00     0.004 A 
HETATM   28  C   UNL     1     -40.551  58.758 -52.342  1.00  0.00     0.014 A 
BRANCH  25  29
HETATM   29  O   UNL     1     -43.527  60.638 -50.117  1.00  0.00    -0.356 OA
HETATM   30  C   UNL     1     -43.673  62.043 -50.286  1.00  0.00     0.210 C 
ENDBRANCH  25  29
ENDBRANCH  10  23
TORSDOF 6
ENDMDL
MODEL 6
REMARK VINA RESULT:      -7.0      2.760      5.145
REMARK  6 active torsions:
REMARK  status: ('A' for Active; 'I' for Inactive)
REMARK    1  A    between atoms: C_2  and  O_3 
REMARK    2  A    between atoms: O_3  and  C_4 
REMARK    3  A    between atoms: C_5  and  O_6 
REMARK    4  A    between atoms: C_9  and  C_10 
REMARK    5  A    between atoms: C_19  and  C_20 
REMARK    6  A    between atoms: C_22  and  O_23 
ROOT
HETATM    1  C   UNL     1     -40.050  53.912 -52.487  1.00  0.00     0.156 A 
HETATM    2  N   UNL     1     -39.680  52.491 -52.354  1.00  0.00    -0.343 N 
HETATM    3  C   UNL     1     -40.032  51.918 -51.136  1.00  0.00     0.271 A 
HETATM    4  O   UNL     1     -39.841  50.774 -50.774  1.00  0.00    -0.266 OA
HETATM    5  C   UNL     1     -40.667  52.976 -50.450  1.00  0.00     0.128 A 
HETATM    6  C   UNL     1     -40.714  54.124 -51.184  1.00  0.00     0.034 A 
HETATM    7  N   UNL     1     -41.285  53.207 -49.282  1.00  0.00    -0.272 N 
HETATM    8  H   UNL     1     -41.442  52.577 -48.501  1.00  0.00     0.189 HD
HETATM    9  N   UNL     1     -41.755  54.477 -49.215  1.00  0.00    -0.173 NA
HETATM   10  C   UNL     1     -41.401  55.057 -50.390  1.00  0.00     0.098 A 
HETATM   11  H   UNL     1     -39.232  51.951 -53.079  1.00  0.00     0.163 HD
ENDROOT
BRANCH   1  12
HETATM   12  C   UNL     1     -41.034  54.161 -53.601  1.00  0.00    -0.028 A 
HETATM   13  C   UNL     1     -41.923  53.175 -54.073  1.00  0.00     0.012 A 
HETATM   14  C   UNL     1     -42.795  53.436 -55.134  1.00  0.00     0.040 A 
HETATM   15  C   UNL     1     -42.780  54.683 -55.741  1.00  0.00     0.099 A 
HETATM   16  C   UNL     1     -41.933  55.682 -55.271  1.00  0.00     0.102 A 
HETATM   17  C   UNL     1     -41.047  55.421 -54.227  1.00  0.00     0.049 A 
BRANCH  15  18
HETATM   18  O   UNL     1     -43.593  54.894 -56.816  1.00  0.00    -0.358 OA
HETATM   19  H   UNL     1     -44.460  55.147 -56.449  1.00  0.00     0.218 HD
ENDBRANCH  15  18
BRANCH  16  20
HETATM   20  O   UNL     1     -41.906  56.917 -55.862  1.00  0.00    -0.349 OA
BRANCH  20  21
HETATM   21  C   UNL     1     -42.278  57.935 -54.920  1.00  0.00     0.171 C 
HETATM   22  C   UNL     1     -43.761  58.209 -55.088  1.00  0.00     0.034 C 
ENDBRANCH  20  21
ENDBRANCH  16  20
ENDBRANCH   1  12
BRANCH  10  23
HETATM   23  C   UNL     1     -41.761  56.443 -50.692  1.00  0.00    -0.002 A 
HETATM   24  C   UNL     1     -40.811  57.465 -50.517  1.00  0.00     0.050 A 
HETATM   25  C   UNL     1     -41.138  58.796 -50.778  1.00  0.00     0.069 A 
HETATM   26  C   UNL     1     -42.425  59.111 -51.219  1.00  0.00     0.037 A 
HETATM   27  C   UNL     1     -43.374  58.107 -51.410  1.00  0.00     0.004 A 
HETATM   28  C   UNL     1     -43.042  56.777 -51.151  1.00  0.00     0.014 A 
BRANCH  25  29
HETATM   29  O   UNL     1     -40.303  59.872 -50.639  1.00  0.00    -0.356 OA
HETATM   30  C   UNL     1     -38.914  59.590 -50.514  1.00  0.00     0.210 C 
ENDBRANCH  25  29
ENDBRANCH  10  23
TORSDOF 6
ENDMDL
MODEL 7
REMARK VINA RESULT:      -7.0      1.867      4.995
REMARK  6 active torsions:
REMARK  status: ('A' for Active; 'I' for Inactive)
REMARK    1  A    between atoms: C_2  and  O_3 
REMARK    2  A    between atoms: O_3  and  C_4 
REMARK    3  A    between atoms: C_5  and  O_6 
REMARK    4  A    between atoms: C_9  and  C_10 
REMARK    5  A    between atoms: C_19  and  C_20 
REMARK    6  A    between atoms: C_22  and  O_23 
ROOT
HETATM    1  C   UNL     1     -42.303  58.223 -55.539  1.00  0.00     0.156 A 
HETATM    2  N   UNL     1     -42.927  59.163 -56.488  1.00  0.00    -0.343 N 
HETATM    3  C   UNL     1     -43.534  58.554 -57.582  1.00  0.00     0.271 A 
HETATM    4  O   UNL     1     -44.113  59.096 -58.503  1.00  0.00    -0.266 OA
HETATM    5  C   UNL     1     -43.327  57.178 -57.347  1.00  0.00     0.128 A 
HETATM    6  C   UNL     1     -42.644  56.941 -56.190  1.00  0.00     0.034 A 
HETATM    7  N   UNL     1     -43.624  55.993 -57.900  1.00  0.00    -0.272 N 
HETATM    8  H   UNL     1     -44.129  55.792 -58.758  1.00  0.00     0.189 HD
HETATM    9  N   UNL     1     -43.168  54.965 -57.142  1.00  0.00    -0.173 NA
HETATM   10  C   UNL     1     -42.553  55.544 -56.080  1.00  0.00     0.098 A 
HETATM   11  H   UNL     1     -42.947  60.164 -56.366  1.00  0.00     0.163 HD
ENDROOT
BRANCH   1  12
HETATM   12  C   UNL     1     -42.925  58.274 -54.167  1.00  0.00    -0.028 A 
HETATM   13  C   UNL     1     -44.259  57.895 -53.916  1.00  0.00     0.012 A 
HETATM   14  C   UNL     1     -44.809  57.993 -52.635  1.00  0.00     0.040 A 
HETATM   15  C   UNL     1     -44.033  58.478 -51.592  1.00  0.00     0.099 A 
HETATM   16  C   UNL     1     -42.703  58.828 -51.811  1.00  0.00     0.102 A 
HETATM   17  C   UNL     1     -42.157  58.753 -53.090  1.00  0.00     0.049 A 
BRANCH  15  18
HETATM   18  O   UNL     1     -44.610  58.625 -50.365  1.00  0.00    -0.358 OA
HETATM   19  H   UNL     1     -44.971  57.749 -50.133  1.00  0.00     0.218 HD
ENDBRANCH  15  18
BRANCH  16  20
HETATM   20  O   UNL     1     -41.928  59.311 -50.791  1.00  0.00    -0.349 OA
BRANCH  20  21
HETATM   21  C   UNL     1     -40.725  58.536 -50.662  1.00  0.00     0.171 C 
HETATM   22  C   UNL     1     -39.560  59.498 -50.524  1.00  0.00     0.034 C 
ENDBRANCH  20  21
ENDBRANCH  16  20
ENDBRANCH   1  12
BRANCH  10  23
HETATM   23  C   UNL     1     -41.948  54.736 -55.020  1.00  0.00    -0.002 A 
HETATM   24  C   UNL     1     -42.596  54.615 -53.778  1.00  0.00     0.050 A 
HETATM   25  C   UNL     1     -42.028  53.868 -52.745  1.00  0.00     0.069 A 
HETATM   26  C   UNL     1     -40.802  53.235 -52.954  1.00  0.00     0.037 A 
HETATM   27  C   UNL     1     -40.152  53.335 -54.184  1.00  0.00     0.004 A 
HETATM   28  C   UNL     1     -40.725  54.080 -55.215  1.00  0.00     0.014 A 
BRANCH  25  29
HETATM   29  O   UNL     1     -42.562  53.685 -51.498  1.00  0.00    -0.356 OA
HETATM   30  C   UNL     1     -42.925  54.857 -50.780  1.00  0.00     0.210 C 
ENDBRANCH  25  29
ENDBRANCH  10  23
TORSDOF 6
ENDMDL
MODEL 8
REMARK VINA RESULT:      -6.9      1.898      4.929
REMARK  6 active torsions:
REMARK  status: ('A' for Active; 'I' for Inactive)
REMARK    1  A    between atoms: C_2  and  O_3 
REMARK    2  A    between atoms: O_3  and  C_4 
REMARK    3  A    between atoms: C_5  and  O_6 
REMARK    4  A    between atoms: C_9  and  C_10 
REMARK    5  A    between atoms: C_19  and  C_20 
REMARK    6  A    between atoms: C_22  and  O_23 
ROOT
HETATM    1  C   UNL     1     -41.462  56.753 -55.312  1.00  0.00     0.156 A 
HETATM    2  N   UNL     1     -42.145  57.397 -56.449  1.00  0.00    -0.343 N 
HETATM    3  C   UNL     1     -43.078  56.588 -57.089  1.00  0.00     0.271 A 
HETATM    4  O   UNL     1     -43.771  56.873 -58.047  1.00  0.00    -0.266 OA
HETATM    5  C   UNL     1     -43.031  55.386 -56.350  1.00  0.00     0.128 A 
HETATM    6  C   UNL     1     -42.137  55.439 -55.321  1.00  0.00     0.034 A 
HETATM    7  N   UNL     1     -43.626  54.185 -56.319  1.00  0.00    -0.272 N 
HETATM    8  H   UNL     1     -44.344  53.806 -56.929  1.00  0.00     0.189 HD
HETATM    9  N   UNL     1     -43.163  53.431 -55.291  1.00  0.00    -0.173 NA
HETATM   10  C   UNL     1     -42.234  54.199 -54.668  1.00  0.00     0.098 A 
HETATM   11  H   UNL     1     -41.984  58.348 -56.743  1.00  0.00     0.163 HD
ENDROOT
BRANCH   1  12
HETATM   12  C   UNL     1     -41.726  57.447 -54.000  1.00  0.00    -0.028 A 
HETATM   13  C   UNL     1     -40.702  58.009 -53.211  1.00  0.00     0.012 A 
HETATM   14  C   UNL     1     -40.985  58.611 -51.981  1.00  0.00     0.040 A 
HETATM   15  C   UNL     1     -42.293  58.651 -51.524  1.00  0.00     0.099 A 
HETATM   16  C   UNL     1     -43.325  58.131 -52.301  1.00  0.00     0.102 A 
HETATM   17  C   UNL     1     -43.046  57.510 -53.517  1.00  0.00     0.049 A 
BRANCH  15  18
HETATM   18  O   UNL     1     -42.537  59.186 -50.293  1.00  0.00    -0.358 OA
HETATM   19  H   UNL     1     -43.079  58.528 -49.819  1.00  0.00     0.218 HD
ENDBRANCH  15  18
BRANCH  16  20
HETATM   20  O   UNL     1     -44.621  58.161 -51.860  1.00  0.00    -0.349 OA
BRANCH  20  21
HETATM   21  C   UNL     1     -45.294  59.329 -52.354  1.00  0.00     0.171 C 
HETATM   22  C   UNL     1     -46.076  59.939 -51.206  1.00  0.00     0.034 C 
ENDBRANCH  20  21
ENDBRANCH  16  20
ENDBRANCH   1  12
BRANCH  10  23
HETATM   23  C   UNL     1     -41.524  53.720 -53.481  1.00  0.00    -0.002 A 
HETATM   24  C   UNL     1     -41.851  54.236 -52.215  1.00  0.00     0.050 A 
HETATM   25  C   UNL     1     -41.173  53.811 -51.073  1.00  0.00     0.069 A 
HETATM   26  C   UNL     1     -40.159  52.859 -51.194  1.00  0.00     0.037 A 
HETATM   27  C   UNL     1     -39.831  52.328 -52.441  1.00  0.00     0.004 A 
HETATM   28  C   UNL     1     -40.513  52.754 -53.581  1.00  0.00     0.014 A 
BRANCH  25  29
HETATM   29  O   UNL     1     -41.400  54.244 -49.795  1.00  0.00    -0.356 OA
HETATM   30  C   UNL     1     -41.342  55.649 -49.576  1.00  0.00     0.210 C 
ENDBRANCH  25  29
ENDBRANCH  10  23
TORSDOF 6
ENDMDL
MODEL 9
REMARK VINA RESULT:      -6.8      2.760      5.338
REMARK  6 active torsions:
REMARK  status: ('A' for Active; 'I' for Inactive)
REMARK    1  A    between atoms: C_2  and  O_3 
REMARK    2  A    between atoms: O_3  and  C_4 
REMARK    3  A    between atoms: C_5  and  O_6 
REMARK    4  A    between atoms: C_9  and  C_10 
REMARK    5  A    between atoms: C_19  and  C_20 
REMARK    6  A    between atoms: C_22  and  O_23 
ROOT
HETATM    1  C   UNL     1     -40.527  55.150 -54.340  1.00  0.00     0.156 A 
HETATM    2  N   UNL     1     -39.964  53.862 -54.783  1.00  0.00    -0.343 N 
HETATM    3  C   UNL     1     -40.134  52.820 -53.877  1.00  0.00     0.271 A 
HETATM    4  O   UNL     1     -39.766  51.667 -53.997  1.00  0.00    -0.266 OA
HETATM    5  C   UNL     1     -40.844  53.423 -52.816  1.00  0.00     0.128 A 
HETATM    6  C   UNL     1     -41.102  54.743 -53.041  1.00  0.00     0.034 A 
HETATM    7  N   UNL     1     -41.387  53.091 -51.635  1.00  0.00    -0.272 N 
HETATM    8  H   UNL     1     -41.394  52.195 -51.159  1.00  0.00     0.189 HD
HETATM    9  N   UNL     1     -42.012  54.151 -51.065  1.00  0.00    -0.173 NA
HETATM   10  C   UNL     1     -41.836  55.183 -51.928  1.00  0.00     0.098 A 
HETATM   11  H   UNL     1     -39.511  53.716 -55.672  1.00  0.00     0.163 HD
ENDROOT
BRANCH   1  12
HETATM   12  C   UNL     1     -41.624  55.653 -55.242  1.00  0.00    -0.028 A 
HETATM   13  C   UNL     1     -42.344  54.812 -56.115  1.00  0.00     0.012 A 
HETATM   14  C   UNL     1     -43.330  55.325 -56.964  1.00  0.00     0.040 A 
HETATM   15  C   UNL     1     -43.601  56.685 -56.953  1.00  0.00     0.099 A 
HETATM   16  C   UNL     1     -42.925  57.530 -56.077  1.00  0.00     0.102 A 
HETATM   17  C   UNL     1     -41.926  57.027 -55.244  1.00  0.00     0.049 A 
BRANCH  15  18
HETATM   18  O   UNL     1     -44.521  57.173 -57.835  1.00  0.00    -0.358 OA
HETATM   19  H   UNL     1     -44.056  57.253 -58.688  1.00  0.00     0.218 HD
ENDBRANCH  15  18
BRANCH  16  20
HETATM   20  O   UNL     1     -43.181  58.874 -56.059  1.00  0.00    -0.349 OA
BRANCH  20  21
HETATM   21  C   UNL     1     -43.589  59.293 -54.747  1.00  0.00     0.171 C 
HETATM   22  C   UNL     1     -45.084  59.067 -54.627  1.00  0.00     0.034 C 
ENDBRANCH  20  21
ENDBRANCH  16  20
ENDBRANCH   1  12
BRANCH  10  23
HETATM   23  C   UNL     1     -42.399  56.507 -51.655  1.00  0.00    -0.002 A 
HETATM   24  C   UNL     1     -43.782  56.647 -51.445  1.00  0.00     0.050 A 
HETATM   25  C   UNL     1     -44.345  57.901 -51.205  1.00  0.00     0.069 A 
HETATM   26  C   UNL     1     -43.519  59.026 -51.171  1.00  0.00     0.037 A 
HETATM   27  C   UNL     1     -42.144  58.902 -51.365  1.00  0.00     0.004 A 
HETATM   28  C   UNL     1     -41.585  57.645 -51.603  1.00  0.00     0.014 A 
BRANCH  25  29
HETATM   29  O   UNL     1     -45.672  58.159 -50.993  1.00  0.00    -0.356 OA
HETATM   30  C   UNL     1     -46.034  59.520 -50.788  1.00  0.00     0.210 C 
ENDBRANCH  25  29
ENDBRANCH  10  23
TORSDOF 6
ENDMDL
MODEL 10
REMARK VINA RESULT:      -6.7      1.597      2.639
REMARK  6 active torsions:
REMARK  status: ('A' for Active; 'I' for Inactive)
REMARK    1  A    between atoms: C_2  and  O_3 
REMARK    2  A    between atoms: O_3  and  C_4 
REMARK    3  A    between atoms: C_5  and  O_6 
REMARK    4  A    between atoms: C_9  and  C_10 
REMARK    5  A    between atoms: C_19  and  C_20 
REMARK    6  A    between atoms: C_22  and  O_23 
ROOT
HETATM    1  C   UNL     1     -44.164  57.334 -54.125  1.00  0.00     0.156 A 
HETATM    2  N   UNL     1     -44.694  56.902 -55.431  1.00  0.00    -0.343 N 
HETATM    3  C   UNL     1     -44.101  57.525 -56.525  1.00  0.00     0.271 A 
HETATM    4  O   UNL     1     -44.354  57.353 -57.701  1.00  0.00    -0.266 OA
HETATM    5  C   UNL     1     -43.140  58.375 -55.935  1.00  0.00     0.128 A 
HETATM    6  C   UNL     1     -43.130  58.289 -54.573  1.00  0.00     0.034 A 
HETATM    7  N   UNL     1     -42.186  59.242 -56.301  1.00  0.00    -0.272 N 
HETATM    8  H   UNL     1     -41.910  59.542 -57.232  1.00  0.00     0.189 HD
HETATM    9  N   UNL     1     -41.526  59.735 -55.224  1.00  0.00    -0.173 NA
HETATM   10  C   UNL     1     -42.109  59.153 -54.145  1.00  0.00     0.098 A 
HETATM   11  H   UNL     1     -45.409  56.201 -55.550  1.00  0.00     0.163 HD
ENDROOT
BRANCH   1  12
HETATM   12  C   UNL     1     -43.515  56.211 -53.356  1.00  0.00    -0.028 A 
HETATM   13  C   UNL     1     -43.361  56.232 -51.955  1.00  0.00     0.012 A 
HETATM   14  C   UNL     1     -42.720  55.188 -51.283  1.00  0.00     0.040 A 
HETATM   15  C   UNL     1     -42.219  54.115 -52.005  1.00  0.00     0.099 A 
HETATM   16  C   UNL     1     -42.389  54.058 -53.386  1.00  0.00     0.102 A 
HETATM   17  C   UNL     1     -43.008  55.107 -54.063  1.00  0.00     0.049 A 
BRANCH  15  18
HETATM   18  O   UNL     1     -41.541  53.138 -51.336  1.00  0.00    -0.358 OA
HETATM   19  H   UNL     1     -40.802  53.588 -50.885  1.00  0.00     0.218 HD
ENDBRANCH  15  18
BRANCH  16  20
HETATM   20  O   UNL     1     -41.897  53.006 -54.111  1.00  0.00    -0.349 OA
BRANCH  20  21
HETATM   21  C   UNL     1     -40.503  53.198 -54.397  1.00  0.00     0.171 C 
HETATM   22  C   UNL     1     -39.780  51.898 -54.099  1.00  0.00     0.034 C 
ENDBRANCH  20  21
ENDBRANCH  16  20
ENDBRANCH   1  12
BRANCH  10  23
HETATM   23  C   UNL     1     -41.641  59.431 -52.786  1.00  0.00    -0.002 A 
HETATM   24  C   UNL     1     -40.330  59.085 -52.415  1.00  0.00     0.050 A 
HETATM   25  C   UNL     1     -39.869  59.321 -51.119  1.00  0.00     0.069 A 
HETATM   26  C   UNL     1     -40.725  59.908 -50.185  1.00  0.00     0.037 A 
HETATM   27  C   UNL     1     -42.023  60.268 -50.541  1.00  0.00     0.004 A 
HETATM   28  C   UNL     1     -42.480  60.034 -51.839  1.00  0.00     0.014 A 
BRANCH  25  29
HETATM   29  O   UNL     1     -38.621  59.023 -50.643  1.00  0.00    -0.356 OA
HETATM   30  C   UNL     1     -38.025  59.976 -49.771  1.00  0.00     0.210 C 
ENDBRANCH  25  29
ENDBRANCH  10  23
TORSDOF 6
ENDMDL
