MODEL 1
REMARK VINA RESULT:      -9.1      0.000      0.000
REMARK  7 active torsions:
REMARK  status: ('A' for Active; 'I' for Inactive)
REMARK    1  A    between atoms: C_2  and  C_3 
REMARK    2  A    between atoms: C_3  and  C_4 
REMARK    3  A    between atoms: C_7  and  C_8 
REMARK    4  A    between atoms: C_14  and  C_15 
REMARK    5  A    between atoms: C_18  and  O_19 
REMARK    6  A    between atoms: O_19  and  C_20 
REMARK       I    between atoms: C_20  and  N_21 
REMARK    7  A    between atoms: C_33  and  N_34 
ROOT
HETATM    1  C   UNL     1     -43.072  59.898 -55.755  1.00  0.00     0.099 A 
HETATM    2  N   UNL     1     -42.511  61.106 -55.976  1.00  0.00    -0.172 NA
HETATM    3  N   UNL     1     -42.565  61.736 -54.790  1.00  0.00    -0.256 N 
HETATM    4  H   UNL     1     -42.206  62.682 -54.723  1.00  0.00     0.191 HD
HETATM    5  C   UNL     1     -43.112  60.974 -53.815  1.00  0.00     0.175 A 
HETATM    6  C   UNL     1     -43.455  59.775 -54.388  1.00  0.00     0.040 A 
HETATM    7  C   UNL     1     -44.084  58.718 -53.543  1.00  0.00     0.106 A 
HETATM    8  C   UNL     1     -44.293  59.219 -52.111  1.00  0.00     0.081 A 
HETATM    9  C   UNL     1     -44.990  58.348 -51.223  1.00  0.00     0.100 C 
HETATM   10  N   UNL     1     -45.563  57.646 -50.499  1.00  0.00    -0.191 NA
HETATM   11  C   UNL     1     -43.899  60.453 -51.694  1.00  0.00     0.140 A 
HETATM   12  O   UNL     1     -43.263  61.362 -52.555  1.00  0.00    -0.279 OA
ENDROOT
BRANCH   7  13
HETATM   13  C   UNL     1     -43.185  57.489 -53.612  1.00  0.00    -0.044 A 
HETATM   14  C   UNL     1     -41.806  57.538 -53.332  1.00  0.00     0.011 A 
HETATM   15  C   UNL     1     -41.022  56.383 -53.398  1.00  0.00     0.038 A 
HETATM   16  C   UNL     1     -41.619  55.165 -53.712  1.00  0.00     0.081 A 
HETATM   17  C   UNL     1     -42.981  55.087 -53.989  1.00  0.00     0.038 A 
HETATM   18  C   UNL     1     -43.760  56.242 -53.924  1.00  0.00     0.011 A 
BRANCH  16  19
HETATM   19  O   UNL     1     -40.779  54.050 -53.844  1.00  0.00    -0.261 OA
BRANCH  19  20
HETATM   20  C   UNL     1     -40.405  53.374 -52.684  1.00  0.00     0.368 C 
HETATM   21  N   UNL     1     -40.069  52.051 -52.933  1.00  0.00    -0.324 N 
HETATM   22  C   UNL     1     -39.459  51.265 -51.863  1.00  0.00     0.154 C 
HETATM   23  C   UNL     1     -39.872  51.523 -54.283  1.00  0.00     0.154 C 
HETATM   24  C   UNL     1     -39.759  49.774 -52.025  1.00  0.00     0.187 C 
HETATM   25  O   UNL     1     -39.400  49.313 -53.338  1.00  0.00    -0.388 OA
HETATM   26  C   UNL     1     -40.151  50.018 -54.337  1.00  0.00     0.187 C 
HETATM   27  O   UNL     1     -40.380  53.875 -51.564  1.00  0.00    -0.238 OA
ENDBRANCH  19  20
ENDBRANCH  16  19
ENDBRANCH   7  13
BRANCH  11  28
HETATM   28  N   UNL     1     -44.071  60.961 -50.426  1.00  0.00    -0.282 NA
HETATM   29  H   UNL     1     -44.809  61.655 -50.327  1.00  0.00     0.126 HD
HETATM   30  H   UNL     1     -44.117  60.228 -49.722  1.00  0.00     0.126 HD
ENDBRANCH  11  28
BRANCH   1  31
HETATM   31  C   UNL     1     -43.175  58.925 -56.846  1.00  0.00    -0.005 A 
HETATM   32  C   UNL     1     -42.039  58.617 -57.608  1.00  0.00     0.014 A 
HETATM   33  C   UNL     1     -42.102  57.681 -58.643  1.00  0.00     0.008 A 
HETATM   34  C   UNL     1     -43.305  57.031 -58.937  1.00  0.00    -0.058 A 
HETATM   35  C   UNL     1     -44.446  57.347 -58.188  1.00  0.00     0.008 A 
HETATM   36  C   UNL     1     -44.383  58.294 -57.159  1.00  0.00     0.014 A 
BRANCH  34  37
HETATM   37  C   UNL     1     -43.368  56.001 -60.039  1.00  0.00     0.042 C 
BRANCH  37  38
HETATM   38  C   UNL     1     -44.670  55.174 -60.042  1.00  0.00    -0.019 C 
HETATM   39  C   UNL     1     -44.488  53.804 -59.384  1.00  0.00     0.010 C 
HETATM   40  C   UNL     1     -45.159  54.990 -61.482  1.00  0.00     0.010 C 
ENDBRANCH  37  38
ENDBRANCH  34  37
ENDBRANCH   1  31
TORSDOF 7
ENDMDL
MODEL 2
REMARK VINA RESULT:      -8.7      2.828      7.359
REMARK  7 active torsions:
REMARK  status: ('A' for Active; 'I' for Inactive)
REMARK    1  A    between atoms: C_2  and  C_3 
REMARK    2  A    between atoms: C_3  and  C_4 
REMARK    3  A    between atoms: C_7  and  C_8 
REMARK    4  A    between atoms: C_14  and  C_15 
REMARK    5  A    between atoms: C_18  and  O_19 
REMARK    6  A    between atoms: O_19  and  C_20 
REMARK       I    between atoms: C_20  and  N_21 
REMARK    7  A    between atoms: C_33  and  N_34 
ROOT
HETATM    1  C   UNL     1     -43.142  54.991 -51.462  1.00  0.00     0.099 A 
HETATM    2  N   UNL     1     -44.081  54.455 -50.654  1.00  0.00    -0.172 NA
HETATM    3  N   UNL     1     -44.840  55.493 -50.266  1.00  0.00    -0.256 N 
HETATM    4  H   UNL     1     -45.612  55.324 -49.631  1.00  0.00     0.191 HD
HETATM    5  C   UNL     1     -44.443  56.666 -50.812  1.00  0.00     0.175 A 
HETATM    6  C   UNL     1     -43.350  56.394 -51.596  1.00  0.00     0.040 A 
HETATM    7  C   UNL     1     -42.691  57.509 -52.337  1.00  0.00     0.106 A 
HETATM    8  C   UNL     1     -43.368  58.846 -52.023  1.00  0.00     0.081 A 
HETATM    9  C   UNL     1     -42.767  60.014 -52.578  1.00  0.00     0.100 C 
HETATM   10  N   UNL     1     -42.277  60.968 -53.020  1.00  0.00    -0.191 NA
HETATM   11  C   UNL     1     -44.454  58.953 -51.209  1.00  0.00     0.140 A 
HETATM   12  O   UNL     1     -45.038  57.832 -50.597  1.00  0.00    -0.279 OA
ENDROOT
BRANCH   7  13
HETATM   13  C   UNL     1     -42.738  57.157 -53.819  1.00  0.00    -0.044 A 
HETATM   14  C   UNL     1     -41.591  56.805 -54.555  1.00  0.00     0.011 A 
HETATM   15  C   UNL     1     -41.684  56.478 -55.910  1.00  0.00     0.038 A 
HETATM   16  C   UNL     1     -42.930  56.470 -56.530  1.00  0.00     0.081 A 
HETATM   17  C   UNL     1     -44.082  56.809 -55.826  1.00  0.00     0.038 A 
HETATM   18  C   UNL     1     -43.986  57.136 -54.473  1.00  0.00     0.011 A 
BRANCH  16  19
HETATM   19  O   UNL     1     -42.963  56.214 -57.909  1.00  0.00    -0.261 OA
BRANCH  19  20
HETATM   20  C   UNL     1     -43.891  56.913 -58.680  1.00  0.00     0.368 C 
HETATM   21  N   UNL     1     -43.419  58.158 -59.069  1.00  0.00    -0.324 N 
HETATM   22  C   UNL     1     -44.182  58.927 -60.048  1.00  0.00     0.154 C 
HETATM   23  C   UNL     1     -42.021  58.561 -58.914  1.00  0.00     0.154 C 
HETATM   24  C   UNL     1     -43.956  60.430 -59.877  1.00  0.00     0.187 C 
HETATM   25  O   UNL     1     -42.555  60.747 -59.880  1.00  0.00    -0.388 OA
HETATM   26  C   UNL     1     -41.891  60.082 -58.796  1.00  0.00     0.187 C 
HETATM   27  O   UNL     1     -45.004  56.492 -58.980  1.00  0.00    -0.238 OA
ENDBRANCH  19  20
ENDBRANCH  16  19
ENDBRANCH   7  13
BRANCH  11  28
HETATM   28  N   UNL     1     -45.095  60.127 -50.882  1.00  0.00    -0.282 NA
HETATM   29  H   UNL     1     -45.429  60.678 -51.670  1.00  0.00     0.126 HD
HETATM   30  H   UNL     1     -45.802  59.991 -50.164  1.00  0.00     0.126 HD
ENDBRANCH  11  28
BRANCH   1  31
HETATM   31  C   UNL     1     -42.133  54.132 -52.087  1.00  0.00    -0.005 A 
HETATM   32  C   UNL     1     -41.031  53.700 -51.335  1.00  0.00     0.014 A 
HETATM   33  C   UNL     1     -40.061  52.867 -51.898  1.00  0.00     0.008 A 
HETATM   34  C   UNL     1     -40.174  52.446 -53.227  1.00  0.00    -0.058 A 
HETATM   35  C   UNL     1     -41.265  52.887 -53.986  1.00  0.00     0.008 A 
HETATM   36  C   UNL     1     -42.230  53.731 -53.423  1.00  0.00     0.014 A 
BRANCH  34  37
HETATM   37  C   UNL     1     -39.140  51.525 -53.828  1.00  0.00     0.042 C 
BRANCH  37  38
HETATM   38  C   UNL     1     -39.571  50.045 -53.859  1.00  0.00    -0.019 C 
HETATM   39  C   UNL     1     -40.917  49.848 -54.562  1.00  0.00     0.010 C 
HETATM   40  C   UNL     1     -39.655  49.502 -52.430  1.00  0.00     0.010 C 
ENDBRANCH  37  38
ENDBRANCH  34  37
ENDBRANCH   1  31
TORSDOF 7
ENDMDL
MODEL 3
REMARK VINA RESULT:      -8.6      2.789      6.495
REMARK  7 active torsions:
REMARK  status: ('A' for Active; 'I' for Inactive)
REMARK    1  A    between atoms: C_2  and  C_3 
REMARK    2  A    between atoms: C_3  and  C_4 
REMARK    3  A    between atoms: C_7  and  C_8 
REMARK    4  A    between atoms: C_14  and  C_15 
REMARK    5  A    between atoms: C_18  and  O_19 
REMARK    6  A    between atoms: O_19  and  C_20 
REMARK       I    between atoms: C_20  and  N_21 
REMARK    7  A    between atoms: C_33  and  N_34 
ROOT
HETATM    1  C   UNL     1     -44.434  58.028 -51.444  1.00  0.00     0.099 A 
HETATM    2  N   UNL     1     -45.497  57.712 -50.675  1.00  0.00    -0.172 NA
HETATM    3  N   UNL     1     -46.179  58.861 -50.534  1.00  0.00    -0.256 N 
HETATM    4  H   UNL     1     -47.023  58.863 -49.973  1.00  0.00     0.191 HD
HETATM    5  C   UNL     1     -45.612  59.892 -51.202  1.00  0.00     0.175 A 
HETATM    6  C   UNL     1     -44.481  59.404 -51.808  1.00  0.00     0.040 A 
HETATM    7  C   UNL     1     -43.641  60.325 -52.629  1.00  0.00     0.106 A 
HETATM    8  C   UNL     1     -44.204  61.749 -52.598  1.00  0.00     0.081 A 
HETATM    9  C   UNL     1     -43.434  62.756 -53.250  1.00  0.00     0.100 C 
HETATM   10  N   UNL     1     -42.807  63.580 -53.773  1.00  0.00    -0.191 NA
HETATM   11  C   UNL     1     -45.347  62.078 -51.936  1.00  0.00     0.140 A 
HETATM   12  O   UNL     1     -46.100  61.125 -51.233  1.00  0.00    -0.279 OA
ENDROOT
BRANCH   7  13
HETATM   13  C   UNL     1     -43.580  59.745 -54.038  1.00  0.00    -0.044 A 
HETATM   14  C   UNL     1     -44.733  59.398 -54.768  1.00  0.00     0.011 A 
HETATM   15  C   UNL     1     -44.630  58.880 -56.062  1.00  0.00     0.038 A 
HETATM   16  C   UNL     1     -43.374  58.737 -56.646  1.00  0.00     0.081 A 
HETATM   17  C   UNL     1     -42.219  59.077 -55.949  1.00  0.00     0.038 A 
HETATM   18  C   UNL     1     -42.324  59.593 -54.657  1.00  0.00     0.011 A 
BRANCH  16  19
HETATM   19  O   UNL     1     -43.317  58.139 -57.913  1.00  0.00    -0.261 OA
BRANCH  19  20
HETATM   20  C   UNL     1     -43.287  56.747 -57.976  1.00  0.00     0.368 C 
HETATM   21  N   UNL     1     -44.009  56.254 -59.052  1.00  0.00    -0.324 N 
HETATM   22  C   UNL     1     -43.908  54.834 -59.380  1.00  0.00     0.154 C 
HETATM   23  C   UNL     1     -44.506  57.107 -60.132  1.00  0.00     0.154 C 
HETATM   24  C   UNL     1     -45.174  54.329 -60.074  1.00  0.00     0.187 C 
HETATM   25  O   UNL     1     -45.504  55.147 -61.209  1.00  0.00    -0.388 OA
HETATM   26  C   UNL     1     -45.746  56.499 -60.796  1.00  0.00     0.187 C 
HETATM   27  O   UNL     1     -42.700  56.027 -57.174  1.00  0.00    -0.238 OA
ENDBRANCH  19  20
ENDBRANCH  16  19
ENDBRANCH   7  13
BRANCH  11  28
HETATM   28  N   UNL     1     -45.892  63.341 -51.864  1.00  0.00    -0.282 NA
HETATM   29  H   UNL     1     -45.277  64.064 -51.499  1.00  0.00     0.126 HD
HETATM   30  H   UNL     1     -46.353  63.610 -52.729  1.00  0.00     0.126 HD
ENDBRANCH  11  28
BRANCH   1  31
HETATM   31  C   UNL     1     -43.463  56.995 -51.814  1.00  0.00    -0.005 A 
HETATM   32  C   UNL     1     -42.327  56.794 -51.017  1.00  0.00     0.014 A 
HETATM   33  C   UNL     1     -41.392  55.807 -51.336  1.00  0.00     0.008 A 
HETATM   34  C   UNL     1     -41.575  54.996 -52.461  1.00  0.00    -0.058 A 
HETATM   35  C   UNL     1     -42.700  55.203 -53.268  1.00  0.00     0.008 A 
HETATM   36  C   UNL     1     -43.630  56.201 -52.954  1.00  0.00     0.014 A 
BRANCH  34  37
HETATM   37  C   UNL     1     -40.578  53.911 -52.791  1.00  0.00     0.042 C 
BRANCH  37  38
HETATM   38  C   UNL     1     -40.816  53.247 -54.162  1.00  0.00    -0.019 C 
HETATM   39  C   UNL     1     -40.350  51.789 -54.188  1.00  0.00     0.010 C 
HETATM   40  C   UNL     1     -40.085  54.038 -55.251  1.00  0.00     0.010 C 
ENDBRANCH  37  38
ENDBRANCH  34  37
ENDBRANCH   1  31
TORSDOF 7
ENDMDL
MODEL 4
REMARK VINA RESULT:      -7.9      2.899      6.048
REMARK  7 active torsions:
REMARK  status: ('A' for Active; 'I' for Inactive)
REMARK    1  A    between atoms: C_2  and  C_3 
REMARK    2  A    between atoms: C_3  and  C_4 
REMARK    3  A    between atoms: C_7  and  C_8 
REMARK    4  A    between atoms: C_14  and  C_15 
REMARK    5  A    between atoms: C_18  and  O_19 
REMARK    6  A    between atoms: O_19  and  C_20 
REMARK       I    between atoms: C_20  and  N_21 
REMARK    7  A    between atoms: C_33  and  N_34 
ROOT
HETATM    1  C   UNL     1     -44.799  58.616 -55.527  1.00  0.00     0.099 A 
HETATM    2  N   UNL     1     -46.122  58.867 -55.436  1.00  0.00    -0.172 NA
HETATM    3  N   UNL     1     -46.627  58.506 -56.628  1.00  0.00    -0.256 N 
HETATM    4  H   UNL     1     -47.620  58.623 -56.793  1.00  0.00     0.191 HD
HETATM    5  C   UNL     1     -45.688  58.009 -57.466  1.00  0.00     0.175 A 
HETATM    6  C   UNL     1     -44.489  58.058 -56.801  1.00  0.00     0.040 A 
HETATM    7  C   UNL     1     -43.257  57.565 -57.484  1.00  0.00     0.106 A 
HETATM    8  C   UNL     1     -43.570  57.118 -58.914  1.00  0.00     0.081 A 
HETATM    9  C   UNL     1     -42.460  56.729 -59.721  1.00  0.00     0.100 C 
HETATM   10  N   UNL     1     -41.560  56.420 -60.383  1.00  0.00    -0.191 NA
HETATM   11  C   UNL     1     -44.826  57.137 -59.438  1.00  0.00     0.140 A 
HETATM   12  O   UNL     1     -45.936  57.570 -58.694  1.00  0.00    -0.279 OA
ENDROOT
BRANCH   7  13
HETATM   13  C   UNL     1     -42.683  56.443 -56.627  1.00  0.00    -0.044 A 
HETATM   14  C   UNL     1     -41.531  56.605 -55.834  1.00  0.00     0.011 A 
HETATM   15  C   UNL     1     -41.046  55.551 -55.055  1.00  0.00     0.038 A 
HETATM   16  C   UNL     1     -41.730  54.339 -55.038  1.00  0.00     0.081 A 
HETATM   17  C   UNL     1     -42.874  54.153 -55.809  1.00  0.00     0.038 A 
HETATM   18  C   UNL     1     -43.354  55.206 -56.587  1.00  0.00     0.011 A 
BRANCH  16  19
HETATM   19  O   UNL     1     -41.161  53.287 -54.305  1.00  0.00    -0.261 OA
BRANCH  19  20
HETATM   20  C   UNL     1     -41.199  53.367 -52.914  1.00  0.00     0.368 C 
HETATM   21  N   UNL     1     -40.536  52.309 -52.309  1.00  0.00    -0.324 N 
HETATM   22  C   UNL     1     -40.306  52.353 -50.867  1.00  0.00     0.154 C 
HETATM   23  C   UNL     1     -39.676  51.385 -53.049  1.00  0.00     0.154 C 
HETATM   24  C   UNL     1     -40.207  50.945 -50.275  1.00  0.00     0.187 C 
HETATM   25  O   UNL     1     -39.234  50.155 -50.977  1.00  0.00    -0.388 OA
HETATM   26  C   UNL     1     -39.603  50.020 -52.357  1.00  0.00     0.187 C 
HETATM   27  O   UNL     1     -41.759  54.258 -52.283  1.00  0.00    -0.238 OA
ENDBRANCH  19  20
ENDBRANCH  16  19
ENDBRANCH   7  13
BRANCH  11  28
HETATM   28  N   UNL     1     -45.165  56.759 -60.718  1.00  0.00    -0.282 NA
HETATM   29  H   UNL     1     -45.922  57.288 -61.146  1.00  0.00     0.126 HD
HETATM   30  H   UNL     1     -44.350  56.673 -61.320  1.00  0.00     0.126 HD
ENDBRANCH  11  28
BRANCH   1  31
HETATM   31  C   UNL     1     -43.920  58.886 -54.386  1.00  0.00    -0.005 A 
HETATM   32  C   UNL     1     -42.884  59.821 -54.516  1.00  0.00     0.014 A 
HETATM   33  C   UNL     1     -42.040  60.112 -53.441  1.00  0.00     0.008 A 
HETATM   34  C   UNL     1     -42.218  59.473 -52.210  1.00  0.00    -0.058 A 
HETATM   35  C   UNL     1     -43.242  58.528 -52.080  1.00  0.00     0.008 A 
HETATM   36  C   UNL     1     -44.079  58.229 -53.161  1.00  0.00     0.014 A 
BRANCH  34  37
HETATM   37  C   UNL     1     -41.323  59.806 -51.040  1.00  0.00     0.042 C 
BRANCH  37  38
HETATM   38  C   UNL     1     -40.058  58.928 -50.956  1.00  0.00    -0.019 C 
HETATM   39  C   UNL     1     -40.324  57.596 -50.250  1.00  0.00     0.010 C 
HETATM   40  C   UNL     1     -38.953  59.688 -50.218  1.00  0.00     0.010 C 
ENDBRANCH  37  38
ENDBRANCH  34  37
ENDBRANCH   1  31
TORSDOF 7
ENDMDL
MODEL 5
REMARK VINA RESULT:      -7.9      2.870      6.239
REMARK  7 active torsions:
REMARK  status: ('A' for Active; 'I' for Inactive)
REMARK    1  A    between atoms: C_2  and  C_3 
REMARK    2  A    between atoms: C_3  and  C_4 
REMARK    3  A    between atoms: C_7  and  C_8 
REMARK    4  A    between atoms: C_14  and  C_15 
REMARK    5  A    between atoms: C_18  and  O_19 
REMARK    6  A    between atoms: O_19  and  C_20 
REMARK       I    between atoms: C_20  and  N_21 
REMARK    7  A    between atoms: C_33  and  N_34 
ROOT
HETATM    1  C   UNL     1     -44.786  59.143 -55.638  1.00  0.00     0.099 A 
HETATM    2  N   UNL     1     -46.051  59.612 -55.678  1.00  0.00    -0.172 NA
HETATM    3  N   UNL     1     -46.504  59.290 -56.901  1.00  0.00    -0.256 N 
HETATM    4  H   UNL     1     -47.445  59.562 -57.161  1.00  0.00     0.191 HD
HETATM    5  C   UNL     1     -45.592  58.612 -57.635  1.00  0.00     0.175 A 
HETATM    6  C   UNL     1     -44.464  58.489 -56.863  1.00  0.00     0.040 A 
HETATM    7  C   UNL     1     -43.277  57.773 -57.415  1.00  0.00     0.106 A 
HETATM    8  C   UNL     1     -43.535  57.325 -58.857  1.00  0.00     0.081 A 
HETATM    9  C   UNL     1     -42.440  56.726 -59.546  1.00  0.00     0.100 C 
HETATM   10  N   UNL     1     -41.550  56.245 -60.114  1.00  0.00    -0.191 NA
HETATM   11  C   UNL     1     -44.720  57.529 -59.494  1.00  0.00     0.140 A 
HETATM   12  O   UNL     1     -45.802  58.168 -58.868  1.00  0.00    -0.279 OA
ENDROOT
BRANCH   7  13
HETATM   13  C   UNL     1     -42.976  56.609 -56.480  1.00  0.00    -0.044 A 
HETATM   14  C   UNL     1     -43.579  55.344 -56.619  1.00  0.00     0.011 A 
HETATM   15  C   UNL     1     -43.265  54.301 -55.744  1.00  0.00     0.038 A 
HETATM   16  C   UNL     1     -42.318  54.507 -54.744  1.00  0.00     0.081 A 
HETATM   17  C   UNL     1     -41.702  55.745 -54.586  1.00  0.00     0.038 A 
HETATM   18  C   UNL     1     -42.020  56.785 -55.460  1.00  0.00     0.011 A 
BRANCH  16  19
HETATM   19  O   UNL     1     -42.095  53.457 -53.842  1.00  0.00    -0.261 OA
BRANCH  19  20
HETATM   20  C   UNL     1     -40.864  53.408 -53.190  1.00  0.00     0.368 C 
HETATM   21  N   UNL     1     -40.975  53.699 -51.838  1.00  0.00    -0.324 N 
HETATM   22  C   UNL     1     -39.816  53.489 -50.974  1.00  0.00     0.154 C 
HETATM   23  C   UNL     1     -42.261  53.777 -51.145  1.00  0.00     0.154 C 
HETATM   24  C   UNL     1     -39.844  54.424 -49.764  1.00  0.00     0.187 C 
HETATM   25  O   UNL     1     -41.095  54.326 -49.063  1.00  0.00    -0.388 OA
HETATM   26  C   UNL     1     -42.180  54.698 -49.924  1.00  0.00     0.187 C 
HETATM   27  O   UNL     1     -39.797  53.147 -53.736  1.00  0.00    -0.238 OA
ENDBRANCH  19  20
ENDBRANCH  16  19
ENDBRANCH   7  13
BRANCH  11  28
HETATM   28  N   UNL     1     -45.004  57.159 -60.790  1.00  0.00    -0.282 NA
HETATM   29  H   UNL     1     -45.929  57.415 -61.127  1.00  0.00     0.126 HD
HETATM   30  H   UNL     1     -44.261  57.417 -61.435  1.00  0.00     0.126 HD
ENDBRANCH  11  28
BRANCH   1  31
HETATM   31  C   UNL     1     -43.977  59.312 -54.428  1.00  0.00    -0.005 A 
HETATM   32  C   UNL     1     -42.824  60.109 -54.471  1.00  0.00     0.014 A 
HETATM   33  C   UNL     1     -42.042  60.302 -53.330  1.00  0.00     0.008 A 
HETATM   34  C   UNL     1     -42.399  59.702 -52.118  1.00  0.00    -0.058 A 
HETATM   35  C   UNL     1     -43.541  58.893 -52.074  1.00  0.00     0.008 A 
HETATM   36  C   UNL     1     -44.317  58.692 -53.222  1.00  0.00     0.014 A 
BRANCH  34  37
HETATM   37  C   UNL     1     -41.569  59.931 -50.878  1.00  0.00     0.042 C 
BRANCH  37  38
HETATM   38  C   UNL     1     -40.524  58.828 -50.617  1.00  0.00    -0.019 C 
HETATM   39  C   UNL     1     -39.090  59.343 -50.759  1.00  0.00     0.010 C 
HETATM   40  C   UNL     1     -40.750  57.665 -51.588  1.00  0.00     0.010 C 
ENDBRANCH  37  38
ENDBRANCH  34  37
ENDBRANCH   1  31
TORSDOF 7
ENDMDL
MODEL 6
REMARK VINA RESULT:      -7.9      3.298      7.437
REMARK  7 active torsions:
REMARK  status: ('A' for Active; 'I' for Inactive)
REMARK    1  A    between atoms: C_2  and  C_3 
REMARK    2  A    between atoms: C_3  and  C_4 
REMARK    3  A    between atoms: C_7  and  C_8 
REMARK    4  A    between atoms: C_14  and  C_15 
REMARK    5  A    between atoms: C_18  and  O_19 
REMARK    6  A    between atoms: O_19  and  C_20 
REMARK       I    between atoms: C_20  and  N_21 
REMARK    7  A    between atoms: C_33  and  N_34 
ROOT
HETATM    1  C   UNL     1     -43.780  57.234 -51.863  1.00  0.00     0.099 A 
HETATM    2  N   UNL     1     -44.558  56.779 -50.858  1.00  0.00    -0.172 NA
HETATM    3  N   UNL     1     -45.179  57.870 -50.378  1.00  0.00    -0.256 N 
HETATM    4  H   UNL     1     -45.815  57.765 -49.595  1.00  0.00     0.191 HD
HETATM    5  C   UNL     1     -44.851  58.998 -51.049  1.00  0.00     0.175 A 
HETATM    6  C   UNL     1     -43.950  58.640 -52.020  1.00  0.00     0.040 A 
HETATM    7  C   UNL     1     -43.407  59.690 -52.932  1.00  0.00     0.106 A 
HETATM    8  C   UNL     1     -43.951  61.071 -52.555  1.00  0.00     0.081 A 
HETATM    9  C   UNL     1     -43.425  62.184 -53.275  1.00  0.00     0.100 C 
HETATM   10  N   UNL     1     -42.994  63.093 -53.852  1.00  0.00    -0.191 NA
HETATM   11  C   UNL     1     -44.845  61.265 -51.548  1.00  0.00     0.140 A 
HETATM   12  O   UNL     1     -45.341  60.201 -50.777  1.00  0.00    -0.279 OA
ENDROOT
BRANCH   7  13
HETATM   13  C   UNL     1     -43.767  59.282 -54.356  1.00  0.00    -0.044 A 
HETATM   14  C   UNL     1     -45.097  59.122 -54.788  1.00  0.00     0.011 A 
HETATM   15  C   UNL     1     -45.381  58.758 -56.107  1.00  0.00     0.038 A 
HETATM   16  C   UNL     1     -44.336  58.584 -57.010  1.00  0.00     0.081 A 
HETATM   17  C   UNL     1     -43.012  58.739 -56.611  1.00  0.00     0.038 A 
HETATM   18  C   UNL     1     -42.732  59.101 -55.294  1.00  0.00     0.011 A 
BRANCH  16  19
HETATM   19  O   UNL     1     -44.666  58.140 -58.300  1.00  0.00    -0.261 OA
BRANCH  19  20
HETATM   20  C   UNL     1     -45.451  58.974 -59.095  1.00  0.00     0.368 C 
HETATM   21  N   UNL     1     -46.369  58.263 -59.853  1.00  0.00    -0.324 N 
HETATM   22  C   UNL     1     -47.402  58.996 -60.581  1.00  0.00     0.154 C 
HETATM   23  C   UNL     1     -46.652  56.844 -59.633  1.00  0.00     0.154 C 
HETATM   24  C   UNL     1     -47.865  58.228 -61.820  1.00  0.00     0.187 C 
HETATM   25  O   UNL     1     -48.258  56.888 -61.481  1.00  0.00    -0.388 OA
HETATM   26  C   UNL     1     -47.152  56.171 -60.915  1.00  0.00     0.187 C 
HETATM   27  O   UNL     1     -45.348  60.196 -59.136  1.00  0.00    -0.238 OA
ENDBRANCH  19  20
ENDBRANCH  16  19
ENDBRANCH   7  13
BRANCH  11  28
HETATM   28  N   UNL     1     -45.358  62.482 -51.158  1.00  0.00    -0.282 NA
HETATM   29  H   UNL     1     -45.055  62.814 -50.245  1.00  0.00     0.126 HD
HETATM   30  H   UNL     1     -45.269  63.187 -51.886  1.00  0.00     0.126 HD
ENDBRANCH  11  28
BRANCH   1  31
HETATM   31  C   UNL     1     -42.954  56.301 -52.632  1.00  0.00    -0.005 A 
HETATM   32  C   UNL     1     -41.584  56.555 -52.788  1.00  0.00     0.014 A 
HETATM   33  C   UNL     1     -40.767  55.675 -53.503  1.00  0.00     0.008 A 
HETATM   34  C   UNL     1     -41.305  54.518 -54.076  1.00  0.00    -0.058 A 
HETATM   35  C   UNL     1     -42.676  54.268 -53.935  1.00  0.00     0.008 A 
HETATM   36  C   UNL     1     -43.494  55.157 -53.228  1.00  0.00     0.014 A 
BRANCH  34  37
HETATM   37  C   UNL     1     -40.419  53.553 -54.825  1.00  0.00     0.042 C 
BRANCH  37  38
HETATM   38  C   UNL     1     -39.891  52.392 -53.958  1.00  0.00    -0.019 C 
HETATM   39  C   UNL     1     -40.502  51.047 -54.356  1.00  0.00     0.010 C 
HETATM   40  C   UNL     1     -40.192  52.675 -52.483  1.00  0.00     0.010 C 
ENDBRANCH  37  38
ENDBRANCH  34  37
ENDBRANCH   1  31
TORSDOF 7
ENDMDL
MODEL 7
REMARK VINA RESULT:      -7.9      3.250      7.249
REMARK  7 active torsions:
REMARK  status: ('A' for Active; 'I' for Inactive)
REMARK    1  A    between atoms: C_2  and  C_3 
REMARK    2  A    between atoms: C_3  and  C_4 
REMARK    3  A    between atoms: C_7  and  C_8 
REMARK    4  A    between atoms: C_14  and  C_15 
REMARK    5  A    between atoms: C_18  and  O_19 
REMARK    6  A    between atoms: O_19  and  C_20 
REMARK       I    between atoms: C_20  and  N_21 
REMARK    7  A    between atoms: C_33  and  N_34 
ROOT
HETATM    1  C   UNL     1     -44.387  57.924 -51.455  1.00  0.00     0.099 A 
HETATM    2  N   UNL     1     -45.391  57.715 -50.577  1.00  0.00    -0.172 NA
HETATM    3  N   UNL     1     -46.082  58.867 -50.556  1.00  0.00    -0.256 N 
HETATM    4  H   UNL     1     -46.886  58.944 -49.943  1.00  0.00     0.191 HD
HETATM    5  C   UNL     1     -45.579  59.795 -51.402  1.00  0.00     0.175 A 
HETATM    6  C   UNL     1     -44.483  59.234 -52.009  1.00  0.00     0.040 A 
HETATM    7  C   UNL     1     -43.716  60.032 -53.010  1.00  0.00     0.106 A 
HETATM    8  C   UNL     1     -44.300  61.441 -53.145  1.00  0.00     0.081 A 
HETATM    9  C   UNL     1     -43.594  62.349 -53.987  1.00  0.00     0.100 C 
HETATM   10  N   UNL     1     -43.018  63.094 -54.664  1.00  0.00    -0.191 NA
HETATM   11  C   UNL     1     -45.402  61.854 -52.460  1.00  0.00     0.140 A 
HETATM   12  O   UNL     1     -46.090  61.007 -51.576  1.00  0.00    -0.279 OA
ENDROOT
BRANCH   7  13
HETATM   13  C   UNL     1     -43.741  59.256 -54.322  1.00  0.00    -0.044 A 
HETATM   14  C   UNL     1     -42.578  58.730 -54.917  1.00  0.00     0.011 A 
HETATM   15  C   UNL     1     -42.649  58.015 -56.115  1.00  0.00     0.038 A 
HETATM   16  C   UNL     1     -43.888  57.792 -56.708  1.00  0.00     0.081 A 
HETATM   17  C   UNL     1     -45.054  58.295 -56.139  1.00  0.00     0.038 A 
HETATM   18  C   UNL     1     -44.980  59.010 -54.944  1.00  0.00     0.011 A 
BRANCH  16  19
HETATM   19  O   UNL     1     -43.900  57.139 -57.950  1.00  0.00    -0.261 OA
BRANCH  19  20
HETATM   20  C   UNL     1     -44.656  57.704 -58.976  1.00  0.00     0.368 C 
HETATM   21  N   UNL     1     -43.925  58.614 -59.726  1.00  0.00    -0.324 N 
HETATM   22  C   UNL     1     -44.505  59.138 -60.960  1.00  0.00     0.154 C 
HETATM   23  C   UNL     1     -42.473  58.750 -59.614  1.00  0.00     0.154 C 
HETATM   24  C   UNL     1     -43.957  60.528 -61.288  1.00  0.00     0.187 C 
HETATM   25  O   UNL     1     -42.521  60.530 -61.295  1.00  0.00    -0.388 OA
HETATM   26  C   UNL     1     -42.015  60.158 -60.005  1.00  0.00     0.187 C 
HETATM   27  O   UNL     1     -45.834  57.442 -59.197  1.00  0.00    -0.238 OA
ENDBRANCH  19  20
ENDBRANCH  16  19
ENDBRANCH   7  13
BRANCH  11  28
HETATM   28  N   UNL     1     -45.963  63.110 -52.532  1.00  0.00    -0.282 NA
HETATM   29  H   UNL     1     -45.597  63.792 -51.873  1.00  0.00     0.126 HD
HETATM   30  H   UNL     1     -46.001  63.459 -53.486  1.00  0.00     0.126 HD
ENDBRANCH  11  28
BRANCH   1  31
HETATM   31  C   UNL     1     -43.425  56.857 -51.740  1.00  0.00    -0.005 A 
HETATM   32  C   UNL     1     -43.725  55.897 -52.717  1.00  0.00     0.014 A 
HETATM   33  C   UNL     1     -42.820  54.877 -53.023  1.00  0.00     0.008 A 
HETATM   34  C   UNL     1     -41.593  54.797 -52.356  1.00  0.00    -0.058 A 
HETATM   35  C   UNL     1     -41.296  55.745 -51.369  1.00  0.00     0.008 A 
HETATM   36  C   UNL     1     -42.209  56.759 -51.057  1.00  0.00     0.014 A 
BRANCH  34  37
HETATM   37  C   UNL     1     -40.604  53.711 -52.705  1.00  0.00     0.042 C 
BRANCH  37  38
HETATM   38  C   UNL     1     -40.783  53.141 -54.126  1.00  0.00    -0.019 C 
HETATM   39  C   UNL     1     -40.231  51.719 -54.253  1.00  0.00     0.010 C 
HETATM   40  C   UNL     1     -40.086  54.054 -55.139  1.00  0.00     0.010 C 
ENDBRANCH  37  38
ENDBRANCH  34  37
ENDBRANCH   1  31
TORSDOF 7
ENDMDL
MODEL 8
REMARK VINA RESULT:      -7.9      2.939      6.398
REMARK  7 active torsions:
REMARK  status: ('A' for Active; 'I' for Inactive)
REMARK    1  A    between atoms: C_2  and  C_3 
REMARK    2  A    between atoms: C_3  and  C_4 
REMARK    3  A    between atoms: C_7  and  C_8 
REMARK    4  A    between atoms: C_14  and  C_15 
REMARK    5  A    between atoms: C_18  and  O_19 
REMARK    6  A    between atoms: O_19  and  C_20 
REMARK       I    between atoms: C_20  and  N_21 
REMARK    7  A    between atoms: C_33  and  N_34 
ROOT
HETATM    1  C   UNL     1     -45.805  58.569 -56.790  1.00  0.00     0.099 A 
HETATM    2  N   UNL     1     -47.134  58.391 -56.948  1.00  0.00    -0.172 NA
HETATM    3  N   UNL     1     -47.255  57.640 -58.055  1.00  0.00    -0.256 N 
HETATM    4  H   UNL     1     -48.183  57.390 -58.377  1.00  0.00     0.191 HD
HETATM    5  C   UNL     1     -46.060  57.309 -58.597  1.00  0.00     0.175 A 
HETATM    6  C   UNL     1     -45.091  57.884 -57.814  1.00  0.00     0.040 A 
HETATM    7  C   UNL     1     -43.655  57.685 -58.170  1.00  0.00     0.106 A 
HETATM    8  C   UNL     1     -43.522  56.866 -59.457  1.00  0.00     0.081 A 
HETATM    9  C   UNL     1     -42.204  56.696 -59.974  1.00  0.00     0.100 C 
HETATM   10  N   UNL     1     -41.135  56.562 -60.404  1.00  0.00    -0.191 NA
HETATM   11  C   UNL     1     -44.594  56.365 -60.129  1.00  0.00     0.140 A 
HETATM   12  O   UNL     1     -45.911  56.562 -59.683  1.00  0.00    -0.279 OA
ENDROOT
BRANCH   7  13
HETATM   13  C   UNL     1     -42.982  57.020 -56.975  1.00  0.00    -0.044 A 
HETATM   14  C   UNL     1     -42.121  57.713 -56.103  1.00  0.00     0.011 A 
HETATM   15  C   UNL     1     -41.534  57.065 -55.013  1.00  0.00     0.038 A 
HETATM   16  C   UNL     1     -41.831  55.727 -54.769  1.00  0.00     0.081 A 
HETATM   17  C   UNL     1     -42.682  55.018 -55.612  1.00  0.00     0.038 A 
HETATM   18  C   UNL     1     -43.265  55.667 -56.700  1.00  0.00     0.011 A 
BRANCH  16  19
HETATM   19  O   UNL     1     -41.156  55.099 -53.712  1.00  0.00    -0.261 OA
BRANCH  19  20
HETATM   20  C   UNL     1     -40.475  53.914 -53.986  1.00  0.00     0.368 C 
HETATM   21  N   UNL     1     -40.382  53.093 -52.872  1.00  0.00    -0.324 N 
HETATM   22  C   UNL     1     -39.883  51.730 -53.040  1.00  0.00     0.154 C 
HETATM   23  C   UNL     1     -41.143  53.330 -51.646  1.00  0.00     0.154 C 
HETATM   24  C   UNL     1     -39.224  51.215 -51.759  1.00  0.00     0.187 C 
HETATM   25  O   UNL     1     -40.103  51.358 -50.631  1.00  0.00    -0.388 OA
HETATM   26  C   UNL     1     -40.430  52.740 -50.425  1.00  0.00     0.187 C 
HETATM   27  O   UNL     1     -39.999  53.622 -55.079  1.00  0.00    -0.238 OA
ENDBRANCH  19  20
ENDBRANCH  16  19
ENDBRANCH   7  13
BRANCH  11  28
HETATM   28  N   UNL     1     -44.536  55.633 -61.295  1.00  0.00    -0.282 NA
HETATM   29  H   UNL     1     -44.991  54.724 -61.266  1.00  0.00     0.126 HD
HETATM   30  H   UNL     1     -44.801  56.185 -62.107  1.00  0.00     0.126 HD
ENDBRANCH  11  28
BRANCH   1  31
HETATM   31  C   UNL     1     -45.298  59.347 -55.656  1.00  0.00    -0.005 A 
HETATM   32  C   UNL     1     -45.124  58.724 -54.412  1.00  0.00     0.014 A 
HETATM   33  C   UNL     1     -44.626  59.435 -53.317  1.00  0.00     0.008 A 
HETATM   34  C   UNL     1     -44.289  60.786 -53.445  1.00  0.00    -0.058 A 
HETATM   35  C   UNL     1     -44.475  61.416 -54.682  1.00  0.00     0.008 A 
HETATM   36  C   UNL     1     -44.985  60.705 -55.775  1.00  0.00     0.014 A 
BRANCH  34  37
HETATM   37  C   UNL     1     -43.726  61.548 -52.269  1.00  0.00     0.042 C 
BRANCH  37  38
HETATM   38  C   UNL     1     -43.563  60.693 -50.996  1.00  0.00    -0.019 C 
HETATM   39  C   UNL     1     -44.169  61.369 -49.764  1.00  0.00     0.010 C 
HETATM   40  C   UNL     1     -42.078  60.414 -50.750  1.00  0.00     0.010 C 
ENDBRANCH  37  38
ENDBRANCH  34  37
ENDBRANCH   1  31
TORSDOF 7
ENDMDL
MODEL 9
REMARK VINA RESULT:      -7.8      3.128      7.012
REMARK  7 active torsions:
REMARK  status: ('A' for Active; 'I' for Inactive)
REMARK    1  A    between atoms: C_2  and  C_3 
REMARK    2  A    between atoms: C_3  and  C_4 
REMARK    3  A    between atoms: C_7  and  C_8 
REMARK    4  A    between atoms: C_14  and  C_15 
REMARK    5  A    between atoms: C_18  and  O_19 
REMARK    6  A    between atoms: O_19  and  C_20 
REMARK       I    between atoms: C_20  and  N_21 
REMARK    7  A    between atoms: C_33  and  N_34 
ROOT
HETATM    1  C   UNL     1     -43.077  56.618 -58.281  1.00  0.00     0.099 A 
HETATM    2  N   UNL     1     -42.154  56.489 -59.257  1.00  0.00    -0.172 NA
HETATM    3  N   UNL     1     -42.635  57.203 -60.288  1.00  0.00    -0.256 N 
HETATM    4  H   UNL     1     -42.103  57.237 -61.150  1.00  0.00     0.191 HD
HETATM    5  C   UNL     1     -43.813  57.805 -60.004  1.00  0.00     0.175 A 
HETATM    6  C   UNL     1     -44.141  57.460 -58.717  1.00  0.00     0.040 A 
HETATM    7  C   UNL     1     -45.404  57.987 -58.121  1.00  0.00     0.106 A 
HETATM    8  C   UNL     1     -46.177  58.828 -59.141  1.00  0.00     0.081 A 
HETATM    9  C   UNL     1     -47.461  59.300 -58.738  1.00  0.00     0.100 C 
HETATM   10  N   UNL     1     -48.509  59.681 -58.419  1.00  0.00    -0.191 NA
HETATM   11  C   UNL     1     -45.716  59.076 -60.397  1.00  0.00     0.140 A 
HETATM   12  O   UNL     1     -44.484  58.578 -60.849  1.00  0.00    -0.279 OA
ENDROOT
BRANCH   7  13
HETATM   13  C   UNL     1     -45.020  58.777 -56.875  1.00  0.00    -0.044 A 
HETATM   14  C   UNL     1     -44.293  59.981 -56.931  1.00  0.00     0.011 A 
HETATM   15  C   UNL     1     -43.973  60.677 -55.763  1.00  0.00     0.038 A 
HETATM   16  C   UNL     1     -44.407  60.191 -54.533  1.00  0.00     0.081 A 
HETATM   17  C   UNL     1     -45.132  59.005 -54.448  1.00  0.00     0.038 A 
HETATM   18  C   UNL     1     -45.448  58.311 -55.616  1.00  0.00     0.011 A 
BRANCH  16  19
HETATM   19  O   UNL     1     -43.993  60.880 -53.384  1.00  0.00    -0.261 OA
BRANCH  19  20
HETATM   20  C   UNL     1     -43.836  60.151 -52.207  1.00  0.00     0.368 C 
HETATM   21  N   UNL     1     -42.577  59.574 -52.111  1.00  0.00    -0.324 N 
HETATM   22  C   UNL     1     -42.181  58.952 -50.850  1.00  0.00     0.154 C 
HETATM   23  C   UNL     1     -41.475  59.922 -53.008  1.00  0.00     0.154 C 
HETATM   24  C   UNL     1     -41.153  57.842 -51.075  1.00  0.00     0.187 C 
HETATM   25  O   UNL     1     -40.037  58.316 -51.845  1.00  0.00    -0.388 OA
HETATM   26  C   UNL     1     -40.476  58.768 -53.134  1.00  0.00     0.187 C 
HETATM   27  O   UNL     1     -44.703  60.018 -51.349  1.00  0.00    -0.238 OA
ENDBRANCH  19  20
ENDBRANCH  16  19
ENDBRANCH   7  13
BRANCH  11  28
HETATM   28  N   UNL     1     -46.372  59.813 -61.358  1.00  0.00    -0.282 NA
HETATM   29  H   UNL     1     -46.030  60.762 -61.493  1.00  0.00     0.126 HD
HETATM   30  H   UNL     1     -46.476  59.300 -62.230  1.00  0.00     0.126 HD
ENDBRANCH  11  28
BRANCH   1  31
HETATM   31  C   UNL     1     -42.872  55.967 -56.984  1.00  0.00    -0.005 A 
HETATM   32  C   UNL     1     -43.391  54.683 -56.765  1.00  0.00     0.014 A 
HETATM   33  C   UNL     1     -43.198  54.030 -55.545  1.00  0.00     0.008 A 
HETATM   34  C   UNL     1     -42.478  54.648 -54.518  1.00  0.00    -0.058 A 
HETATM   35  C   UNL     1     -41.971  55.936 -54.727  1.00  0.00     0.008 A 
HETATM   36  C   UNL     1     -42.175  56.594 -55.946  1.00  0.00     0.014 A 
BRANCH  34  37
HETATM   37  C   UNL     1     -42.245  53.932 -53.209  1.00  0.00     0.042 C 
BRANCH  37  38
HETATM   38  C   UNL     1     -40.767  53.582 -52.947  1.00  0.00    -0.019 C 
HETATM   39  C   UNL     1     -40.267  52.461 -53.861  1.00  0.00     0.010 C 
HETATM   40  C   UNL     1     -40.588  53.169 -51.483  1.00  0.00     0.010 C 
ENDBRANCH  37  38
ENDBRANCH  34  37
ENDBRANCH   1  31
TORSDOF 7
ENDMDL
MODEL 10
REMARK VINA RESULT:      -7.6      3.479      6.787
REMARK  7 active torsions:
REMARK  status: ('A' for Active; 'I' for Inactive)
REMARK    1  A    between atoms: C_2  and  C_3 
REMARK    2  A    between atoms: C_3  and  C_4 
REMARK    3  A    between atoms: C_7  and  C_8 
REMARK    4  A    between atoms: C_14  and  C_15 
REMARK    5  A    between atoms: C_18  and  O_19 
REMARK    6  A    between atoms: O_19  and  C_20 
REMARK       I    between atoms: C_20  and  N_21 
REMARK    7  A    between atoms: C_33  and  N_34 
ROOT
HETATM    1  C   UNL     1     -44.525  58.537 -51.221  1.00  0.00     0.099 A 
HETATM    2  N   UNL     1     -45.633  57.988 -50.679  1.00  0.00    -0.172 NA
HETATM    3  N   UNL     1     -46.289  59.014 -50.112  1.00  0.00    -0.256 N 
HETATM    4  H   UNL     1     -47.158  58.830 -49.625  1.00  0.00     0.191 HD
HETATM    5  C   UNL     1     -45.661  60.200 -50.290  1.00  0.00     0.175 A 
HETATM    6  C   UNL     1     -44.516  59.945 -51.003  1.00  0.00     0.040 A 
HETATM    7  C   UNL     1     -43.612  61.079 -51.358  1.00  0.00     0.106 A 
HETATM    8  C   UNL     1     -44.136  62.395 -50.776  1.00  0.00     0.081 A 
HETATM    9  C   UNL     1     -43.308  63.543 -50.944  1.00  0.00     0.100 C 
HETATM   10  N   UNL     1     -42.634  64.479 -51.070  1.00  0.00    -0.191 NA
HETATM   11  C   UNL     1     -45.300  62.483 -50.076  1.00  0.00     0.140 A 
HETATM   12  O   UNL     1     -46.113  61.363 -49.840  1.00  0.00    -0.279 OA
ENDROOT
BRANCH   7  13
HETATM   13  C   UNL     1     -43.500  61.109 -52.878  1.00  0.00    -0.044 A 
HETATM   14  C   UNL     1     -44.475  61.702 -53.701  1.00  0.00     0.011 A 
HETATM   15  C   UNL     1     -44.325  61.716 -55.091  1.00  0.00     0.038 A 
HETATM   16  C   UNL     1     -43.181  61.166 -55.662  1.00  0.00     0.081 A 
HETATM   17  C   UNL     1     -42.199  60.577 -54.872  1.00  0.00     0.038 A 
HETATM   18  C   UNL     1     -42.353  60.563 -53.486  1.00  0.00     0.011 A 
BRANCH  16  19
HETATM   19  O   UNL     1     -43.114  61.131 -57.063  1.00  0.00    -0.261 OA
BRANCH  19  20
HETATM   20  C   UNL     1     -42.250  60.208 -57.652  1.00  0.00     0.368 C 
HETATM   21  N   UNL     1     -42.919  59.084 -58.112  1.00  0.00    -0.324 N 
HETATM   22  C   UNL     1     -42.194  58.120 -58.935  1.00  0.00     0.154 C 
HETATM   23  C   UNL     1     -44.377  59.011 -58.207  1.00  0.00     0.154 C 
HETATM   24  C   UNL     1     -42.783  56.714 -58.799  1.00  0.00     0.187 C 
HETATM   25  O   UNL     1     -44.197  56.719 -59.051  1.00  0.00    -0.388 OA
HETATM   26  C   UNL     1     -44.869  57.564 -58.107  1.00  0.00     0.187 C 
HETATM   27  O   UNL     1     -41.036  60.356 -57.750  1.00  0.00    -0.238 OA
ENDBRANCH  19  20
ENDBRANCH  16  19
ENDBRANCH   7  13
BRANCH  11  28
HETATM   28  N   UNL     1     -45.813  63.634 -49.521  1.00  0.00    -0.282 NA
HETATM   29  H   UNL     1     -45.935  63.618 -48.511  1.00  0.00     0.126 HD
HETATM   30  H   UNL     1     -45.331  64.467 -49.850  1.00  0.00     0.126 HD
ENDBRANCH  11  28
BRANCH   1  31
HETATM   31  C   UNL     1     -43.566  57.697 -51.942  1.00  0.00    -0.005 A 
HETATM   32  C   UNL     1     -42.272  57.528 -51.431  1.00  0.00     0.014 A 
HETATM   33  C   UNL     1     -41.340  56.719 -52.088  1.00  0.00     0.008 A 
HETATM   34  C   UNL     1     -41.687  56.060 -53.272  1.00  0.00    -0.058 A 
HETATM   35  C   UNL     1     -42.974  56.238 -53.794  1.00  0.00     0.008 A 
HETATM   36  C   UNL     1     -43.902  57.057 -53.140  1.00  0.00     0.014 A 
BRANCH  34  37
HETATM   37  C   UNL     1     -40.690  55.165 -53.968  1.00  0.00     0.042 C 
BRANCH  37  38
HETATM   38  C   UNL     1     -40.913  53.663 -53.703  1.00  0.00    -0.019 C 
HETATM   39  C   UNL     1     -40.518  53.261 -52.280  1.00  0.00     0.010 C 
HETATM   40  C   UNL     1     -40.109  52.837 -54.711  1.00  0.00     0.010 C 
ENDBRANCH  37  38
ENDBRANCH  34  37
ENDBRANCH   1  31
TORSDOF 7
ENDMDL
