MODEL 1
REMARK VINA RESULT:      -7.8      0.000      0.000
REMARK  7 active torsions:
REMARK  status: ('A' for Active; 'I' for Inactive)
REMARK    1  A    between atoms: C_3  and  N_4 
REMARK       I    between atoms: N_4  and  C_5 
REMARK    2  A    between atoms: C_5  and  C_6 
REMARK    3  A    between atoms: C_7  and  C_8 
REMARK    4  A    between atoms: C_19  and  C_20 
REMARK    5  A    between atoms: C_20  and  C_21 
REMARK    6  A    between atoms: C_21  and  C_22 
REMARK    7  A    between atoms: C_22  and  O_23 
ROOT
HETATM    1  C   UNL     1     -42.572  55.297 -54.438  1.00  0.00     0.062 C 
HETATM    2  C   UNL     1     -43.515  56.496 -54.600  1.00  0.00     0.202 C 
HETATM    3  N   UNL     1     -43.697  56.829 -56.019  1.00  0.00    -0.083 N 
HETATM    4  C   UNL     1     -42.893  56.359 -57.019  1.00  0.00     0.726 A 
HETATM    5  N   UNL     1     -41.953  55.441 -56.730  1.00  0.00    -0.192 N 
HETATM    6  N   UNL     1     -44.600  57.717 -56.487  1.00  0.00    -0.140 NA
HETATM    7  C   UNL     1     -44.238  57.783 -57.776  1.00  0.00     0.166 A 
HETATM    8  N   UNL     1     -43.197  56.956 -58.142  1.00  0.00    -0.046 NA
HETATM    9  C   UNL     1     -41.800  54.869 -55.472  1.00  0.00     0.037 C 
HETATM   10  C   UNL     1     -40.717  53.824 -55.371  1.00  0.00     0.070 C 
HETATM   11  H   UNL     1     -41.363  55.096 -57.485  1.00  0.00     0.184 HD
ENDROOT
BRANCH   1  12
HETATM   12  C   UNL     1     -42.573  54.690 -53.071  1.00  0.00     0.256 C 
HETATM   13  N   UNL     1     -41.381  54.821 -52.398  1.00  0.00    -0.323 N 
HETATM   14  H   UNL     1     -40.570  55.019 -52.969  1.00  0.00     0.169 HD
HETATM   15  O   UNL     1     -43.529  54.020 -52.705  1.00  0.00    -0.267 OA
BRANCH  13  16
HETATM   16  C   UNL     1     -41.109  54.558 -51.034  1.00  0.00     0.041 A 
HETATM   17  C   UNL     1     -41.125  55.497 -49.984  1.00  0.00    -0.035 A 
HETATM   18  C   UNL     1     -41.386  56.970 -50.142  1.00  0.00     0.050 C 
HETATM   19  C   UNL     1     -40.836  55.056 -48.675  1.00  0.00     0.009 A 
HETATM   20  C   UNL     1     -40.481  53.734 -48.413  1.00  0.00     0.001 A 
HETATM   21  C   UNL     1     -40.408  52.825 -49.457  1.00  0.00     0.002 A 
HETATM   22  C   UNL     1     -40.715  53.236 -50.755  1.00  0.00     0.030 A 
ENDBRANCH  13  16
ENDBRANCH   1  12
BRANCH   2  23
HETATM   23  C   UNL     1     -43.041  57.751 -53.864  1.00  0.00    -0.025 A 
HETATM   24  C   UNL     1     -43.821  58.358 -52.864  1.00  0.00     0.052 A 
HETATM   25  C   UNL     1     -43.354  59.493 -52.207  1.00  0.00     0.117 A 
HETATM   26  F   UNL     1     -44.110  60.059 -51.258  1.00  0.00    -0.206 F 
HETATM   27  C   UNL     1     -42.120  60.047 -52.519  1.00  0.00     0.042 A 
HETATM   28  C   UNL     1     -41.334  59.455 -53.505  1.00  0.00     0.004 A 
HETATM   29  C   UNL     1     -41.789  58.315 -54.172  1.00  0.00     0.010 A 
ENDBRANCH   2  23
BRANCH   7  30
HETATM   30  C   UNL     1     -44.815  58.762 -58.730  1.00  0.00     0.085 C 
BRANCH  30  31
HETATM   31  C   UNL     1     -45.465  58.093 -59.945  1.00  0.00     0.034 C 
BRANCH  31  32
HETATM   32  C   UNL     1     -46.525  57.045 -59.610  1.00  0.00     0.164 C 
BRANCH  32  33
HETATM   33  O   UNL     1     -45.970  55.739 -59.580  1.00  0.00    -0.401 OA
HETATM   34  H   UNL     1     -46.691  55.138 -59.301  1.00  0.00     0.209 HD
ENDBRANCH  32  33
ENDBRANCH  31  32
ENDBRANCH  30  31
ENDBRANCH   7  30
TORSDOF 7
ENDMDL
MODEL 2
REMARK VINA RESULT:      -7.8      3.003      5.089
REMARK  7 active torsions:
REMARK  status: ('A' for Active; 'I' for Inactive)
REMARK    1  A    between atoms: C_3  and  N_4 
REMARK       I    between atoms: N_4  and  C_5 
REMARK    2  A    between atoms: C_5  and  C_6 
REMARK    3  A    between atoms: C_7  and  C_8 
REMARK    4  A    between atoms: C_19  and  C_20 
REMARK    5  A    between atoms: C_20  and  C_21 
REMARK    6  A    between atoms: C_21  and  C_22 
REMARK    7  A    between atoms: C_22  and  O_23 
ROOT
HETATM    1  C   UNL     1     -42.529  57.388 -56.509  1.00  0.00     0.062 C 
HETATM    2  C   UNL     1     -42.366  57.391 -58.035  1.00  0.00     0.202 C 
HETATM    3  N   UNL     1     -42.137  58.755 -58.532  1.00  0.00    -0.083 N 
HETATM    4  C   UNL     1     -42.367  59.882 -57.793  1.00  0.00     0.726 A 
HETATM    5  N   UNL     1     -42.701  59.761 -56.495  1.00  0.00    -0.192 N 
HETATM    6  N   UNL     1     -41.785  59.058 -59.799  1.00  0.00    -0.140 NA
HETATM    7  C   UNL     1     -41.885  60.395 -59.771  1.00  0.00     0.166 A 
HETATM    8  N   UNL     1     -42.233  60.938 -58.553  1.00  0.00    -0.046 NA
HETATM    9  C   UNL     1     -42.748  58.543 -55.826  1.00  0.00     0.037 C 
HETATM   10  C   UNL     1     -43.099  58.630 -54.361  1.00  0.00     0.070 C 
HETATM   11  H   UNL     1     -42.865  60.607 -55.955  1.00  0.00     0.184 HD
ENDROOT
BRANCH   1  12
HETATM   12  C   UNL     1     -42.451  56.032 -55.882  1.00  0.00     0.256 C 
HETATM   13  N   UNL     1     -41.242  55.758 -55.285  1.00  0.00    -0.323 N 
HETATM   14  H   UNL     1     -40.464  56.332 -55.581  1.00  0.00     0.169 HD
HETATM   15  O   UNL     1     -43.360  55.231 -56.054  1.00  0.00    -0.267 OA
BRANCH  13  16
HETATM   16  C   UNL     1     -40.909  54.680 -54.432  1.00  0.00     0.041 A 
HETATM   17  C   UNL     1     -41.000  54.667 -53.027  1.00  0.00    -0.035 A 
HETATM   18  C   UNL     1     -41.423  55.834 -52.176  1.00  0.00     0.050 C 
HETATM   19  C   UNL     1     -40.632  53.495 -52.333  1.00  0.00     0.009 A 
HETATM   20  C   UNL     1     -40.128  52.380 -53.001  1.00  0.00     0.001 A 
HETATM   21  C   UNL     1     -39.984  52.416 -54.379  1.00  0.00     0.002 A 
HETATM   22  C   UNL     1     -40.367  53.556 -55.086  1.00  0.00     0.030 A 
ENDBRANCH  13  16
ENDBRANCH   1  12
BRANCH   2  23
HETATM   23  C   UNL     1     -43.564  56.798 -58.780  1.00  0.00    -0.025 A 
HETATM   24  C   UNL     1     -44.850  57.355 -58.670  1.00  0.00     0.052 A 
HETATM   25  C   UNL     1     -45.915  56.796 -59.370  1.00  0.00     0.117 A 
HETATM   26  F   UNL     1     -47.134  57.339 -59.253  1.00  0.00    -0.206 F 
HETATM   27  C   UNL     1     -45.735  55.688 -60.187  1.00  0.00     0.042 A 
HETATM   28  C   UNL     1     -44.466  55.127 -60.310  1.00  0.00     0.004 A 
HETATM   29  C   UNL     1     -43.387  55.678 -59.613  1.00  0.00     0.010 A 
ENDBRANCH   2  23
BRANCH   7  30
HETATM   30  C   UNL     1     -41.762  61.241 -60.984  1.00  0.00     0.085 C 
BRANCH  30  31
HETATM   31  C   UNL     1     -42.603  60.723 -62.155  1.00  0.00     0.034 C 
BRANCH  31  32
HETATM   32  C   UNL     1     -44.110  60.709 -61.907  1.00  0.00     0.164 C 
BRANCH  32  33
HETATM   33  O   UNL     1     -44.550  59.433 -61.465  1.00  0.00    -0.401 OA
HETATM   34  H   UNL     1     -43.912  59.143 -60.781  1.00  0.00     0.209 HD
ENDBRANCH  32  33
ENDBRANCH  31  32
ENDBRANCH  30  31
ENDBRANCH   7  30
TORSDOF 7
ENDMDL
MODEL 3
REMARK VINA RESULT:      -7.8      2.700      4.355
REMARK  7 active torsions:
REMARK  status: ('A' for Active; 'I' for Inactive)
REMARK    1  A    between atoms: C_3  and  N_4 
REMARK       I    between atoms: N_4  and  C_5 
REMARK    2  A    between atoms: C_5  and  C_6 
REMARK    3  A    between atoms: C_7  and  C_8 
REMARK    4  A    between atoms: C_19  and  C_20 
REMARK    5  A    between atoms: C_20  and  C_21 
REMARK    6  A    between atoms: C_21  and  C_22 
REMARK    7  A    between atoms: C_22  and  O_23 
ROOT
HETATM    1  C   UNL     1     -43.353  56.281 -54.438  1.00  0.00     0.062 C 
HETATM    2  C   UNL     1     -43.683  57.270 -53.314  1.00  0.00     0.202 C 
HETATM    3  N   UNL     1     -44.365  58.457 -53.846  1.00  0.00    -0.083 N 
HETATM    4  C   UNL     1     -44.400  58.782 -55.174  1.00  0.00     0.726 A 
HETATM    5  N   UNL     1     -43.899  57.919 -56.075  1.00  0.00    -0.192 N 
HETATM    6  N   UNL     1     -44.934  59.418 -53.088  1.00  0.00    -0.140 NA
HETATM    7  C   UNL     1     -45.237  60.328 -54.024  1.00  0.00     0.166 A 
HETATM    8  N   UNL     1     -44.930  59.969 -55.320  1.00  0.00    -0.046 NA
HETATM    9  C   UNL     1     -43.413  56.659 -55.743  1.00  0.00     0.037 C 
HETATM   10  C   UNL     1     -42.940  55.827 -56.910  1.00  0.00     0.070 C 
HETATM   11  H   UNL     1     -43.935  58.171 -57.060  1.00  0.00     0.184 HD
ENDROOT
BRANCH   1  12
HETATM   12  C   UNL     1     -42.950  54.920 -53.966  1.00  0.00     0.256 C 
HETATM   13  N   UNL     1     -41.592  54.704 -53.970  1.00  0.00    -0.323 N 
HETATM   14  H   UNL     1     -41.047  55.327 -54.552  1.00  0.00     0.169 HD
HETATM   15  O   UNL     1     -43.807  54.072 -53.756  1.00  0.00    -0.267 OA
BRANCH  13  16
HETATM   16  C   UNL     1     -40.872  53.630 -53.395  1.00  0.00     0.041 A 
HETATM   17  C   UNL     1     -40.500  53.504 -52.042  1.00  0.00    -0.035 A 
HETATM   18  C   UNL     1     -40.762  54.528 -50.972  1.00  0.00     0.050 C 
HETATM   19  C   UNL     1     -39.788  52.354 -51.639  1.00  0.00     0.009 A 
HETATM   20  C   UNL     1     -39.398  51.379 -52.555  1.00  0.00     0.001 A 
HETATM   21  C   UNL     1     -39.714  51.535 -53.896  1.00  0.00     0.002 A 
HETATM   22  C   UNL     1     -40.440  52.652 -54.310  1.00  0.00     0.030 A 
ENDBRANCH  13  16
ENDBRANCH   1  12
BRANCH   2  23
HETATM   23  C   UNL     1     -42.457  57.729 -52.523  1.00  0.00    -0.025 A 
HETATM   24  C   UNL     1     -41.294  58.190 -53.166  1.00  0.00     0.052 A 
HETATM   25  C   UNL     1     -40.200  58.610 -52.415  1.00  0.00     0.117 A 
HETATM   26  F   UNL     1     -39.102  59.046 -53.044  1.00  0.00    -0.206 F 
HETATM   27  C   UNL     1     -40.230  58.586 -51.027  1.00  0.00     0.042 A 
HETATM   28  C   UNL     1     -41.375  58.136 -50.375  1.00  0.00     0.004 A 
HETATM   29  C   UNL     1     -42.482  57.712 -51.116  1.00  0.00     0.010 A 
ENDBRANCH   2  23
BRANCH   7  30
HETATM   30  C   UNL     1     -45.745  61.684 -53.701  1.00  0.00     0.085 C 
BRANCH  30  31
HETATM   31  C   UNL     1     -46.954  61.655 -52.761  1.00  0.00     0.034 C 
BRANCH  31  32
HETATM   32  C   UNL     1     -46.632  61.927 -51.292  1.00  0.00     0.164 C 
BRANCH  32  33
HETATM   33  O   UNL     1     -46.325  60.727 -50.598  1.00  0.00    -0.401 OA
HETATM   34  H   UNL     1     -45.402  60.500 -50.832  1.00  0.00     0.209 HD
ENDBRANCH  32  33
ENDBRANCH  31  32
ENDBRANCH  30  31
ENDBRANCH   7  30
TORSDOF 7
ENDMDL
MODEL 4
REMARK VINA RESULT:      -7.8      2.562      3.827
REMARK  7 active torsions:
REMARK  status: ('A' for Active; 'I' for Inactive)
REMARK    1  A    between atoms: C_3  and  N_4 
REMARK       I    between atoms: N_4  and  C_5 
REMARK    2  A    between atoms: C_5  and  C_6 
REMARK    3  A    between atoms: C_7  and  C_8 
REMARK    4  A    between atoms: C_19  and  C_20 
REMARK    5  A    between atoms: C_20  and  C_21 
REMARK    6  A    between atoms: C_21  and  C_22 
REMARK    7  A    between atoms: C_22  and  O_23 
ROOT
HETATM    1  C   UNL     1     -43.300  56.278 -54.563  1.00  0.00     0.062 C 
HETATM    2  C   UNL     1     -43.608  57.424 -53.591  1.00  0.00     0.202 C 
HETATM    3  N   UNL     1     -44.277  58.532 -54.285  1.00  0.00    -0.083 N 
HETATM    4  C   UNL     1     -44.319  58.661 -55.646  1.00  0.00     0.726 A 
HETATM    5  N   UNL     1     -43.837  57.670 -56.416  1.00  0.00    -0.192 N 
HETATM    6  N   UNL     1     -44.827  59.600 -53.670  1.00  0.00    -0.140 NA
HETATM    7  C   UNL     1     -45.125  60.369 -54.726  1.00  0.00     0.166 A 
HETATM    8  N   UNL     1     -44.835  59.822 -55.958  1.00  0.00    -0.046 NA
HETATM    9  C   UNL     1     -43.366  56.465 -55.908  1.00  0.00     0.037 C 
HETATM   10  C   UNL     1     -42.913  55.466 -56.945  1.00  0.00     0.070 C 
HETATM   11  H   UNL     1     -43.878  57.777 -57.427  1.00  0.00     0.184 HD
ENDROOT
BRANCH   1  12
HETATM   12  C   UNL     1     -42.912  54.994 -53.901  1.00  0.00     0.256 C 
HETATM   13  N   UNL     1     -41.570  54.704 -53.983  1.00  0.00    -0.323 N 
HETATM   14  H   UNL     1     -41.056  55.190 -54.706  1.00  0.00     0.169 HD
HETATM   15  O   UNL     1     -43.780  54.243 -53.478  1.00  0.00    -0.267 OA
BRANCH  13  16
HETATM   16  C   UNL     1     -40.844  53.702 -53.296  1.00  0.00     0.041 A 
HETATM   17  C   UNL     1     -40.520  53.697 -51.925  1.00  0.00    -0.035 A 
HETATM   18  C   UNL     1     -40.848  54.797 -50.953  1.00  0.00     0.050 C 
HETATM   19  C   UNL     1     -39.794  52.605 -51.403  1.00  0.00     0.009 A 
HETATM   20  C   UNL     1     -39.346  51.570 -52.221  1.00  0.00     0.001 A 
HETATM   21  C   UNL     1     -39.615  51.607 -53.581  1.00  0.00     0.002 A 
HETATM   22  C   UNL     1     -40.354  52.665 -54.112  1.00  0.00     0.030 A 
ENDBRANCH  13  16
ENDBRANCH   1  12
BRANCH   2  23
HETATM   23  C   UNL     1     -42.368  57.975 -52.883  1.00  0.00    -0.025 A 
HETATM   24  C   UNL     1     -42.331  58.144 -51.487  1.00  0.00     0.052 A 
HETATM   25  C   UNL     1     -41.183  58.638 -50.874  1.00  0.00     0.117 A 
HETATM   26  F   UNL     1     -41.165  58.794 -49.544  1.00  0.00    -0.206 F 
HETATM   27  C   UNL     1     -40.058  58.970 -51.617  1.00  0.00     0.042 A 
HETATM   28  C   UNL     1     -40.077  58.804 -53.000  1.00  0.00     0.004 A 
HETATM   29  C   UNL     1     -41.223  58.308 -53.629  1.00  0.00     0.010 A 
ENDBRANCH   2  23
BRANCH   7  30
HETATM   30  C   UNL     1     -45.612  61.765 -54.600  1.00  0.00     0.085 C 
BRANCH  30  31
HETATM   31  C   UNL     1     -44.740  62.615 -53.671  1.00  0.00     0.034 C 
BRANCH  31  32
HETATM   32  C   UNL     1     -43.302  62.815 -54.145  1.00  0.00     0.164 C 
BRANCH  32  33
HETATM   33  O   UNL     1     -42.464  61.750 -53.721  1.00  0.00    -0.401 OA
HETATM   34  H   UNL     1     -41.542  62.053 -53.856  1.00  0.00     0.209 HD
ENDBRANCH  32  33
ENDBRANCH  31  32
ENDBRANCH  30  31
ENDBRANCH   7  30
TORSDOF 7
ENDMDL
MODEL 5
REMARK VINA RESULT:      -7.7      2.506      7.882
REMARK  7 active torsions:
REMARK  status: ('A' for Active; 'I' for Inactive)
REMARK    1  A    between atoms: C_3  and  N_4 
REMARK       I    between atoms: N_4  and  C_5 
REMARK    2  A    between atoms: C_5  and  C_6 
REMARK    3  A    between atoms: C_7  and  C_8 
REMARK    4  A    between atoms: C_19  and  C_20 
REMARK    5  A    between atoms: C_20  and  C_21 
REMARK    6  A    between atoms: C_21  and  C_22 
REMARK    7  A    between atoms: C_22  and  O_23 
ROOT
HETATM    1  C   UNL     1     -42.826  57.324 -53.763  1.00  0.00     0.062 C 
HETATM    2  C   UNL     1     -42.738  55.965 -53.058  1.00  0.00     0.202 C 
HETATM    3  N   UNL     1     -42.250  56.121 -51.681  1.00  0.00    -0.083 N 
HETATM    4  C   UNL     1     -41.653  57.258 -51.211  1.00  0.00     0.726 A 
HETATM    5  N   UNL     1     -41.609  58.350 -51.995  1.00  0.00    -0.192 N 
HETATM    6  N   UNL     1     -42.232  55.137 -50.758  1.00  0.00    -0.140 NA
HETATM    7  C   UNL     1     -41.548  55.732 -49.772  1.00  0.00     0.166 A 
HETATM    8  N   UNL     1     -41.181  57.040 -50.011  1.00  0.00    -0.046 NA
HETATM    9  C   UNL     1     -42.217  58.423 -53.243  1.00  0.00     0.037 C 
HETATM   10  C   UNL     1     -42.090  59.755 -53.941  1.00  0.00     0.070 C 
HETATM   11  H   UNL     1     -41.166  59.191 -51.632  1.00  0.00     0.184 HD
ENDROOT
BRANCH   1  12
HETATM   12  C   UNL     1     -43.600  57.307 -55.043  1.00  0.00     0.256 C 
HETATM   13  N   UNL     1     -42.818  57.364 -56.173  1.00  0.00    -0.323 N 
HETATM   14  H   UNL     1     -41.876  57.710 -56.042  1.00  0.00     0.169 HD
HETATM   15  O   UNL     1     -44.820  57.388 -55.015  1.00  0.00    -0.267 OA
BRANCH  13  16
HETATM   16  C   UNL     1     -43.202  57.154 -57.518  1.00  0.00     0.041 A 
HETATM   17  C   UNL     1     -43.730  58.121 -58.397  1.00  0.00    -0.035 A 
HETATM   18  C   UNL     1     -44.028  59.550 -58.034  1.00  0.00     0.050 C 
HETATM   19  C   UNL     1     -44.051  57.736 -59.716  1.00  0.00     0.009 A 
HETATM   20  C   UNL     1     -43.914  56.418 -60.144  1.00  0.00     0.001 A 
HETATM   21  C   UNL     1     -43.451  55.455 -59.260  1.00  0.00     0.002 A 
HETATM   22  C   UNL     1     -43.103  55.821 -57.960  1.00  0.00     0.030 A 
ENDBRANCH  13  16
ENDBRANCH   1  12
BRANCH   2  23
HETATM   23  C   UNL     1     -41.838  54.959 -53.779  1.00  0.00    -0.025 A 
HETATM   24  C   UNL     1     -42.168  53.594 -53.852  1.00  0.00     0.052 A 
HETATM   25  C   UNL     1     -41.332  52.708 -54.524  1.00  0.00     0.117 A 
HETATM   26  F   UNL     1     -41.662  51.411 -54.584  1.00  0.00    -0.206 F 
HETATM   27  C   UNL     1     -40.164  53.145 -55.135  1.00  0.00     0.042 A 
HETATM   28  C   UNL     1     -39.825  54.495 -55.075  1.00  0.00     0.004 A 
HETATM   29  C   UNL     1     -40.655  55.396 -54.403  1.00  0.00     0.010 A 
ENDBRANCH   2  23
BRANCH   7  30
HETATM   30  C   UNL     1     -41.091  55.016 -48.555  1.00  0.00     0.085 C 
BRANCH  30  31
HETATM   31  C   UNL     1     -40.153  53.848 -48.873  1.00  0.00     0.034 C 
BRANCH  31  32
HETATM   32  C   UNL     1     -39.478  53.921 -50.242  1.00  0.00     0.164 C 
BRANCH  32  33
HETATM   33  O   UNL     1     -40.000  52.943 -51.130  1.00  0.00    -0.401 OA
HETATM   34  H   UNL     1     -39.238  52.593 -51.635  1.00  0.00     0.209 HD
ENDBRANCH  32  33
ENDBRANCH  31  32
ENDBRANCH  30  31
ENDBRANCH   7  30
TORSDOF 7
ENDMDL
MODEL 6
REMARK VINA RESULT:      -7.5      2.854      4.961
REMARK  7 active torsions:
REMARK  status: ('A' for Active; 'I' for Inactive)
REMARK    1  A    between atoms: C_3  and  N_4 
REMARK       I    between atoms: N_4  and  C_5 
REMARK    2  A    between atoms: C_5  and  C_6 
REMARK    3  A    between atoms: C_7  and  C_8 
REMARK    4  A    between atoms: C_19  and  C_20 
REMARK    5  A    between atoms: C_20  and  C_21 
REMARK    6  A    between atoms: C_21  and  C_22 
REMARK    7  A    between atoms: C_22  and  O_23 
ROOT
HETATM    1  C   UNL     1     -42.177  56.407 -54.178  1.00  0.00     0.062 C 
HETATM    2  C   UNL     1     -42.521  57.013 -52.811  1.00  0.00     0.202 C 
HETATM    3  N   UNL     1     -43.737  57.833 -52.894  1.00  0.00    -0.083 N 
HETATM    4  C   UNL     1     -44.286  58.260 -54.071  1.00  0.00     0.726 A 
HETATM    5  N   UNL     1     -43.777  57.816 -55.234  1.00  0.00    -0.192 N 
HETATM    6  N   UNL     1     -44.386  58.350 -51.830  1.00  0.00    -0.140 NA
HETATM    7  C   UNL     1     -45.282  59.136 -52.443  1.00  0.00     0.166 A 
HETATM    8  N   UNL     1     -45.257  59.101 -53.821  1.00  0.00    -0.046 NA
HETATM    9  C   UNL     1     -42.763  56.869 -55.315  1.00  0.00     0.037 C 
HETATM   10  C   UNL     1     -42.368  56.471 -56.716  1.00  0.00     0.070 C 
HETATM   11  H   UNL     1     -44.198  58.138 -56.103  1.00  0.00     0.184 HD
ENDROOT
BRANCH   1  12
HETATM   12  C   UNL     1     -41.153  55.318 -54.131  1.00  0.00     0.256 C 
HETATM   13  N   UNL     1     -41.452  54.304 -53.251  1.00  0.00    -0.323 N 
HETATM   14  H   UNL     1     -42.128  54.527 -52.532  1.00  0.00     0.169 HD
HETATM   15  O   UNL     1     -40.097  55.453 -54.733  1.00  0.00    -0.267 OA
BRANCH  13  16
HETATM   16  C   UNL     1     -40.823  53.043 -53.118  1.00  0.00     0.041 A 
HETATM   17  C   UNL     1     -40.091  52.588 -52.003  1.00  0.00    -0.035 A 
HETATM   18  C   UNL     1     -39.805  53.396 -50.767  1.00  0.00     0.050 C 
HETATM   19  C   UNL     1     -39.537  51.291 -52.038  1.00  0.00     0.009 A 
HETATM   20  C   UNL     1     -39.648  50.482 -53.167  1.00  0.00     0.001 A 
HETATM   21  C   UNL     1     -40.318  50.955 -54.285  1.00  0.00     0.002 A 
HETATM   22  C   UNL     1     -40.895  52.225 -54.260  1.00  0.00     0.030 A 
ENDBRANCH  13  16
ENDBRANCH   1  12
BRANCH   2  23
HETATM   23  C   UNL     1     -41.398  57.870 -52.222  1.00  0.00    -0.025 A 
HETATM   24  C   UNL     1     -41.388  58.242 -50.866  1.00  0.00     0.052 A 
HETATM   25  C   UNL     1     -40.346  59.013 -50.360  1.00  0.00     0.117 A 
HETATM   26  F   UNL     1     -40.353  59.358 -49.067  1.00  0.00    -0.206 F 
HETATM   27  C   UNL     1     -39.300  59.429 -51.174  1.00  0.00     0.042 A 
HETATM   28  C   UNL     1     -39.293  59.066 -52.519  1.00  0.00     0.004 A 
HETATM   29  C   UNL     1     -40.333  58.291 -53.040  1.00  0.00     0.010 A 
ENDBRANCH   2  23
BRANCH   7  30
HETATM   30  C   UNL     1     -46.161  60.084 -51.714  1.00  0.00     0.085 C 
BRANCH  30  31
HETATM   31  C   UNL     1     -45.910  60.080 -50.202  1.00  0.00     0.034 C 
BRANCH  31  32
HETATM   32  C   UNL     1     -44.918  61.135 -49.714  1.00  0.00     0.164 C 
BRANCH  32  33
HETATM   33  O   UNL     1     -43.602  60.608 -49.632  1.00  0.00    -0.401 OA
HETATM   34  H   UNL     1     -43.698  59.639 -49.528  1.00  0.00     0.209 HD
ENDBRANCH  32  33
ENDBRANCH  31  32
ENDBRANCH  30  31
ENDBRANCH   7  30
TORSDOF 7
ENDMDL
MODEL 7
REMARK VINA RESULT:      -7.3      2.966      7.730
REMARK  7 active torsions:
REMARK  status: ('A' for Active; 'I' for Inactive)
REMARK    1  A    between atoms: C_3  and  N_4 
REMARK       I    between atoms: N_4  and  C_5 
REMARK    2  A    between atoms: C_5  and  C_6 
REMARK    3  A    between atoms: C_7  and  C_8 
REMARK    4  A    between atoms: C_19  and  C_20 
REMARK    5  A    between atoms: C_20  and  C_21 
REMARK    6  A    between atoms: C_21  and  C_22 
REMARK    7  A    between atoms: C_22  and  O_23 
ROOT
HETATM    1  C   UNL     1     -43.166  57.726 -51.781  1.00  0.00     0.062 C 
HETATM    2  C   UNL     1     -43.162  56.194 -51.848  1.00  0.00     0.202 C 
HETATM    3  N   UNL     1     -42.331  55.627 -50.777  1.00  0.00    -0.083 N 
HETATM    4  C   UNL     1     -41.435  56.355 -50.045  1.00  0.00     0.726 A 
HETATM    5  N   UNL     1     -41.382  57.689 -50.207  1.00  0.00    -0.192 N 
HETATM    6  N   UNL     1     -42.271  54.315 -50.468  1.00  0.00    -0.140 NA
HETATM    7  C   UNL     1     -41.266  54.314 -49.581  1.00  0.00     0.166 A 
HETATM    8  N   UNL     1     -40.732  55.551 -49.289  1.00  0.00    -0.046 NA
HETATM    9  C   UNL     1     -42.254  58.397 -51.028  1.00  0.00     0.037 C 
HETATM   10  C   UNL     1     -42.056  59.893 -51.034  1.00  0.00     0.070 C 
HETATM   11  H   UNL     1     -40.714  58.220 -49.653  1.00  0.00     0.184 HD
ENDROOT
BRANCH   1  12
HETATM   12  C   UNL     1     -44.220  58.379 -52.619  1.00  0.00     0.256 C 
HETATM   13  N   UNL     1     -43.821  58.658 -53.905  1.00  0.00    -0.323 N 
HETATM   14  H   UNL     1     -42.823  58.687 -54.062  1.00  0.00     0.169 HD
HETATM   15  O   UNL     1     -45.267  58.742 -52.101  1.00  0.00    -0.267 OA
BRANCH  13  16
HETATM   16  C   UNL     1     -44.617  59.067 -55.002  1.00  0.00     0.041 A 
HETATM   17  C   UNL     1     -45.015  60.385 -55.300  1.00  0.00    -0.035 A 
HETATM   18  C   UNL     1     -44.702  61.595 -54.462  1.00  0.00     0.050 C 
HETATM   19  C   UNL     1     -45.806  60.612 -56.446  1.00  0.00     0.009 A 
HETATM   20  C   UNL     1     -46.246  59.561 -57.249  1.00  0.00     0.001 A 
HETATM   21  C   UNL     1     -45.902  58.259 -56.920  1.00  0.00     0.002 A 
HETATM   22  C   UNL     1     -45.099  58.016 -55.805  1.00  0.00     0.030 A 
ENDBRANCH  13  16
ENDBRANCH   1  12
BRANCH   2  23
HETATM   23  C   UNL     1     -42.671  55.640 -53.187  1.00  0.00    -0.025 A 
HETATM   24  C   UNL     1     -43.478  54.805 -53.980  1.00  0.00     0.052 A 
HETATM   25  C   UNL     1     -43.004  54.328 -55.198  1.00  0.00     0.117 A 
HETATM   26  F   UNL     1     -43.786  53.534 -55.941  1.00  0.00    -0.206 F 
HETATM   27  C   UNL     1     -41.736  54.662 -55.656  1.00  0.00     0.042 A 
HETATM   28  C   UNL     1     -40.926  55.492 -54.885  1.00  0.00     0.004 A 
HETATM   29  C   UNL     1     -41.390  55.979 -53.659  1.00  0.00     0.010 A 
ENDBRANCH   2  23
BRANCH   7  30
HETATM   30  C   UNL     1     -40.667  53.070 -49.037  1.00  0.00     0.085 C 
BRANCH  30  31
HETATM   31  C   UNL     1     -40.344  52.043 -50.127  1.00  0.00     0.034 C 
BRANCH  31  32
HETATM   32  C   UNL     1     -39.675  52.619 -51.375  1.00  0.00     0.164 C 
BRANCH  32  33
HETATM   33  O   UNL     1     -40.581  52.677 -52.467  1.00  0.00    -0.401 OA
HETATM   34  H   UNL     1     -40.866  53.611 -52.539  1.00  0.00     0.209 HD
ENDBRANCH  32  33
ENDBRANCH  31  32
ENDBRANCH  30  31
ENDBRANCH   7  30
TORSDOF 7
ENDMDL
MODEL 8
REMARK VINA RESULT:      -7.1      3.413      6.794
REMARK  7 active torsions:
REMARK  status: ('A' for Active; 'I' for Inactive)
REMARK    1  A    between atoms: C_3  and  N_4 
REMARK       I    between atoms: N_4  and  C_5 
REMARK    2  A    between atoms: C_5  and  C_6 
REMARK    3  A    between atoms: C_7  and  C_8 
REMARK    4  A    between atoms: C_19  and  C_20 
REMARK    5  A    between atoms: C_20  and  C_21 
REMARK    6  A    between atoms: C_21  and  C_22 
REMARK    7  A    between atoms: C_22  and  O_23 
ROOT
HETATM    1  C   UNL     1     -43.087  57.023 -51.656  1.00  0.00     0.062 C 
HETATM    2  C   UNL     1     -43.452  56.046 -52.781  1.00  0.00     0.202 C 
HETATM    3  N   UNL     1     -42.448  54.979 -52.891  1.00  0.00    -0.083 N 
HETATM    4  C   UNL     1     -41.212  55.036 -52.308  1.00  0.00     0.726 A 
HETATM    5  N   UNL     1     -40.921  56.055 -51.481  1.00  0.00    -0.192 N 
HETATM    6  N   UNL     1     -42.579  53.881 -53.664  1.00  0.00    -0.140 NA
HETATM    7  C   UNL     1     -41.355  53.348 -53.551  1.00  0.00     0.166 A 
HETATM    8  N   UNL     1     -40.488  54.026 -52.719  1.00  0.00    -0.046 NA
HETATM    9  C   UNL     1     -41.842  57.028 -51.109  1.00  0.00     0.037 C 
HETATM   10  C   UNL     1     -41.328  58.058 -50.133  1.00  0.00     0.070 C 
HETATM   11  H   UNL     1     -40.000  56.083 -51.050  1.00  0.00     0.184 HD
ENDROOT
BRANCH   1  12
HETATM   12  C   UNL     1     -44.193  57.950 -51.261  1.00  0.00     0.256 C 
HETATM   13  N   UNL     1     -43.990  59.258 -51.637  1.00  0.00    -0.323 N 
HETATM   14  H   UNL     1     -43.035  59.514 -51.849  1.00  0.00     0.169 HD
HETATM   15  O   UNL     1     -45.092  57.546 -50.537  1.00  0.00    -0.267 OA
BRANCH  13  16
HETATM   16  C   UNL     1     -44.913  60.331 -51.613  1.00  0.00     0.041 A 
HETATM   17  C   UNL     1     -45.058  61.284 -50.586  1.00  0.00    -0.035 A 
HETATM   18  C   UNL     1     -44.282  61.295 -49.297  1.00  0.00     0.050 C 
HETATM   19  C   UNL     1     -46.029  62.298 -50.733  1.00  0.00     0.009 A 
HETATM   20  C   UNL     1     -46.879  62.338 -51.836  1.00  0.00     0.001 A 
HETATM   21  C   UNL     1     -46.774  61.364 -52.817  1.00  0.00     0.002 A 
HETATM   22  C   UNL     1     -45.803  60.368 -52.703  1.00  0.00     0.030 A 
ENDBRANCH  13  16
ENDBRANCH   1  12
BRANCH   2  23
HETATM   23  C   UNL     1     -43.601  56.714 -54.149  1.00  0.00    -0.025 A 
HETATM   24  C   UNL     1     -44.857  57.110 -54.643  1.00  0.00     0.052 A 
HETATM   25  C   UNL     1     -44.955  57.725 -55.888  1.00  0.00     0.117 A 
HETATM   26  F   UNL     1     -46.159  58.095 -56.343  1.00  0.00    -0.206 F 
HETATM   27  C   UNL     1     -43.828  57.963 -56.663  1.00  0.00     0.042 A 
HETATM   28  C   UNL     1     -42.576  57.581 -56.185  1.00  0.00     0.004 A 
HETATM   29  C   UNL     1     -42.462  56.962 -54.937  1.00  0.00     0.010 A 
ENDBRANCH   2  23
BRANCH   7  30
HETATM   30  C   UNL     1     -40.899  52.187 -54.354  1.00  0.00     0.085 C 
BRANCH  30  31
HETATM   31  C   UNL     1     -39.855  51.336 -53.624  1.00  0.00     0.034 C 
BRANCH  31  32
HETATM   32  C   UNL     1     -39.852  49.856 -54.006  1.00  0.00     0.164 C 
BRANCH  32  33
HETATM   33  O   UNL     1     -39.403  49.045 -52.930  1.00  0.00    -0.401 OA
HETATM   34  H   UNL     1     -40.032  49.191 -52.193  1.00  0.00     0.209 HD
ENDBRANCH  32  33
ENDBRANCH  31  32
ENDBRANCH  30  31
ENDBRANCH   7  30
TORSDOF 7
ENDMDL
MODEL 9
REMARK VINA RESULT:      -7.0      3.147      7.601
REMARK  7 active torsions:
REMARK  status: ('A' for Active; 'I' for Inactive)
REMARK    1  A    between atoms: C_3  and  N_4 
REMARK       I    between atoms: N_4  and  C_5 
REMARK    2  A    between atoms: C_5  and  C_6 
REMARK    3  A    between atoms: C_7  and  C_8 
REMARK    4  A    between atoms: C_19  and  C_20 
REMARK    5  A    between atoms: C_20  and  C_21 
REMARK    6  A    between atoms: C_21  and  C_22 
REMARK    7  A    between atoms: C_22  and  O_23 
ROOT
HETATM    1  C   UNL     1     -42.591  57.914 -56.409  1.00  0.00     0.062 C 
HETATM    2  C   UNL     1     -41.604  57.511 -55.306  1.00  0.00     0.202 C 
HETATM    3  N   UNL     1     -41.583  56.052 -55.133  1.00  0.00    -0.083 N 
HETATM    4  C   UNL     1     -42.536  55.213 -55.640  1.00  0.00     0.726 A 
HETATM    5  N   UNL     1     -43.486  55.710 -56.452  1.00  0.00    -0.192 N 
HETATM    6  N   UNL     1     -40.695  55.385 -54.367  1.00  0.00    -0.140 NA
HETATM    7  C   UNL     1     -41.212  54.149 -54.405  1.00  0.00     0.166 A 
HETATM    8  N   UNL     1     -42.340  54.002 -55.184  1.00  0.00    -0.046 NA
HETATM    9  C   UNL     1     -43.513  57.033 -56.880  1.00  0.00     0.037 C 
HETATM   10  C   UNL     1     -44.637  57.377 -57.826  1.00  0.00     0.070 C 
HETATM   11  H   UNL     1     -44.187  55.075 -56.826  1.00  0.00     0.184 HD
ENDROOT
BRANCH   1  12
HETATM   12  C   UNL     1     -42.454  59.330 -56.873  1.00  0.00     0.256 C 
HETATM   13  N   UNL     1     -41.654  59.483 -57.981  1.00  0.00    -0.323 N 
HETATM   14  H   UNL     1     -41.019  58.720 -58.176  1.00  0.00     0.169 HD
HETATM   15  O   UNL     1     -42.914  60.238 -56.193  1.00  0.00    -0.267 OA
BRANCH  13  16
HETATM   16  C   UNL     1     -41.487  60.630 -58.792  1.00  0.00     0.041 A 
HETATM   17  C   UNL     1     -42.019  60.826 -60.081  1.00  0.00    -0.035 A 
HETATM   18  C   UNL     1     -42.822  59.813 -60.850  1.00  0.00     0.050 C 
HETATM   19  C   UNL     1     -41.758  62.044 -60.746  1.00  0.00     0.009 A 
HETATM   20  C   UNL     1     -40.944  63.023 -60.180  1.00  0.00     0.001 A 
HETATM   21  C   UNL     1     -40.373  62.803 -58.935  1.00  0.00     0.002 A 
HETATM   22  C   UNL     1     -40.640  61.617 -58.252  1.00  0.00     0.030 A 
ENDBRANCH  13  16
ENDBRANCH   1  12
BRANCH   2  23
HETATM   23  C   UNL     1     -41.903  58.155 -53.951  1.00  0.00    -0.025 A 
HETATM   24  C   UNL     1     -43.167  58.047 -53.345  1.00  0.00     0.052 A 
HETATM   25  C   UNL     1     -43.401  58.637 -52.107  1.00  0.00     0.117 A 
HETATM   26  F   UNL     1     -44.611  58.524 -51.545  1.00  0.00    -0.206 F 
HETATM   27  C   UNL     1     -42.403  59.339 -51.445  1.00  0.00     0.042 A 
HETATM   28  C   UNL     1     -41.143  59.452 -52.030  1.00  0.00     0.004 A 
HETATM   29  C   UNL     1     -40.894  58.864 -53.273  1.00  0.00     0.010 A 
ENDBRANCH   2  23
BRANCH   7  30
HETATM   30  C   UNL     1     -40.702  53.031 -53.573  1.00  0.00     0.085 C 
BRANCH  30  31
HETATM   31  C   UNL     1     -40.511  51.738 -54.372  1.00  0.00     0.034 C 
BRANCH  31  32
HETATM   32  C   UNL     1     -39.582  50.713 -53.722  1.00  0.00     0.164 C 
BRANCH  32  33
HETATM   33  O   UNL     1     -39.597  49.481 -54.428  1.00  0.00    -0.401 OA
HETATM   34  H   UNL     1     -39.376  48.786 -53.774  1.00  0.00     0.209 HD
ENDBRANCH  32  33
ENDBRANCH  31  32
ENDBRANCH  30  31
ENDBRANCH   7  30
TORSDOF 7
ENDMDL
MODEL 10
REMARK VINA RESULT:      -7.0      3.529      6.003
REMARK  7 active torsions:
REMARK  status: ('A' for Active; 'I' for Inactive)
REMARK    1  A    between atoms: C_3  and  N_4 
REMARK       I    between atoms: N_4  and  C_5 
REMARK    2  A    between atoms: C_5  and  C_6 
REMARK    3  A    between atoms: C_7  and  C_8 
REMARK    4  A    between atoms: C_19  and  C_20 
REMARK    5  A    between atoms: C_20  and  C_21 
REMARK    6  A    between atoms: C_21  and  C_22 
REMARK    7  A    between atoms: C_22  and  O_23 
ROOT
HETATM    1  C   UNL     1     -43.098  56.583 -51.484  1.00  0.00     0.062 C 
HETATM    2  C   UNL     1     -43.106  57.999 -52.072  1.00  0.00     0.202 C 
HETATM    3  N   UNL     1     -44.189  58.801 -51.489  1.00  0.00    -0.083 N 
HETATM    4  C   UNL     1     -45.232  58.269 -50.782  1.00  0.00     0.726 A 
HETATM    5  N   UNL     1     -45.224  56.958 -50.485  1.00  0.00    -0.192 N 
HETATM    6  N   UNL     1     -44.344  60.129 -51.673  1.00  0.00    -0.140 NA
HETATM    7  C   UNL     1     -45.542  60.322 -51.102  1.00  0.00     0.166 A 
HETATM    8  N   UNL     1     -46.115  59.203 -50.537  1.00  0.00    -0.046 NA
HETATM    9  C   UNL     1     -44.163  56.110 -50.783  1.00  0.00     0.037 C 
HETATM   10  C   UNL     1     -44.333  54.684 -50.321  1.00  0.00     0.070 C 
HETATM   11  H   UNL     1     -46.004  56.575 -49.955  1.00  0.00     0.184 HD
ENDROOT
BRANCH   1  12
HETATM   12  C   UNL     1     -41.857  55.799 -51.775  1.00  0.00     0.256 C 
HETATM   13  N   UNL     1     -42.091  54.502 -52.166  1.00  0.00    -0.323 N 
HETATM   14  H   UNL     1     -43.000  54.126 -51.930  1.00  0.00     0.169 HD
HETATM   15  O   UNL     1     -40.762  56.282 -51.520  1.00  0.00    -0.267 OA
BRANCH  13  16
HETATM   16  C   UNL     1     -41.175  53.571 -52.712  1.00  0.00     0.041 A 
HETATM   17  C   UNL     1     -40.901  53.373 -54.079  1.00  0.00    -0.035 A 
HETATM   18  C   UNL     1     -41.583  54.091 -55.212  1.00  0.00     0.050 C 
HETATM   19  C   UNL     1     -39.946  52.402 -54.446  1.00  0.00     0.009 A 
HETATM   20  C   UNL     1     -39.317  51.601 -53.494  1.00  0.00     0.001 A 
HETATM   21  C   UNL     1     -39.633  51.757 -52.153  1.00  0.00     0.002 A 
HETATM   22  C   UNL     1     -40.556  52.730 -51.768  1.00  0.00     0.030 A 
ENDBRANCH  13  16
ENDBRANCH   1  12
BRANCH   2  23
HETATM   23  C   UNL     1     -43.247  58.029 -53.596  1.00  0.00    -0.025 A 
HETATM   24  C   UNL     1     -42.381  58.789 -54.402  1.00  0.00     0.052 A 
HETATM   25  C   UNL     1     -42.531  58.786 -55.785  1.00  0.00     0.117 A 
HETATM   26  F   UNL     1     -41.698  59.515 -56.537  1.00  0.00    -0.206 F 
HETATM   27  C   UNL     1     -43.528  58.038 -56.397  1.00  0.00     0.042 A 
HETATM   28  C   UNL     1     -44.392  57.276 -55.613  1.00  0.00     0.004 A 
HETATM   29  C   UNL     1     -44.252  57.270 -54.222  1.00  0.00     0.010 A 
ENDBRANCH   2  23
BRANCH   7  30
HETATM   30  C   UNL     1     -46.276  61.609 -51.176  1.00  0.00     0.085 C 
BRANCH  30  31
HETATM   31  C   UNL     1     -45.795  62.626 -50.136  1.00  0.00     0.034 C 
BRANCH  31  32
HETATM   32  C   UNL     1     -45.474  62.037 -48.763  1.00  0.00     0.164 C 
BRANCH  32  33
HETATM   33  O   UNL     1     -46.626  61.460 -48.165  1.00  0.00    -0.401 OA
HETATM   34  H   UNL     1     -47.023  62.155 -47.603  1.00  0.00     0.209 HD
ENDBRANCH  32  33
ENDBRANCH  31  32
ENDBRANCH  30  31
ENDBRANCH   7  30
TORSDOF 7
ENDMDL
