MODEL 1
REMARK VINA RESULT:      -9.7      0.000      0.000
REMARK  7 active torsions:
REMARK  status: ('A' for Active; 'I' for Inactive)
REMARK    1  A    between atoms: C_2  and  C_3 
REMARK    2  A    between atoms: N_16  and  C_17 
REMARK    3  A    between atoms: C_17  and  C_18 
REMARK       I    between atoms: C_18  and  N_19 
REMARK    4  A    between atoms: N_19  and  C_20 
REMARK    5  A    between atoms: C_21  and  C_22 
REMARK       I    between atoms: C_22  and  N_23 
REMARK    6  A    between atoms: N_23  and  C_24 
REMARK    7  A    between atoms: C_24  and  C_25 
ROOT
HETATM    1  C   UNL     1     -42.864  59.079 -53.020  1.00  0.00     0.240 C 
ENDROOT
BRANCH   1   2
HETATM    2  N   UNL     1     -43.034  57.640 -52.955  1.00  0.00    -0.259 N 
HETATM    3  C   UNL     1     -44.138  56.984 -53.398  1.00  0.00     0.326 A 
HETATM    4  N   UNL     1     -43.993  55.646 -53.134  1.00  0.00    -0.321 N 
HETATM    5  O   UNL     1     -45.092  57.466 -53.982  1.00  0.00    -0.247 OA
HETATM    6  C   UNL     1     -42.805  55.351 -52.367  1.00  0.00     0.140 A 
HETATM    7  H   UNL     1     -44.728  54.981 -53.339  1.00  0.00     0.165 HD
HETATM    8  C   UNL     1     -43.284  54.959 -50.955  1.00  0.00     0.055 C 
HETATM    9  C   UNL     1     -42.195  56.776 -52.306  1.00  0.00     0.261 A 
HETATM   10  O   UNL     1     -41.163  57.089 -51.729  1.00  0.00    -0.270 OA
BRANCH   6  11
HETATM   11  C   UNL     1     -41.821  54.353 -53.003  1.00  0.00    -0.010 A 
HETATM   12  C   UNL     1     -41.080  53.318 -52.317  1.00  0.00    -0.017 A 
HETATM   13  C   UNL     1     -40.200  52.497 -53.085  1.00  0.00    -0.025 A 
HETATM   14  C   UNL     1     -41.135  53.003 -50.931  1.00  0.00     0.013 A 
HETATM   15  C   UNL     1     -39.434  51.483 -52.484  1.00  0.00     0.012 A 
HETATM   16  C   UNL     1     -40.079  52.666 -54.467  1.00  0.00     0.012 A 
HETATM   17  C   UNL     1     -39.513  51.229 -51.122  1.00  0.00     0.001 A 
HETATM   18  C   UNL     1     -40.369  51.988 -50.344  1.00  0.00     0.001 A 
HETATM   19  C   UNL     1     -40.824  53.622 -55.132  1.00  0.00     0.002 A 
HETATM   20  C   UNL     1     -41.685  54.441 -54.413  1.00  0.00     0.011 A 
ENDBRANCH   6  11
ENDBRANCH   1   2
BRANCH   1  21
HETATM   21  C   UNL     1     -42.204  59.566 -54.314  1.00  0.00     0.240 C 
HETATM   22  N   UNL     1     -43.049  59.666 -55.412  1.00  0.00    -0.325 N 
HETATM   23  H   UNL     1     -44.013  59.821 -55.145  1.00  0.00     0.169 HD
HETATM   24  O   UNL     1     -40.991  59.779 -54.357  1.00  0.00    -0.271 OA
BRANCH  22  25
HETATM   25  C   UNL     1     -42.644  60.376 -56.569  1.00  0.00     0.050 A 
HETATM   26  C   UNL     1     -42.151  59.800 -57.753  1.00  0.00     0.058 A 
HETATM   27  C   UNL     1     -41.808  60.638 -58.832  1.00  0.00     0.019 A 
HETATM   28  C   UNL     1     -41.946  62.022 -58.742  1.00  0.00     0.001 A 
HETATM   29  C   UNL     1     -42.461  62.588 -57.584  1.00  0.00     0.002 A 
HETATM   30  C   UNL     1     -42.820  61.771 -56.511  1.00  0.00     0.030 A 
BRANCH  26  31
HETATM   31  C   UNL     1     -42.123  58.347 -58.072  1.00  0.00     0.254 C 
HETATM   32  N   UNL     1     -42.191  57.981 -59.391  1.00  0.00    -0.351 N 
HETATM   33  H   UNL     1     -42.357  58.710 -60.082  1.00  0.00     0.163 HD
HETATM   34  O   UNL     1     -42.135  57.536 -57.150  1.00  0.00    -0.268 OA
BRANCH  32  35
HETATM   35  C   UNL     1     -42.435  56.602 -59.749  1.00  0.00     0.187 C 
BRANCH  35  36
HETATM   36  C   UNL     1     -43.874  56.365 -60.027  1.00  0.00     0.070 A 
HETATM   37  O   UNL     1     -44.148  55.524 -61.069  1.00  0.00    -0.325 OA
HETATM   38  C   UNL     1     -45.497  55.403 -61.143  1.00  0.00     0.142 A 
HETATM   39  C   UNL     1     -46.102  56.152 -60.163  1.00  0.00     0.027 A 
HETATM   40  C   UNL     1     -45.055  56.768 -59.436  1.00  0.00     0.036 A 
ENDBRANCH  35  36
ENDBRANCH  32  35
ENDBRANCH  26  31
ENDBRANCH  22  25
ENDBRANCH   1  21
TORSDOF 7
ENDMDL
MODEL 2
REMARK VINA RESULT:      -9.7      0.883      1.976
REMARK  7 active torsions:
REMARK  status: ('A' for Active; 'I' for Inactive)
REMARK    1  A    between atoms: C_2  and  C_3 
REMARK    2  A    between atoms: N_16  and  C_17 
REMARK    3  A    between atoms: C_17  and  C_18 
REMARK       I    between atoms: C_18  and  N_19 
REMARK    4  A    between atoms: N_19  and  C_20 
REMARK    5  A    between atoms: C_21  and  C_22 
REMARK       I    between atoms: C_22  and  N_23 
REMARK    6  A    between atoms: N_23  and  C_24 
REMARK    7  A    between atoms: C_24  and  C_25 
ROOT
HETATM    1  C   UNL     1     -42.837  59.059 -52.636  1.00  0.00     0.240 C 
ENDROOT
BRANCH   1   2
HETATM    2  N   UNL     1     -43.068  57.649 -52.382  1.00  0.00    -0.259 N 
HETATM    3  C   UNL     1     -44.017  56.908 -53.012  1.00  0.00     0.326 A 
HETATM    4  N   UNL     1     -44.000  55.638 -52.496  1.00  0.00    -0.321 N 
HETATM    5  O   UNL     1     -44.742  57.266 -53.922  1.00  0.00    -0.247 OA
HETATM    6  C   UNL     1     -43.098  55.499 -51.376  1.00  0.00     0.140 A 
HETATM    7  H   UNL     1     -44.665  54.935 -52.791  1.00  0.00     0.165 HD
HETATM    8  C   UNL     1     -43.980  55.345 -50.121  1.00  0.00     0.055 C 
HETATM    9  C   UNL     1     -42.483  56.923 -51.380  1.00  0.00     0.261 A 
HETATM   10  O   UNL     1     -41.654  57.348 -50.588  1.00  0.00    -0.270 OA
BRANCH   6  11
HETATM   11  C   UNL     1     -42.005  54.423 -51.519  1.00  0.00    -0.010 A 
HETATM   12  C   UNL     1     -41.394  53.975 -52.750  1.00  0.00    -0.017 A 
HETATM   13  C   UNL     1     -40.403  52.950 -52.678  1.00  0.00    -0.025 A 
HETATM   14  C   UNL     1     -41.661  54.456 -54.062  1.00  0.00     0.013 A 
HETATM   15  C   UNL     1     -39.778  52.452 -53.834  1.00  0.00     0.012 A 
HETATM   16  C   UNL     1     -40.009  52.414 -51.449  1.00  0.00     0.012 A 
HETATM   17  C   UNL     1     -40.089  52.947 -55.093  1.00  0.00     0.001 A 
HETATM   18  C   UNL     1     -41.030  53.954 -55.208  1.00  0.00     0.001 A 
HETATM   19  C   UNL     1     -40.557  52.877 -50.266  1.00  0.00     0.002 A 
HETATM   20  C   UNL     1     -41.528  53.869 -50.303  1.00  0.00     0.011 A 
ENDBRANCH   6  11
ENDBRANCH   1   2
BRANCH   1  21
HETATM   21  C   UNL     1     -42.137  59.341 -53.969  1.00  0.00     0.240 C 
HETATM   22  N   UNL     1     -42.967  59.373 -55.082  1.00  0.00    -0.325 N 
HETATM   23  H   UNL     1     -43.918  59.630 -54.848  1.00  0.00     0.169 HD
HETATM   24  O   UNL     1     -40.911  59.457 -54.021  1.00  0.00    -0.271 OA
BRANCH  22  25
HETATM   25  C   UNL     1     -42.505  59.912 -56.309  1.00  0.00     0.050 A 
HETATM   26  C   UNL     1     -42.147  59.167 -57.446  1.00  0.00     0.058 A 
HETATM   27  C   UNL     1     -41.724  59.847 -58.605  1.00  0.00     0.019 A 
HETATM   28  C   UNL     1     -41.653  61.239 -58.640  1.00  0.00     0.001 A 
HETATM   29  C   UNL     1     -42.035  61.974 -57.526  1.00  0.00     0.002 A 
HETATM   30  C   UNL     1     -42.471  61.316 -56.374  1.00  0.00     0.030 A 
BRANCH  26  31
HETATM   31  C   UNL     1     -42.345  57.705 -57.632  1.00  0.00     0.254 C 
HETATM   32  N   UNL     1     -42.404  57.224 -58.914  1.00  0.00    -0.351 N 
HETATM   33  H   UNL     1     -42.409  57.899 -59.677  1.00  0.00     0.163 HD
HETATM   34  O   UNL     1     -42.541  57.001 -56.644  1.00  0.00    -0.268 OA
BRANCH  32  35
HETATM   35  C   UNL     1     -42.856  55.875 -59.163  1.00  0.00     0.187 C 
BRANCH  35  36
HETATM   36  C   UNL     1     -44.222  55.863 -59.743  1.00  0.00     0.070 A 
HETATM   37  O   UNL     1     -45.097  56.777 -59.225  1.00  0.00    -0.325 OA
HETATM   38  C   UNL     1     -46.267  56.640 -59.899  1.00  0.00     0.142 A 
HETATM   39  C   UNL     1     -46.163  55.651 -60.847  1.00  0.00     0.027 A 
HETATM   40  C   UNL     1     -44.841  55.153 -60.753  1.00  0.00     0.036 A 
ENDBRANCH  35  36
ENDBRANCH  32  35
ENDBRANCH  26  31
ENDBRANCH  22  25
ENDBRANCH   1  21
TORSDOF 7
ENDMDL
MODEL 3
REMARK VINA RESULT:      -9.5      1.527      1.828
REMARK  7 active torsions:
REMARK  status: ('A' for Active; 'I' for Inactive)
REMARK    1  A    between atoms: C_2  and  C_3 
REMARK    2  A    between atoms: N_16  and  C_17 
REMARK    3  A    between atoms: C_17  and  C_18 
REMARK       I    between atoms: C_18  and  N_19 
REMARK    4  A    between atoms: N_19  and  C_20 
REMARK    5  A    between atoms: C_21  and  C_22 
REMARK       I    between atoms: C_22  and  N_23 
REMARK    6  A    between atoms: N_23  and  C_24 
REMARK    7  A    between atoms: C_24  and  C_25 
ROOT
HETATM    1  C   UNL     1     -43.062  59.223 -51.349  1.00  0.00     0.240 C 
ENDROOT
BRANCH   1   2
HETATM    2  N   UNL     1     -43.216  57.781 -51.394  1.00  0.00    -0.259 N 
HETATM    3  C   UNL     1     -44.380  57.132 -51.129  1.00  0.00     0.326 A 
HETATM    4  N   UNL     1     -44.160  55.781 -51.206  1.00  0.00    -0.321 N 
HETATM    5  O   UNL     1     -45.466  57.636 -50.908  1.00  0.00    -0.247 OA
HETATM    6  C   UNL     1     -42.768  55.449 -51.409  1.00  0.00     0.140 A 
HETATM    7  H   UNL     1     -44.887  55.110 -50.994  1.00  0.00     0.165 HD
HETATM    8  C   UNL     1     -42.267  54.843 -50.084  1.00  0.00     0.055 C 
HETATM    9  C   UNL     1     -42.194  56.884 -51.547  1.00  0.00     0.261 A 
HETATM   10  O   UNL     1     -41.017  57.172 -51.712  1.00  0.00    -0.270 OA
BRANCH   6  11
HETATM   11  C   UNL     1     -42.451  54.602 -52.655  1.00  0.00    -0.010 A 
HETATM   12  C   UNL     1     -41.451  53.564 -52.757  1.00  0.00    -0.017 A 
HETATM   13  C   UNL     1     -41.296  52.898 -54.011  1.00  0.00    -0.025 A 
HETATM   14  C   UNL     1     -40.586  53.103 -51.726  1.00  0.00     0.013 A 
HETATM   15  C   UNL     1     -40.332  51.890 -54.191  1.00  0.00     0.012 A 
HETATM   16  C   UNL     1     -42.108  53.218 -55.102  1.00  0.00     0.012 A 
HETATM   17  C   UNL     1     -39.502  51.491 -53.153  1.00  0.00     0.001 A 
HETATM   18  C   UNL     1     -39.632  52.096 -51.916  1.00  0.00     0.001 A 
HETATM   19  C   UNL     1     -43.099  54.176 -54.991  1.00  0.00     0.002 A 
HETATM   20  C   UNL     1     -43.271  54.846 -53.787  1.00  0.00     0.011 A 
ENDBRANCH   6  11
ENDBRANCH   1   2
BRANCH   1  21
HETATM   21  C   UNL     1     -42.783  59.858 -52.715  1.00  0.00     0.240 C 
HETATM   22  N   UNL     1     -43.676  59.517 -53.723  1.00  0.00    -0.325 N 
HETATM   23  H   UNL     1     -44.588  59.265 -53.363  1.00  0.00     0.169 HD
HETATM   24  O   UNL     1     -41.787  60.563 -52.887  1.00  0.00    -0.271 OA
BRANCH  22  25
HETATM   25  C   UNL     1     -43.711  60.254 -54.933  1.00  0.00     0.050 A 
HETATM   26  C   UNL     1     -43.241  59.805 -56.180  1.00  0.00     0.058 A 
HETATM   27  C   UNL     1     -43.365  60.647 -57.302  1.00  0.00     0.019 A 
HETATM   28  C   UNL     1     -43.939  61.913 -57.195  1.00  0.00     0.001 A 
HETATM   29  C   UNL     1     -44.430  62.343 -55.970  1.00  0.00     0.002 A 
HETATM   30  C   UNL     1     -44.330  61.515 -54.851  1.00  0.00     0.030 A 
BRANCH  26  31
HETATM   31  C   UNL     1     -42.781  58.426 -56.495  1.00  0.00     0.254 C 
HETATM   32  N   UNL     1     -43.099  57.911 -57.725  1.00  0.00    -0.351 N 
HETATM   33  H   UNL     1     -43.716  58.454 -58.325  1.00  0.00     0.163 HD
HETATM   34  O   UNL     1     -42.221  57.771 -55.619  1.00  0.00    -0.268 OA
BRANCH  32  35
HETATM   35  C   UNL     1     -42.917  56.503 -57.990  1.00  0.00     0.187 C 
BRANCH  35  36
HETATM   36  C   UNL     1     -43.934  56.000 -58.947  1.00  0.00     0.070 A 
HETATM   37  O   UNL     1     -44.928  56.878 -59.277  1.00  0.00    -0.325 OA
HETATM   38  C   UNL     1     -45.728  56.258 -60.180  1.00  0.00     0.142 A 
HETATM   39  C   UNL     1     -45.268  54.991 -60.442  1.00  0.00     0.027 A 
HETATM   40  C   UNL     1     -44.104  54.824 -59.652  1.00  0.00     0.036 A 
ENDBRANCH  35  36
ENDBRANCH  32  35
ENDBRANCH  26  31
ENDBRANCH  22  25
ENDBRANCH   1  21
TORSDOF 7
ENDMDL
MODEL 4
REMARK VINA RESULT:      -9.3      2.057      4.555
REMARK  7 active torsions:
REMARK  status: ('A' for Active; 'I' for Inactive)
REMARK    1  A    between atoms: C_2  and  C_3 
REMARK    2  A    between atoms: N_16  and  C_17 
REMARK    3  A    between atoms: C_17  and  C_18 
REMARK       I    between atoms: C_18  and  N_19 
REMARK    4  A    between atoms: N_19  and  C_20 
REMARK    5  A    between atoms: C_21  and  C_22 
REMARK       I    between atoms: C_22  and  N_23 
REMARK    6  A    between atoms: N_23  and  C_24 
REMARK    7  A    between atoms: C_24  and  C_25 
ROOT
HETATM    1  C   UNL     1     -43.806  57.277 -53.976  1.00  0.00     0.240 C 
ENDROOT
BRANCH   1   2
HETATM    2  N   UNL     1     -42.563  56.534 -53.879  1.00  0.00    -0.259 N 
HETATM    3  C   UNL     1     -41.333  57.110 -53.856  1.00  0.00     0.326 A 
HETATM    4  N   UNL     1     -40.383  56.122 -53.816  1.00  0.00    -0.321 N 
HETATM    5  O   UNL     1     -41.082  58.301 -53.822  1.00  0.00    -0.247 OA
HETATM    6  C   UNL     1     -40.945  54.797 -53.942  1.00  0.00     0.140 A 
HETATM    7  H   UNL     1     -39.394  56.334 -53.844  1.00  0.00     0.165 HD
HETATM    8  C   UNL     1     -40.549  54.285 -55.340  1.00  0.00     0.055 C 
HETATM    9  C   UNL     1     -42.450  55.173 -53.959  1.00  0.00     0.261 A 
HETATM   10  O   UNL     1     -43.383  54.390 -54.078  1.00  0.00    -0.270 OA
BRANCH   6  11
HETATM   11  C   UNL     1     -40.631  53.819 -52.795  1.00  0.00    -0.010 A 
HETATM   12  C   UNL     1     -40.266  52.427 -52.927  1.00  0.00    -0.017 A 
HETATM   13  C   UNL     1     -40.026  51.676 -51.736  1.00  0.00    -0.025 A 
HETATM   14  C   UNL     1     -40.100  51.697 -54.136  1.00  0.00     0.013 A 
HETATM   15  C   UNL     1     -39.685  50.314 -51.785  1.00  0.00     0.012 A 
HETATM   16  C   UNL     1     -40.111  52.276 -50.477  1.00  0.00     0.012 A 
HETATM   17  C   UNL     1     -39.553  49.645 -52.994  1.00  0.00     0.001 A 
HETATM   18  C   UNL     1     -39.757  50.339 -54.173  1.00  0.00     0.001 A 
HETATM   19  C   UNL     1     -40.411  53.621 -50.351  1.00  0.00     0.002 A 
HETATM   20  C   UNL     1     -40.656  54.377 -51.490  1.00  0.00     0.011 A 
ENDBRANCH   6  11
ENDBRANCH   1   2
BRANCH   1  21
HETATM   21  C   UNL     1     -44.259  57.538 -55.416  1.00  0.00     0.240 C 
HETATM   22  N   UNL     1     -43.242  57.583 -56.361  1.00  0.00    -0.325 N 
HETATM   23  H   UNL     1     -42.434  57.040 -56.085  1.00  0.00     0.169 HD
HETATM   24  O   UNL     1     -45.445  57.757 -55.669  1.00  0.00    -0.271 OA
BRANCH  22  25
HETATM   25  C   UNL     1     -43.542  57.517 -57.744  1.00  0.00     0.050 A 
HETATM   26  C   UNL     1     -43.795  58.618 -58.581  1.00  0.00     0.058 A 
HETATM   27  C   UNL     1     -44.059  58.395 -59.947  1.00  0.00     0.019 A 
HETATM   28  C   UNL     1     -44.077  57.106 -60.477  1.00  0.00     0.001 A 
HETATM   29  C   UNL     1     -43.798  56.022 -59.656  1.00  0.00     0.002 A 
HETATM   30  C   UNL     1     -43.519  56.226 -58.304  1.00  0.00     0.030 A 
BRANCH  26  31
HETATM   31  C   UNL     1     -43.628  60.050 -58.215  1.00  0.00     0.254 C 
HETATM   32  N   UNL     1     -43.583  60.969 -59.230  1.00  0.00    -0.351 N 
HETATM   33  H   UNL     1     -43.566  60.623 -60.188  1.00  0.00     0.163 HD
HETATM   34  O   UNL     1     -43.444  60.345 -57.036  1.00  0.00    -0.268 OA
BRANCH  32  35
HETATM   35  C   UNL     1     -43.161  62.325 -58.964  1.00  0.00     0.187 C 
BRANCH  35  36
HETATM   36  C   UNL     1     -41.726  62.516 -59.290  1.00  0.00     0.070 A 
HETATM   37  O   UNL     1     -41.423  62.599 -60.621  1.00  0.00    -0.325 OA
HETATM   38  C   UNL     1     -40.086  62.808 -60.716  1.00  0.00     0.142 A 
HETATM   39  C   UNL     1     -39.517  62.864 -59.468  1.00  0.00     0.027 A 
HETATM   40  C   UNL     1     -40.576  62.683 -58.544  1.00  0.00     0.036 A 
ENDBRANCH  35  36
ENDBRANCH  32  35
ENDBRANCH  26  31
ENDBRANCH  22  25
ENDBRANCH   1  21
TORSDOF 7
ENDMDL
MODEL 5
REMARK VINA RESULT:      -9.2      1.874      3.031
REMARK  7 active torsions:
REMARK  status: ('A' for Active; 'I' for Inactive)
REMARK    1  A    between atoms: C_2  and  C_3 
REMARK    2  A    between atoms: N_16  and  C_17 
REMARK    3  A    between atoms: C_17  and  C_18 
REMARK       I    between atoms: C_18  and  N_19 
REMARK    4  A    between atoms: N_19  and  C_20 
REMARK    5  A    between atoms: C_21  and  C_22 
REMARK       I    between atoms: C_22  and  N_23 
REMARK    6  A    between atoms: N_23  and  C_24 
REMARK    7  A    between atoms: C_24  and  C_25 
ROOT
HETATM    1  C   UNL     1     -42.846  59.397 -51.868  1.00  0.00     0.240 C 
ENDROOT
BRANCH   1   2
HETATM    2  N   UNL     1     -42.194  58.208 -52.385  1.00  0.00    -0.259 N 
HETATM    3  C   UNL     1     -41.151  58.230 -53.254  1.00  0.00     0.326 A 
HETATM    4  N   UNL     1     -40.818  56.940 -53.579  1.00  0.00    -0.321 N 
HETATM    5  O   UNL     1     -40.553  59.211 -53.657  1.00  0.00    -0.247 OA
HETATM    6  C   UNL     1     -41.732  55.968 -53.023  1.00  0.00     0.140 A 
HETATM    7  H   UNL     1     -40.095  56.731 -54.255  1.00  0.00     0.165 HD
HETATM    8  C   UNL     1     -42.551  55.413 -54.204  1.00  0.00     0.055 C 
HETATM    9  C   UNL     1     -42.634  56.925 -52.200  1.00  0.00     0.261 A 
HETATM   10  O   UNL     1     -43.609  56.599 -51.538  1.00  0.00    -0.270 OA
BRANCH   6  11
HETATM   11  C   UNL     1     -41.103  54.888 -52.123  1.00  0.00    -0.010 A 
HETATM   12  C   UNL     1     -40.613  53.596 -52.544  1.00  0.00    -0.017 A 
HETATM   13  C   UNL     1     -40.074  52.722 -51.551  1.00  0.00    -0.025 A 
HETATM   14  C   UNL     1     -40.589  53.080 -53.870  1.00  0.00     0.013 A 
HETATM   15  C   UNL     1     -39.595  51.443 -51.883  1.00  0.00     0.012 A 
HETATM   16  C   UNL     1     -39.995  53.114 -50.213  1.00  0.00     0.012 A 
HETATM   17  C   UNL     1     -39.611  50.983 -53.193  1.00  0.00     0.001 A 
HETATM   18  C   UNL     1     -40.106  51.805 -54.189  1.00  0.00     0.001 A 
HETATM   19  C   UNL     1     -40.418  54.370 -49.816  1.00  0.00     0.002 A 
HETATM   20  C   UNL     1     -40.952  55.241 -50.757  1.00  0.00     0.011 A 
ENDBRANCH   6  11
ENDBRANCH   1   2
BRANCH   1  21
HETATM   21  C   UNL     1     -43.726  60.116 -52.895  1.00  0.00     0.240 C 
HETATM   22  N   UNL     1     -43.154  61.231 -53.493  1.00  0.00    -0.325 N 
HETATM   23  H   UNL     1     -42.143  61.184 -53.511  1.00  0.00     0.169 HD
HETATM   24  O   UNL     1     -44.883  59.742 -53.100  1.00  0.00    -0.271 OA
BRANCH  22  25
HETATM   25  C   UNL     1     -43.730  61.799 -54.656  1.00  0.00     0.050 A 
HETATM   26  C   UNL     1     -43.450  61.415 -55.980  1.00  0.00     0.058 A 
HETATM   27  C   UNL     1     -44.121  62.060 -57.037  1.00  0.00     0.019 A 
HETATM   28  C   UNL     1     -45.050  63.071 -56.792  1.00  0.00     0.001 A 
HETATM   29  C   UNL     1     -45.348  63.428 -55.484  1.00  0.00     0.002 A 
HETATM   30  C   UNL     1     -44.703  62.788 -54.424  1.00  0.00     0.030 A 
BRANCH  26  31
HETATM   31  C   UNL     1     -42.636  60.241 -56.396  1.00  0.00     0.254 C 
HETATM   32  N   UNL     1     -43.263  59.025 -56.475  1.00  0.00    -0.351 N 
HETATM   33  H   UNL     1     -44.226  58.961 -56.152  1.00  0.00     0.163 HD
HETATM   34  O   UNL     1     -41.428  60.384 -56.560  1.00  0.00    -0.268 OA
BRANCH  32  35
HETATM   35  C   UNL     1     -42.483  57.815 -56.611  1.00  0.00     0.187 C 
BRANCH  35  36
HETATM   36  C   UNL     1     -42.654  57.213 -57.956  1.00  0.00     0.070 A 
HETATM   37  O   UNL     1     -42.084  57.897 -58.992  1.00  0.00    -0.325 OA
HETATM   38  C   UNL     1     -42.311  57.179 -60.121  1.00  0.00     0.142 A 
HETATM   39  C   UNL     1     -43.020  56.039 -59.832  1.00  0.00     0.027 A 
HETATM   40  C   UNL     1     -43.236  56.054 -58.432  1.00  0.00     0.036 A 
ENDBRANCH  35  36
ENDBRANCH  32  35
ENDBRANCH  26  31
ENDBRANCH  22  25
ENDBRANCH   1  21
TORSDOF 7
ENDMDL
MODEL 6
REMARK VINA RESULT:      -9.0      2.317      5.070
REMARK  7 active torsions:
REMARK  status: ('A' for Active; 'I' for Inactive)
REMARK    1  A    between atoms: C_2  and  C_3 
REMARK    2  A    between atoms: N_16  and  C_17 
REMARK    3  A    between atoms: C_17  and  C_18 
REMARK       I    between atoms: C_18  and  N_19 
REMARK    4  A    between atoms: N_19  and  C_20 
REMARK    5  A    between atoms: C_21  and  C_22 
REMARK       I    between atoms: C_22  and  N_23 
REMARK    6  A    between atoms: N_23  and  C_24 
REMARK    7  A    between atoms: C_24  and  C_25 
ROOT
HETATM    1  C   UNL     1     -42.229  56.290 -56.330  1.00  0.00     0.240 C 
ENDROOT
BRANCH   1   2
HETATM    2  N   UNL     1     -42.476  55.849 -54.970  1.00  0.00    -0.259 N 
HETATM    3  C   UNL     1     -43.568  55.136 -54.589  1.00  0.00     0.326 A 
HETATM    4  N   UNL     1     -43.515  54.936 -53.233  1.00  0.00    -0.321 N 
HETATM    5  O   UNL     1     -44.439  54.687 -55.312  1.00  0.00    -0.247 OA
HETATM    6  C   UNL     1     -42.417  55.636 -52.606  1.00  0.00     0.140 A 
HETATM    7  H   UNL     1     -44.261  54.468 -52.735  1.00  0.00     0.165 HD
HETATM    8  C   UNL     1     -43.040  56.793 -51.802  1.00  0.00     0.055 C 
HETATM    9  C   UNL     1     -41.743  56.219 -53.876  1.00  0.00     0.261 A 
HETATM   10  O   UNL     1     -40.753  56.937 -53.896  1.00  0.00    -0.270 OA
BRANCH   6  11
HETATM   11  C   UNL     1     -41.432  54.765 -51.806  1.00  0.00    -0.010 A 
HETATM   12  C   UNL     1     -40.796  53.547 -52.257  1.00  0.00    -0.017 A 
HETATM   13  C   UNL     1     -39.919  52.870 -51.357  1.00  0.00    -0.025 A 
HETATM   14  C   UNL     1     -40.935  52.932 -53.533  1.00  0.00     0.013 A 
HETATM   15  C   UNL     1     -39.279  51.672 -51.720  1.00  0.00     0.012 A 
HETATM   16  C   UNL     1     -39.655  53.384 -50.085  1.00  0.00     0.012 A 
HETATM   17  C   UNL     1     -39.463  51.106 -52.974  1.00  0.00     0.001 A 
HETATM   18  C   UNL     1     -40.290  51.739 -53.884  1.00  0.00     0.001 A 
HETATM   19  C   UNL     1     -40.223  54.575 -49.670  1.00  0.00     0.002 A 
HETATM   20  C   UNL     1     -41.086  55.254 -50.520  1.00  0.00     0.011 A 
ENDBRANCH   6  11
ENDBRANCH   1   2
BRANCH   1  21
HETATM   21  C   UNL     1     -42.786  57.683 -56.639  1.00  0.00     0.240 C 
HETATM   22  N   UNL     1     -42.018  58.746 -56.182  1.00  0.00    -0.325 N 
HETATM   23  H   UNL     1     -41.038  58.507 -56.098  1.00  0.00     0.169 HD
HETATM   24  O   UNL     1     -43.878  57.811 -57.196  1.00  0.00    -0.271 OA
BRANCH  22  25
HETATM   25  C   UNL     1     -42.257  60.061 -56.653  1.00  0.00     0.050 A 
HETATM   26  C   UNL     1     -43.028  61.038 -55.998  1.00  0.00     0.058 A 
HETATM   27  C   UNL     1     -43.158  62.313 -56.582  1.00  0.00     0.019 A 
HETATM   28  C   UNL     1     -42.541  62.618 -57.794  1.00  0.00     0.001 A 
HETATM   29  C   UNL     1     -41.756  61.662 -58.425  1.00  0.00     0.002 A 
HETATM   30  C   UNL     1     -41.604  60.398 -57.852  1.00  0.00     0.030 A 
BRANCH  26  31
HETATM   31  C   UNL     1     -43.587  60.933 -54.624  1.00  0.00     0.254 C 
HETATM   32  N   UNL     1     -42.854  61.458 -53.592  1.00  0.00    -0.351 N 
HETATM   33  H   UNL     1     -41.919  61.806 -53.799  1.00  0.00     0.163 HD
HETATM   34  O   UNL     1     -44.629  60.304 -54.453  1.00  0.00    -0.268 OA
BRANCH  32  35
HETATM   35  C   UNL     1     -43.207  61.157 -52.224  1.00  0.00     0.187 C 
BRANCH  35  36
HETATM   36  C   UNL     1     -42.114  60.428 -51.534  1.00  0.00     0.070 A 
HETATM   37  O   UNL     1     -41.183  59.842 -52.345  1.00  0.00    -0.325 OA
HETATM   38  C   UNL     1     -40.256  59.264 -51.541  1.00  0.00     0.142 A 
HETATM   39  C   UNL     1     -40.571  59.467 -50.220  1.00  0.00     0.027 A 
HETATM   40  C   UNL     1     -41.768  60.225 -50.213  1.00  0.00     0.036 A 
ENDBRANCH  35  36
ENDBRANCH  32  35
ENDBRANCH  26  31
ENDBRANCH  22  25
ENDBRANCH   1  21
TORSDOF 7
ENDMDL
MODEL 7
REMARK VINA RESULT:      -8.8      1.720      2.798
REMARK  7 active torsions:
REMARK  status: ('A' for Active; 'I' for Inactive)
REMARK    1  A    between atoms: C_2  and  C_3 
REMARK    2  A    between atoms: N_16  and  C_17 
REMARK    3  A    between atoms: C_17  and  C_18 
REMARK       I    between atoms: C_18  and  N_19 
REMARK    4  A    between atoms: N_19  and  C_20 
REMARK    5  A    between atoms: C_21  and  C_22 
REMARK       I    between atoms: C_22  and  N_23 
REMARK    6  A    between atoms: N_23  and  C_24 
REMARK    7  A    between atoms: C_24  and  C_25 
ROOT
HETATM    1  C   UNL     1     -42.395  57.329 -55.847  1.00  0.00     0.240 C 
ENDROOT
BRANCH   1   2
HETATM    2  N   UNL     1     -42.555  56.805 -54.504  1.00  0.00    -0.259 N 
HETATM    3  C   UNL     1     -43.710  56.268 -54.030  1.00  0.00     0.326 A 
HETATM    4  N   UNL     1     -43.531  55.926 -52.714  1.00  0.00    -0.321 N 
HETATM    5  O   UNL     1     -44.733  56.062 -54.656  1.00  0.00    -0.247 OA
HETATM    6  C   UNL     1     -42.249  56.346 -52.194  1.00  0.00     0.140 A 
HETATM    7  H   UNL     1     -44.286  55.554 -52.153  1.00  0.00     0.165 HD
HETATM    8  C   UNL     1     -42.532  57.510 -51.225  1.00  0.00     0.055 C 
HETATM    9  C   UNL     1     -41.635  56.922 -53.497  1.00  0.00     0.261 A 
HETATM   10  O   UNL     1     -40.534  57.445 -53.600  1.00  0.00    -0.270 OA
BRANCH   6  11
HETATM   11  C   UNL     1     -41.361  55.233 -51.608  1.00  0.00    -0.010 A 
HETATM   12  C   UNL     1     -40.912  54.041 -52.292  1.00  0.00    -0.017 A 
HETATM   13  C   UNL     1     -40.101  53.114 -51.569  1.00  0.00    -0.025 A 
HETATM   14  C   UNL     1     -41.178  53.677 -53.641  1.00  0.00     0.013 A 
HETATM   15  C   UNL     1     -39.642  51.925 -52.162  1.00  0.00     0.012 A 
HETATM   16  C   UNL     1     -39.726  53.364 -50.246  1.00  0.00     0.012 A 
HETATM   17  C   UNL     1     -39.946  51.611 -53.479  1.00  0.00     0.001 A 
HETATM   18  C   UNL     1     -40.712  52.490 -54.222  1.00  0.00     0.001 A 
HETATM   19  C   UNL     1     -40.113  54.528 -49.607  1.00  0.00     0.002 A 
HETATM   20  C   UNL     1     -40.907  55.446 -50.281  1.00  0.00     0.011 A 
ENDBRANCH   6  11
ENDBRANCH   1   2
BRANCH   1  21
HETATM   21  C   UNL     1     -43.127  58.653 -56.086  1.00  0.00     0.240 C 
HETATM   22  N   UNL     1     -42.681  59.725 -55.324  1.00  0.00    -0.325 N 
HETATM   23  H   UNL     1     -41.712  59.627 -55.048  1.00  0.00     0.169 HD
HETATM   24  O   UNL     1     -44.087  58.708 -56.857  1.00  0.00    -0.271 OA
BRANCH  22  25
HETATM   25  C   UNL     1     -43.060  61.050 -55.655  1.00  0.00     0.050 A 
HETATM   26  C   UNL     1     -42.675  61.746 -56.815  1.00  0.00     0.058 A 
HETATM   27  C   UNL     1     -43.151  63.056 -57.017  1.00  0.00     0.019 A 
HETATM   28  C   UNL     1     -43.990  63.671 -56.089  1.00  0.00     0.001 A 
HETATM   29  C   UNL     1     -44.394  62.972 -54.959  1.00  0.00     0.002 A 
HETATM   30  C   UNL     1     -43.944  61.667 -54.751  1.00  0.00     0.030 A 
BRANCH  26  31
HETATM   31  C   UNL     1     -41.948  61.171 -57.978  1.00  0.00     0.254 C 
HETATM   32  N   UNL     1     -42.683  60.814 -59.078  1.00  0.00    -0.351 N 
HETATM   33  H   UNL     1     -43.697  60.865 -59.013  1.00  0.00     0.163 HD
HETATM   34  O   UNL     1     -40.743  60.953 -57.877  1.00  0.00    -0.268 OA
BRANCH  32  35
HETATM   35  C   UNL     1     -42.083  60.014 -60.122  1.00  0.00     0.187 C 
BRANCH  35  36
HETATM   36  C   UNL     1     -42.626  58.633 -60.121  1.00  0.00     0.070 A 
HETATM   37  O   UNL     1     -41.783  57.661 -59.661  1.00  0.00    -0.325 OA
HETATM   38  C   UNL     1     -42.462  56.488 -59.701  1.00  0.00     0.142 A 
HETATM   39  C   UNL     1     -43.735  56.684 -60.179  1.00  0.00     0.027 A 
HETATM   40  C   UNL     1     -43.846  58.071 -60.444  1.00  0.00     0.036 A 
ENDBRANCH  35  36
ENDBRANCH  32  35
ENDBRANCH  26  31
ENDBRANCH  22  25
ENDBRANCH   1  21
TORSDOF 7
ENDMDL
MODEL 8
REMARK VINA RESULT:      -8.7      2.048      4.750
REMARK  7 active torsions:
REMARK  status: ('A' for Active; 'I' for Inactive)
REMARK    1  A    between atoms: C_2  and  C_3 
REMARK    2  A    between atoms: N_16  and  C_17 
REMARK    3  A    between atoms: C_17  and  C_18 
REMARK       I    between atoms: C_18  and  N_19 
REMARK    4  A    between atoms: N_19  and  C_20 
REMARK    5  A    between atoms: C_21  and  C_22 
REMARK       I    between atoms: C_22  and  N_23 
REMARK    6  A    between atoms: N_23  and  C_24 
REMARK    7  A    between atoms: C_24  and  C_25 
ROOT
HETATM    1  C   UNL     1     -44.494  55.687 -54.070  1.00  0.00     0.240 C 
ENDROOT
BRANCH   1   2
HETATM    2  N   UNL     1     -43.131  55.304 -53.752  1.00  0.00    -0.259 N 
HETATM    3  C   UNL     1     -42.400  55.858 -52.750  1.00  0.00     0.326 A 
HETATM    4  N   UNL     1     -41.144  55.308 -52.763  1.00  0.00    -0.321 N 
HETATM    5  O   UNL     1     -42.781  56.670 -51.927  1.00  0.00    -0.247 OA
HETATM    6  C   UNL     1     -40.929  54.425 -53.886  1.00  0.00     0.140 A 
HETATM    7  H   UNL     1     -40.420  55.618 -52.127  1.00  0.00     0.165 HD
HETATM    8  C   UNL     1     -39.961  55.155 -54.837  1.00  0.00     0.055 C 
HETATM    9  C   UNL     1     -42.353  54.464 -54.502  1.00  0.00     0.261 A 
HETATM   10  O   UNL     1     -42.710  53.886 -55.519  1.00  0.00    -0.270 OA
BRANCH   6  11
HETATM   11  C   UNL     1     -40.514  52.983 -53.542  1.00  0.00    -0.010 A 
HETATM   12  C   UNL     1     -40.438  52.401 -52.221  1.00  0.00    -0.017 A 
HETATM   13  C   UNL     1     -40.014  51.042 -52.105  1.00  0.00    -0.025 A 
HETATM   14  C   UNL     1     -40.756  53.035 -50.988  1.00  0.00     0.013 A 
HETATM   15  C   UNL     1     -39.900  50.415 -50.853  1.00  0.00     0.012 A 
HETATM   16  C   UNL     1     -39.710  50.284 -53.238  1.00  0.00     0.012 A 
HETATM   17  C   UNL     1     -40.207  51.087 -49.677  1.00  0.00     0.001 A 
HETATM   18  C   UNL     1     -40.641  52.398 -49.745  1.00  0.00     0.001 A 
HETATM   19  C   UNL     1     -39.830  50.824 -54.506  1.00  0.00     0.002 A 
HETATM   20  C   UNL     1     -40.234  52.144 -54.652  1.00  0.00     0.011 A 
ENDBRANCH   6  11
ENDBRANCH   1   2
BRANCH   1  21
HETATM   21  C   UNL     1     -44.594  56.921 -54.973  1.00  0.00     0.240 C 
HETATM   22  N   UNL     1     -43.814  56.883 -56.121  1.00  0.00    -0.325 N 
HETATM   23  H   UNL     1     -43.627  55.937 -56.430  1.00  0.00     0.169 HD
HETATM   24  O   UNL     1     -45.278  57.889 -54.636  1.00  0.00    -0.271 OA
BRANCH  22  25
HETATM   25  C   UNL     1     -44.036  57.806 -57.173  1.00  0.00     0.050 A 
HETATM   26  C   UNL     1     -43.618  59.148 -57.187  1.00  0.00     0.058 A 
HETATM   27  C   UNL     1     -43.895  59.940 -58.318  1.00  0.00     0.019 A 
HETATM   28  C   UNL     1     -44.577  59.418 -59.415  1.00  0.00     0.001 A 
HETATM   29  C   UNL     1     -44.963  58.084 -59.413  1.00  0.00     0.002 A 
HETATM   30  C   UNL     1     -44.683  57.281 -58.306  1.00  0.00     0.030 A 
BRANCH  26  31
HETATM   31  C   UNL     1     -42.726  59.796 -56.188  1.00  0.00     0.254 C 
HETATM   32  N   UNL     1     -43.212  59.976 -54.919  1.00  0.00    -0.351 N 
HETATM   33  H   UNL     1     -44.190  59.751 -54.745  1.00  0.00     0.163 HD
HETATM   34  O   UNL     1     -41.636  60.225 -56.555  1.00  0.00    -0.268 OA
BRANCH  32  35
HETATM   35  C   UNL     1     -42.508  60.827 -53.987  1.00  0.00     0.187 C 
BRANCH  35  36
HETATM   36  C   UNL     1     -41.655  60.032 -53.070  1.00  0.00     0.070 A 
HETATM   37  O   UNL     1     -40.635  59.337 -53.656  1.00  0.00    -0.325 OA
HETATM   38  C   UNL     1     -39.953  58.711 -52.665  1.00  0.00     0.142 A 
HETATM   39  C   UNL     1     -40.515  58.989 -51.443  1.00  0.00     0.027 A 
HETATM   40  C   UNL     1     -41.611  59.849 -51.702  1.00  0.00     0.036 A 
ENDBRANCH  35  36
ENDBRANCH  32  35
ENDBRANCH  26  31
ENDBRANCH  22  25
ENDBRANCH   1  21
TORSDOF 7
ENDMDL
MODEL 9
REMARK VINA RESULT:      -8.7      1.543      2.092
REMARK  7 active torsions:
REMARK  status: ('A' for Active; 'I' for Inactive)
REMARK    1  A    between atoms: C_2  and  C_3 
REMARK    2  A    between atoms: N_16  and  C_17 
REMARK    3  A    between atoms: C_17  and  C_18 
REMARK       I    between atoms: C_18  and  N_19 
REMARK    4  A    between atoms: N_19  and  C_20 
REMARK    5  A    between atoms: C_21  and  C_22 
REMARK       I    between atoms: C_22  and  N_23 
REMARK    6  A    between atoms: N_23  and  C_24 
REMARK    7  A    between atoms: C_24  and  C_25 
ROOT
HETATM    1  C   UNL     1     -42.832  60.730 -54.243  1.00  0.00     0.240 C 
ENDROOT
BRANCH   1   2
HETATM    2  N   UNL     1     -43.342  59.400 -53.964  1.00  0.00    -0.259 N 
HETATM    3  C   UNL     1     -44.608  58.997 -54.248  1.00  0.00     0.326 A 
HETATM    4  N   UNL     1     -44.771  57.709 -53.805  1.00  0.00    -0.321 N 
HETATM    5  O   UNL     1     -45.462  59.628 -54.843  1.00  0.00    -0.247 OA
HETATM    6  C   UNL     1     -43.629  57.220 -53.069  1.00  0.00     0.140 A 
HETATM    7  H   UNL     1     -45.661  57.232 -53.873  1.00  0.00     0.165 HD
HETATM    8  C   UNL     1     -44.062  57.141 -51.592  1.00  0.00     0.055 C 
HETATM    9  C   UNL     1     -42.685  58.439 -53.245  1.00  0.00     0.261 A 
HETATM   10  O   UNL     1     -41.561  58.549 -52.775  1.00  0.00    -0.270 OA
BRANCH   6  11
HETATM   11  C   UNL     1     -42.978  55.933 -53.609  1.00  0.00    -0.010 A 
HETATM   12  C   UNL     1     -42.055  55.074 -52.903  1.00  0.00    -0.017 A 
HETATM   13  C   UNL     1     -41.546  53.926 -53.584  1.00  0.00    -0.025 A 
HETATM   14  C   UNL     1     -41.589  55.232 -51.568  1.00  0.00     0.013 A 
HETATM   15  C   UNL     1     -40.632  53.055 -52.968  1.00  0.00     0.012 A 
HETATM   16  C   UNL     1     -41.952  53.623 -54.886  1.00  0.00     0.012 A 
HETATM   17  C   UNL     1     -40.196  53.266 -51.667  1.00  0.00     0.001 A 
HETATM   18  C   UNL     1     -40.679  54.355 -50.964  1.00  0.00     0.001 A 
HETATM   19  C   UNL     1     -42.873  54.417 -55.545  1.00  0.00     0.002 A 
HETATM   20  C   UNL     1     -43.382  55.543 -54.912  1.00  0.00     0.011 A 
ENDBRANCH   6  11
ENDBRANCH   1   2
BRANCH   1  21
HETATM   21  C   UNL     1     -42.780  61.072 -55.735  1.00  0.00     0.240 C 
HETATM   22  N   UNL     1     -41.712  60.525 -56.434  1.00  0.00    -0.325 N 
HETATM   23  H   UNL     1     -41.370  59.671 -56.010  1.00  0.00     0.169 HD
HETATM   24  O   UNL     1     -43.607  61.839 -56.231  1.00  0.00    -0.271 OA
BRANCH  22  25
HETATM   25  C   UNL     1     -41.710  60.512 -57.851  1.00  0.00     0.050 A 
HETATM   26  C   UNL     1     -42.099  59.431 -58.661  1.00  0.00     0.058 A 
HETATM   27  C   UNL     1     -42.063  59.576 -60.062  1.00  0.00     0.019 A 
HETATM   28  C   UNL     1     -41.647  60.768 -60.653  1.00  0.00     0.001 A 
HETATM   29  C   UNL     1     -41.291  61.845 -59.852  1.00  0.00     0.002 A 
HETATM   30  C   UNL     1     -41.336  61.723 -58.462  1.00  0.00     0.030 A 
BRANCH  26  31
HETATM   31  C   UNL     1     -42.740  58.174 -58.191  1.00  0.00     0.254 C 
HETATM   32  N   UNL     1     -42.732  57.096 -59.039  1.00  0.00    -0.351 N 
HETATM   33  H   UNL     1     -42.379  57.234 -59.984  1.00  0.00     0.163 HD
HETATM   34  O   UNL     1     -43.328  58.173 -57.113  1.00  0.00    -0.268 OA
BRANCH  32  35
HETATM   35  C   UNL     1     -43.559  55.945 -58.757  1.00  0.00     0.187 C 
BRANCH  35  36
HETATM   36  C   UNL     1     -44.809  55.972 -59.555  1.00  0.00     0.070 A 
HETATM   37  O   UNL     1     -45.815  56.755 -59.061  1.00  0.00    -0.325 OA
HETATM   38  C   UNL     1     -46.848  56.681 -59.937  1.00  0.00     0.142 A 
HETATM   39  C   UNL     1     -46.528  55.864 -60.992  1.00  0.00     0.027 A 
HETATM   40  C   UNL     1     -45.208  55.410 -60.752  1.00  0.00     0.036 A 
ENDBRANCH  35  36
ENDBRANCH  32  35
ENDBRANCH  26  31
ENDBRANCH  22  25
ENDBRANCH   1  21
TORSDOF 7
ENDMDL
MODEL 10
REMARK VINA RESULT:      -8.7      2.028      8.172
REMARK  7 active torsions:
REMARK  status: ('A' for Active; 'I' for Inactive)
REMARK    1  A    between atoms: C_2  and  C_3 
REMARK    2  A    between atoms: N_16  and  C_17 
REMARK    3  A    between atoms: C_17  and  C_18 
REMARK       I    between atoms: C_18  and  N_19 
REMARK    4  A    between atoms: N_19  and  C_20 
REMARK    5  A    between atoms: C_21  and  C_22 
REMARK       I    between atoms: C_22  and  N_23 
REMARK    6  A    between atoms: N_23  and  C_24 
REMARK    7  A    between atoms: C_24  and  C_25 
ROOT
HETATM    1  C   UNL     1     -43.203  59.350 -55.091  1.00  0.00     0.240 C 
ENDROOT
BRANCH   1   2
HETATM    2  N   UNL     1     -43.502  59.424 -56.509  1.00  0.00    -0.259 N 
HETATM    3  C   UNL     1     -42.561  59.576 -57.478  1.00  0.00     0.326 A 
HETATM    4  N   UNL     1     -43.189  59.666 -58.694  1.00  0.00    -0.321 N 
HETATM    5  O   UNL     1     -41.352  59.583 -57.331  1.00  0.00    -0.247 OA
HETATM    6  C   UNL     1     -44.629  59.705 -58.580  1.00  0.00     0.140 A 
HETATM    7  H   UNL     1     -42.673  59.832 -59.548  1.00  0.00     0.165 HD
HETATM    8  C   UNL     1     -45.055  61.144 -58.935  1.00  0.00     0.055 C 
HETATM    9  C   UNL     1     -44.757  59.514 -57.046  1.00  0.00     0.261 A 
HETATM   10  O   UNL     1     -45.802  59.498 -56.411  1.00  0.00    -0.270 OA
BRANCH   6  11
HETATM   11  C   UNL     1     -45.396  58.610 -59.342  1.00  0.00    -0.010 A 
HETATM   12  C   UNL     1     -45.047  57.209 -59.420  1.00  0.00    -0.017 A 
HETATM   13  C   UNL     1     -45.882  56.347 -60.194  1.00  0.00    -0.025 A 
HETATM   14  C   UNL     1     -43.946  56.566 -58.789  1.00  0.00     0.013 A 
HETATM   15  C   UNL     1     -45.595  54.978 -60.329  1.00  0.00     0.012 A 
HETATM   16  C   UNL     1     -47.023  56.835 -60.835  1.00  0.00     0.012 A 
HETATM   17  C   UNL     1     -44.496  54.405 -59.704  1.00  0.00     0.001 A 
HETATM   18  C   UNL     1     -43.672  55.199 -58.928  1.00  0.00     0.001 A 
HETATM   19  C   UNL     1     -47.387  58.165 -60.721  1.00  0.00     0.002 A 
HETATM   20  C   UNL     1     -46.592  59.030 -59.980  1.00  0.00     0.011 A 
ENDBRANCH   6  11
ENDBRANCH   1   2
BRANCH   1  21
HETATM   21  C   UNL     1     -43.506  57.984 -54.466  1.00  0.00     0.240 C 
HETATM   22  N   UNL     1     -42.716  57.640 -53.377  1.00  0.00    -0.325 N 
HETATM   23  H   UNL     1     -42.364  58.451 -52.884  1.00  0.00     0.169 HD
HETATM   24  O   UNL     1     -44.352  57.241 -54.966  1.00  0.00    -0.271 OA
BRANCH  22  25
HETATM   25  C   UNL     1     -43.084  56.562 -52.534  1.00  0.00     0.050 A 
HETATM   26  C   UNL     1     -42.624  55.238 -52.651  1.00  0.00     0.058 A 
HETATM   27  C   UNL     1     -43.064  54.276 -51.722  1.00  0.00     0.019 A 
HETATM   28  C   UNL     1     -43.946  54.613 -50.696  1.00  0.00     0.001 A 
HETATM   29  C   UNL     1     -44.375  55.926 -50.564  1.00  0.00     0.002 A 
HETATM   30  C   UNL     1     -43.937  56.896 -51.467  1.00  0.00     0.030 A 
BRANCH  26  31
HETATM   31  C   UNL     1     -41.549  54.764 -53.563  1.00  0.00     0.254 C 
HETATM   32  N   UNL     1     -41.550  53.441 -53.920  1.00  0.00    -0.351 N 
HETATM   33  H   UNL     1     -42.225  52.825 -53.470  1.00  0.00     0.163 HD
HETATM   34  O   UNL     1     -40.655  55.543 -53.883  1.00  0.00    -0.268 OA
BRANCH  32  35
HETATM   35  C   UNL     1     -40.399  52.865 -54.577  1.00  0.00     0.187 C 
BRANCH  35  36
HETATM   36  C   UNL     1     -40.008  51.579 -53.948  1.00  0.00     0.070 A 
HETATM   37  O   UNL     1     -39.811  51.612 -52.596  1.00  0.00    -0.325 OA
HETATM   38  C   UNL     1     -39.502  50.350 -52.205  1.00  0.00     0.142 A 
HETATM   39  C   UNL     1     -39.497  49.499 -53.283  1.00  0.00     0.027 A 
HETATM   40  C   UNL     1     -39.831  50.289 -54.409  1.00  0.00     0.036 A 
ENDBRANCH  35  36
ENDBRANCH  32  35
ENDBRANCH  26  31
ENDBRANCH  22  25
ENDBRANCH   1  21
TORSDOF 7
ENDMDL
