MODEL 1
REMARK VINA RESULT:      -9.5      0.000      0.000
REMARK  7 active torsions:
REMARK  status: ('A' for Active; 'I' for Inactive)
REMARK    1  A    between atoms: C_2  and  N_3 
REMARK    2  A    between atoms: N_3  and  N_4 
REMARK       I    between atoms: N_4  and  C_5 
REMARK    3  A    between atoms: C_5  and  C_6 
REMARK       I    between atoms: C_6  and  N_7 
REMARK    4  A    between atoms: N_7  and  C_8 
REMARK    5  A    between atoms: C_9  and  O_10 
REMARK    6  A    between atoms: C_18  and  C_19 
REMARK       I    between atoms: C_19  and  N_20 
REMARK    7  A    between atoms: N_20  and  C_21 
ROOT
HETATM    1  N   UNL     1     -42.790  56.105 -58.229  1.00  0.00    -0.302 N 
HETATM    2  H   UNL     1     -42.533  57.051 -58.538  1.00  0.00     0.186 HD
ENDROOT
BRANCH   1   3
HETATM    3  C   UNL     1     -42.764  55.896 -56.858  1.00  0.00     0.027 C 
HETATM    4  C   UNL     1     -42.502  57.143 -56.041  1.00  0.00     0.070 C 
HETATM    5  C   UNL     1     -42.931  54.682 -56.296  1.00  0.00     0.100 C 
BRANCH   5   6
HETATM    6  C   UNL     1     -42.761  54.398 -54.840  1.00  0.00     0.247 C 
HETATM    7  N   UNL     1     -41.481  53.962 -54.554  1.00  0.00    -0.323 N 
HETATM    8  H   UNL     1     -40.860  53.858 -55.342  1.00  0.00     0.169 HD
HETATM    9  O   UNL     1     -43.680  54.573 -54.053  1.00  0.00    -0.268 OA
BRANCH   7  10
HETATM   10  C   UNL     1     -40.950  53.597 -53.289  1.00  0.00     0.041 A 
HETATM   11  C   UNL     1     -40.391  52.304 -53.121  1.00  0.00    -0.025 A 
HETATM   12  C   UNL     1     -39.932  51.905 -51.842  1.00  0.00    -0.050 A 
HETATM   13  C   UNL     1     -40.325  51.321 -54.276  1.00  0.00     0.041 C 
HETATM   14  C   UNL     1     -39.344  50.537 -51.584  1.00  0.00     0.039 C 
HETATM   15  C   UNL     1     -39.970  52.810 -50.772  1.00  0.00     0.008 A 
HETATM   16  C   UNL     1     -39.707  49.516 -52.654  1.00  0.00     0.005 C 
HETATM   17  C   UNL     1     -39.438  50.102 -54.030  1.00  0.00     0.005 C 
HETATM   18  C   UNL     1     -40.486  54.086 -50.950  1.00  0.00     0.003 A 
HETATM   19  C   UNL     1     -40.976  54.472 -52.197  1.00  0.00     0.030 A 
ENDBRANCH   7  10
ENDBRANCH   5   6
ENDBRANCH   1   3
BRANCH   1  20
HETATM   20  N   UNL     1     -43.672  55.458 -59.104  1.00  0.00    -0.262 N 
HETATM   21  C   UNL     1     -43.928  56.124 -60.298  1.00  0.00     0.328 C 
HETATM   22  O   UNL     1     -43.307  57.094 -60.712  1.00  0.00    -0.261 OA
HETATM   23  H   UNL     1     -44.458  54.965 -58.685  1.00  0.00     0.190 HD
BRANCH  21  24
HETATM   24  C   UNL     1     -45.173  55.600 -61.016  1.00  0.00     0.315 C 
HETATM   25  N   UNL     1     -46.420  56.017 -60.625  1.00  0.00    -0.316 N 
HETATM   26  H   UNL     1     -47.170  55.378 -60.873  1.00  0.00     0.169 HD
HETATM   27  O   UNL     1     -45.009  54.746 -61.887  1.00  0.00    -0.262 OA
BRANCH  25  28
HETATM   28  C   UNL     1     -46.834  57.156 -59.906  1.00  0.00     0.068 A 
HETATM   29  C   UNL     1     -47.436  58.196 -60.642  1.00  0.00     0.095 A 
HETATM   30  C   UNL     1     -47.801  59.388 -60.009  1.00  0.00     0.039 A 
HETATM   31  C   UNL     1     -47.585  59.543 -58.640  1.00  0.00     0.003 A 
HETATM   32  C   UNL     1     -46.995  58.516 -57.907  1.00  0.00     0.002 A 
HETATM   33  C   UNL     1     -46.614  57.327 -58.537  1.00  0.00     0.032 A 
BRANCH  29  34
HETATM   34  O   UNL     1     -47.607  57.975 -61.990  1.00  0.00    -0.354 OA
HETATM   35  C   UNL     1     -48.968  57.871 -62.400  1.00  0.00     0.210 C 
ENDBRANCH  29  34
ENDBRANCH  25  28
ENDBRANCH  21  24
ENDBRANCH   1  20
TORSDOF 7
ENDMDL
MODEL 2
REMARK VINA RESULT:      -9.1      1.511      1.951
REMARK  7 active torsions:
REMARK  status: ('A' for Active; 'I' for Inactive)
REMARK    1  A    between atoms: C_2  and  N_3 
REMARK    2  A    between atoms: N_3  and  N_4 
REMARK       I    between atoms: N_4  and  C_5 
REMARK    3  A    between atoms: C_5  and  C_6 
REMARK       I    between atoms: C_6  and  N_7 
REMARK    4  A    between atoms: N_7  and  C_8 
REMARK    5  A    between atoms: C_9  and  O_10 
REMARK    6  A    between atoms: C_18  and  C_19 
REMARK       I    between atoms: C_19  and  N_20 
REMARK    7  A    between atoms: N_20  and  C_21 
ROOT
HETATM    1  N   UNL     1     -42.523  56.355 -57.648  1.00  0.00    -0.302 N 
HETATM    2  H   UNL     1     -42.055  57.239 -57.884  1.00  0.00     0.186 HD
ENDROOT
BRANCH   1   3
HETATM    3  C   UNL     1     -42.520  56.017 -56.303  1.00  0.00     0.027 C 
HETATM    4  C   UNL     1     -42.133  57.148 -55.375  1.00  0.00     0.070 C 
HETATM    5  C   UNL     1     -42.812  54.778 -55.855  1.00  0.00     0.100 C 
BRANCH   5   6
HETATM    6  C   UNL     1     -42.674  54.343 -54.433  1.00  0.00     0.247 C 
HETATM    7  N   UNL     1     -41.377  53.968 -54.142  1.00  0.00    -0.323 N 
HETATM    8  H   UNL     1     -40.722  53.997 -54.908  1.00  0.00     0.169 HD
HETATM    9  O   UNL     1     -43.632  54.365 -53.673  1.00  0.00    -0.268 OA
BRANCH   7  10
HETATM   10  C   UNL     1     -40.866  53.499 -52.903  1.00  0.00     0.041 A 
HETATM   11  C   UNL     1     -40.321  52.190 -52.830  1.00  0.00    -0.025 A 
HETATM   12  C   UNL     1     -39.883  51.688 -51.580  1.00  0.00    -0.050 A 
HETATM   13  C   UNL     1     -40.249  51.301 -54.058  1.00  0.00     0.041 C 
HETATM   14  C   UNL     1     -39.311  50.298 -51.424  1.00  0.00     0.039 C 
HETATM   15  C   UNL     1     -39.928  52.506 -50.444  1.00  0.00     0.008 A 
HETATM   16  C   UNL     1     -39.669  49.368 -52.576  1.00  0.00     0.005 C 
HETATM   17  C   UNL     1     -39.376  50.058 -53.898  1.00  0.00     0.005 C 
HETATM   18  C   UNL     1     -40.429  53.798 -50.527  1.00  0.00     0.003 A 
HETATM   19  C   UNL     1     -40.898  54.285 -51.745  1.00  0.00     0.030 A 
ENDBRANCH   7  10
ENDBRANCH   5   6
ENDBRANCH   1   3
BRANCH   1  20
HETATM   20  N   UNL     1     -43.551  56.019 -58.539  1.00  0.00    -0.262 N 
HETATM   21  C   UNL     1     -43.246  56.162 -59.888  1.00  0.00     0.328 C 
HETATM   22  O   UNL     1     -42.126  56.355 -60.341  1.00  0.00    -0.261 OA
HETATM   23  H   UNL     1     -44.500  56.266 -58.262  1.00  0.00     0.190 HD
BRANCH  21  24
HETATM   24  C   UNL     1     -44.488  56.180 -60.781  1.00  0.00     0.315 C 
HETATM   25  N   UNL     1     -45.354  57.244 -60.733  1.00  0.00    -0.316 N 
HETATM   26  H   UNL     1     -46.296  57.030 -61.048  1.00  0.00     0.169 HD
HETATM   27  O   UNL     1     -44.710  55.182 -61.465  1.00  0.00    -0.262 OA
BRANCH  25  28
HETATM   28  C   UNL     1     -45.172  58.569 -60.290  1.00  0.00     0.068 A 
HETATM   29  C   UNL     1     -45.593  58.870 -58.978  1.00  0.00     0.095 A 
HETATM   30  C   UNL     1     -45.516  60.180 -58.497  1.00  0.00     0.039 A 
HETATM   31  C   UNL     1     -45.004  61.191 -59.310  1.00  0.00     0.003 A 
HETATM   32  C   UNL     1     -44.581  60.898 -60.605  1.00  0.00     0.002 A 
HETATM   33  C   UNL     1     -44.670  59.592 -61.097  1.00  0.00     0.032 A 
BRANCH  29  34
HETATM   34  O   UNL     1     -46.098  57.824 -58.240  1.00  0.00    -0.354 OA
HETATM   35  C   UNL     1     -47.266  58.145 -57.488  1.00  0.00     0.210 C 
ENDBRANCH  29  34
ENDBRANCH  25  28
ENDBRANCH  21  24
ENDBRANCH   1  20
TORSDOF 7
ENDMDL
MODEL 3
REMARK VINA RESULT:      -8.9      2.460      3.822
REMARK  7 active torsions:
REMARK  status: ('A' for Active; 'I' for Inactive)
REMARK    1  A    between atoms: C_2  and  N_3 
REMARK    2  A    between atoms: N_3  and  N_4 
REMARK       I    between atoms: N_4  and  C_5 
REMARK    3  A    between atoms: C_5  and  C_6 
REMARK       I    between atoms: C_6  and  N_7 
REMARK    4  A    between atoms: N_7  and  C_8 
REMARK    5  A    between atoms: C_9  and  O_10 
REMARK    6  A    between atoms: C_18  and  C_19 
REMARK       I    between atoms: C_19  and  N_20 
REMARK    7  A    between atoms: N_20  and  C_21 
ROOT
HETATM    1  N   UNL     1     -45.988  57.778 -55.984  1.00  0.00    -0.302 N 
HETATM    2  H   UNL     1     -46.884  57.528 -55.546  1.00  0.00     0.186 HD
ENDROOT
BRANCH   1   3
HETATM    3  C   UNL     1     -44.859  57.530 -55.219  1.00  0.00     0.027 C 
HETATM    4  C   UNL     1     -43.620  57.197 -56.023  1.00  0.00     0.070 C 
HETATM    5  C   UNL     1     -44.863  57.557 -53.870  1.00  0.00     0.100 C 
BRANCH   5   6
HETATM    6  C   UNL     1     -43.707  57.151 -53.016  1.00  0.00     0.247 C 
HETATM    7  N   UNL     1     -43.735  55.799 -52.735  1.00  0.00    -0.323 N 
HETATM    8  H   UNL     1     -44.525  55.285 -53.095  1.00  0.00     0.169 HD
HETATM    9  O   UNL     1     -42.866  57.967 -52.667  1.00  0.00    -0.268 OA
BRANCH   7  10
HETATM   10  C   UNL     1     -42.810  55.055 -51.957  1.00  0.00     0.041 A 
HETATM   11  C   UNL     1     -41.866  54.223 -52.613  1.00  0.00    -0.025 A 
HETATM   12  C   UNL     1     -40.993  53.418 -51.841  1.00  0.00    -0.050 A 
HETATM   13  C   UNL     1     -41.810  54.143 -54.128  1.00  0.00     0.041 C 
HETATM   14  C   UNL     1     -39.976  52.494 -52.472  1.00  0.00     0.039 C 
HETATM   15  C   UNL     1     -41.022  53.497 -50.443  1.00  0.00     0.008 A 
HETATM   16  C   UNL     1     -40.281  52.170 -53.928  1.00  0.00     0.005 C 
HETATM   17  C   UNL     1     -40.567  53.455 -54.688  1.00  0.00     0.005 C 
HETATM   18  C   UNL     1     -41.924  54.338 -49.806  1.00  0.00     0.003 A 
HETATM   19  C   UNL     1     -42.812  55.104 -50.558  1.00  0.00     0.030 A 
ENDBRANCH   7  10
ENDBRANCH   5   6
ENDBRANCH   1   3
BRANCH   1  20
HETATM   20  N   UNL     1     -46.018  57.709 -57.383  1.00  0.00    -0.262 N 
HETATM   21  C   UNL     1     -46.170  58.925 -58.040  1.00  0.00     0.328 C 
HETATM   22  O   UNL     1     -46.077  60.027 -57.515  1.00  0.00    -0.261 OA
HETATM   23  H   UNL     1     -46.498  56.911 -57.795  1.00  0.00     0.190 HD
BRANCH  21  24
HETATM   24  C   UNL     1     -46.598  58.764 -59.500  1.00  0.00     0.315 C 
HETATM   25  N   UNL     1     -45.653  58.586 -60.478  1.00  0.00    -0.316 N 
HETATM   26  H   UNL     1     -45.960  58.853 -61.409  1.00  0.00     0.169 HD
HETATM   27  O   UNL     1     -47.796  58.880 -59.756  1.00  0.00    -0.262 OA
BRANCH  25  28
HETATM   28  C   UNL     1     -44.320  58.134 -60.409  1.00  0.00     0.068 A 
HETATM   29  C   UNL     1     -44.120  56.762 -60.153  1.00  0.00     0.095 A 
HETATM   30  C   UNL     1     -42.827  56.256 -59.993  1.00  0.00     0.039 A 
HETATM   31  C   UNL     1     -41.728  57.108 -60.105  1.00  0.00     0.003 A 
HETATM   32  C   UNL     1     -41.920  58.463 -60.363  1.00  0.00     0.002 A 
HETATM   33  C   UNL     1     -43.212  58.978 -60.508  1.00  0.00     0.032 A 
BRANCH  29  34
HETATM   34  O   UNL     1     -45.252  55.986 -60.045  1.00  0.00    -0.354 OA
HETATM   35  C   UNL     1     -44.998  54.586 -59.958  1.00  0.00     0.210 C 
ENDBRANCH  29  34
ENDBRANCH  25  28
ENDBRANCH  21  24
ENDBRANCH   1  20
TORSDOF 7
ENDMDL
MODEL 4
REMARK VINA RESULT:      -8.8      2.309      3.823
REMARK  7 active torsions:
REMARK  status: ('A' for Active; 'I' for Inactive)
REMARK    1  A    between atoms: C_2  and  N_3 
REMARK    2  A    between atoms: N_3  and  N_4 
REMARK       I    between atoms: N_4  and  C_5 
REMARK    3  A    between atoms: C_5  and  C_6 
REMARK       I    between atoms: C_6  and  N_7 
REMARK    4  A    between atoms: N_7  and  C_8 
REMARK    5  A    between atoms: C_9  and  O_10 
REMARK    6  A    between atoms: C_18  and  C_19 
REMARK       I    between atoms: C_19  and  N_20 
REMARK    7  A    between atoms: N_20  and  C_21 
ROOT
HETATM    1  N   UNL     1     -45.741  57.716 -55.414  1.00  0.00    -0.302 N 
HETATM    2  H   UNL     1     -46.429  56.977 -55.604  1.00  0.00     0.186 HD
ENDROOT
BRANCH   1   3
HETATM    3  C   UNL     1     -44.731  57.379 -54.526  1.00  0.00     0.027 C 
HETATM    4  C   UNL     1     -44.747  58.168 -53.234  1.00  0.00     0.070 C 
HETATM    5  C   UNL     1     -43.795  56.447 -54.796  1.00  0.00     0.100 C 
BRANCH   5   6
HETATM    6  C   UNL     1     -42.612  56.166 -53.929  1.00  0.00     0.247 C 
HETATM    7  N   UNL     1     -42.808  55.040 -53.153  1.00  0.00    -0.323 N 
HETATM    8  H   UNL     1     -43.707  54.591 -53.238  1.00  0.00     0.169 HD
HETATM    9  O   UNL     1     -41.618  56.877 -53.971  1.00  0.00    -0.268 OA
BRANCH   7  10
HETATM   10  C   UNL     1     -41.913  54.467 -52.212  1.00  0.00     0.041 A 
HETATM   11  C   UNL     1     -41.080  53.391 -52.616  1.00  0.00    -0.025 A 
HETATM   12  C   UNL     1     -40.242  52.763 -51.661  1.00  0.00    -0.050 A 
HETATM   13  C   UNL     1     -41.112  52.866 -54.040  1.00  0.00     0.041 C 
HETATM   14  C   UNL     1     -39.345  51.599 -52.015  1.00  0.00     0.039 C 
HETATM   15  C   UNL     1     -40.191  53.250 -50.348  1.00  0.00     0.008 A 
HETATM   16  C   UNL     1     -39.754  50.896 -53.302  1.00  0.00     0.005 C 
HETATM   17  C   UNL     1     -39.965  51.925 -54.401  1.00  0.00     0.005 C 
HETATM   18  C   UNL     1     -40.981  54.326 -49.967  1.00  0.00     0.003 A 
HETATM   19  C   UNL     1     -41.837  54.924 -50.891  1.00  0.00     0.030 A 
ENDBRANCH   7  10
ENDBRANCH   5   6
ENDBRANCH   1   3
BRANCH   1  20
HETATM   20  N   UNL     1     -45.581  58.610 -56.482  1.00  0.00    -0.262 N 
HETATM   21  C   UNL     1     -46.584  58.579 -57.445  1.00  0.00     0.328 C 
HETATM   22  O   UNL     1     -47.655  57.999 -57.329  1.00  0.00    -0.261 OA
HETATM   23  H   UNL     1     -44.633  58.756 -56.823  1.00  0.00     0.190 HD
BRANCH  21  24
HETATM   24  C   UNL     1     -46.171  59.252 -58.755  1.00  0.00     0.315 C 
HETATM   25  N   UNL     1     -45.315  58.614 -59.617  1.00  0.00    -0.316 N 
HETATM   26  H   UNL     1     -44.813  59.237 -60.243  1.00  0.00     0.169 HD
HETATM   27  O   UNL     1     -46.571  60.399 -58.955  1.00  0.00    -0.262 OA
BRANCH  25  28
HETATM   28  C   UNL     1     -44.985  57.251 -59.757  1.00  0.00     0.068 A 
HETATM   29  C   UNL     1     -43.846  56.793 -59.064  1.00  0.00     0.095 A 
HETATM   30  C   UNL     1     -43.412  55.473 -59.217  1.00  0.00     0.039 A 
HETATM   31  C   UNL     1     -44.119  54.600 -60.044  1.00  0.00     0.003 A 
HETATM   32  C   UNL     1     -45.248  55.046 -60.726  1.00  0.00     0.002 A 
HETATM   33  C   UNL     1     -45.678  56.370 -60.589  1.00  0.00     0.032 A 
BRANCH  29  34
HETATM   34  O   UNL     1     -43.194  57.714 -58.276  1.00  0.00    -0.354 OA
HETATM   35  C   UNL     1     -41.940  58.150 -58.797  1.00  0.00     0.210 C 
ENDBRANCH  29  34
ENDBRANCH  25  28
ENDBRANCH  21  24
ENDBRANCH   1  20
TORSDOF 7
ENDMDL
MODEL 5
REMARK VINA RESULT:      -8.8      2.294      3.841
REMARK  7 active torsions:
REMARK  status: ('A' for Active; 'I' for Inactive)
REMARK    1  A    between atoms: C_2  and  N_3 
REMARK    2  A    between atoms: N_3  and  N_4 
REMARK       I    between atoms: N_4  and  C_5 
REMARK    3  A    between atoms: C_5  and  C_6 
REMARK       I    between atoms: C_6  and  N_7 
REMARK    4  A    between atoms: N_7  and  C_8 
REMARK    5  A    between atoms: C_9  and  O_10 
REMARK    6  A    between atoms: C_18  and  C_19 
REMARK       I    between atoms: C_19  and  N_20 
REMARK    7  A    between atoms: N_20  and  C_21 
ROOT
HETATM    1  N   UNL     1     -45.814  57.720 -54.948  1.00  0.00    -0.302 N 
HETATM    2  H   UNL     1     -46.594  57.758 -54.280  1.00  0.00     0.186 HD
ENDROOT
BRANCH   1   3
HETATM    3  C   UNL     1     -44.674  57.070 -54.500  1.00  0.00     0.027 C 
HETATM    4  C   UNL     1     -44.281  57.408 -53.078  1.00  0.00     0.070 C 
HETATM    5  C   UNL     1     -43.956  56.227 -55.271  1.00  0.00     0.100 C 
BRANCH   5   6
HETATM    6  C   UNL     1     -42.648  55.629 -54.871  1.00  0.00     0.247 C 
HETATM    7  N   UNL     1     -42.822  54.475 -54.132  1.00  0.00    -0.323 N 
HETATM    8  H   UNL     1     -43.775  54.215 -53.930  1.00  0.00     0.169 HD
HETATM    9  O   UNL     1     -41.591  56.141 -55.213  1.00  0.00    -0.268 OA
BRANCH   7  10
HETATM   10  C   UNL     1     -41.818  53.637 -53.581  1.00  0.00     0.041 A 
HETATM   11  C   UNL     1     -41.461  53.791 -52.216  1.00  0.00    -0.025 A 
HETATM   12  C   UNL     1     -40.405  53.013 -51.680  1.00  0.00    -0.050 A 
HETATM   13  C   UNL     1     -42.155  54.813 -51.334  1.00  0.00     0.041 C 
HETATM   14  C   UNL     1     -39.958  53.139 -50.242  1.00  0.00     0.039 C 
HETATM   15  C   UNL     1     -39.769  52.053 -52.479  1.00  0.00     0.008 A 
HETATM   16  C   UNL     1     -40.400  54.440 -49.587  1.00  0.00     0.005 C 
HETATM   17  C   UNL     1     -41.883  54.659 -49.839  1.00  0.00     0.005 C 
HETATM   18  C   UNL     1     -40.146  51.881 -53.804  1.00  0.00     0.003 A 
HETATM   19  C   UNL     1     -41.157  52.671 -54.349  1.00  0.00     0.030 A 
ENDBRANCH   7  10
ENDBRANCH   5   6
ENDBRANCH   1   3
BRANCH   1  20
HETATM   20  N   UNL     1     -46.230  57.740 -56.286  1.00  0.00    -0.262 N 
HETATM   21  C   UNL     1     -45.898  58.886 -57.000  1.00  0.00     0.328 C 
HETATM   22  O   UNL     1     -45.122  59.754 -56.620  1.00  0.00    -0.261 OA
HETATM   23  H   UNL     1     -47.138  57.327 -56.493  1.00  0.00     0.190 HD
BRANCH  21  24
HETATM   24  C   UNL     1     -46.704  59.037 -58.292  1.00  0.00     0.315 C 
HETATM   25  N   UNL     1     -46.301  58.391 -59.433  1.00  0.00    -0.316 N 
HETATM   26  H   UNL     1     -46.639  58.814 -60.293  1.00  0.00     0.169 HD
HETATM   27  O   UNL     1     -47.660  59.812 -58.277  1.00  0.00    -0.262 OA
BRANCH  25  28
HETATM   28  C   UNL     1     -45.470  57.269 -59.619  1.00  0.00     0.068 A 
HETATM   29  C   UNL     1     -46.089  56.075 -60.045  1.00  0.00     0.095 A 
HETATM   30  C   UNL     1     -45.340  54.902 -60.176  1.00  0.00     0.039 A 
HETATM   31  C   UNL     1     -43.973  54.914 -59.902  1.00  0.00     0.003 A 
HETATM   32  C   UNL     1     -43.356  56.092 -59.485  1.00  0.00     0.002 A 
HETATM   33  C   UNL     1     -44.102  57.266 -59.338  1.00  0.00     0.032 A 
BRANCH  29  34
HETATM   34  O   UNL     1     -47.442  56.138 -60.286  1.00  0.00    -0.354 OA
HETATM   35  C   UNL     1     -47.785  56.493 -61.623  1.00  0.00     0.210 C 
ENDBRANCH  29  34
ENDBRANCH  25  28
ENDBRANCH  21  24
ENDBRANCH   1  20
TORSDOF 7
ENDMDL
MODEL 6
REMARK VINA RESULT:      -8.6      3.748      9.496
REMARK  7 active torsions:
REMARK  status: ('A' for Active; 'I' for Inactive)
REMARK    1  A    between atoms: C_2  and  N_3 
REMARK    2  A    between atoms: N_3  and  N_4 
REMARK       I    between atoms: N_4  and  C_5 
REMARK    3  A    between atoms: C_5  and  C_6 
REMARK       I    between atoms: C_6  and  N_7 
REMARK    4  A    between atoms: N_7  and  C_8 
REMARK    5  A    between atoms: C_9  and  O_10 
REMARK    6  A    between atoms: C_18  and  C_19 
REMARK       I    between atoms: C_19  and  N_20 
REMARK    7  A    between atoms: N_20  and  C_21 
ROOT
HETATM    1  N   UNL     1     -42.950  57.916 -51.543  1.00  0.00    -0.302 N 
HETATM    2  H   UNL     1     -42.415  58.675 -51.103  1.00  0.00     0.186 HD
ENDROOT
BRANCH   1   3
HETATM    3  C   UNL     1     -43.005  57.948 -52.928  1.00  0.00     0.027 C 
HETATM    4  C   UNL     1     -41.834  58.649 -53.584  1.00  0.00     0.070 C 
HETATM    5  C   UNL     1     -44.025  57.423 -53.637  1.00  0.00     0.100 C 
BRANCH   5   6
HETATM    6  C   UNL     1     -44.189  57.570 -55.113  1.00  0.00     0.247 C 
HETATM    7  N   UNL     1     -43.119  57.026 -55.798  1.00  0.00    -0.323 N 
HETATM    8  H   UNL     1     -42.374  56.649 -55.233  1.00  0.00     0.169 HD
HETATM    9  O   UNL     1     -45.185  58.098 -55.587  1.00  0.00    -0.268 OA
BRANCH   7  10
HETATM   10  C   UNL     1     -42.921  56.979 -57.203  1.00  0.00     0.041 A 
HETATM   11  C   UNL     1     -42.500  58.152 -57.882  1.00  0.00    -0.025 A 
HETATM   12  C   UNL     1     -42.378  58.133 -59.293  1.00  0.00    -0.050 A 
HETATM   13  C   UNL     1     -42.231  59.441 -57.128  1.00  0.00     0.041 C 
HETATM   14  C   UNL     1     -41.954  59.349 -60.084  1.00  0.00     0.039 C 
HETATM   15  C   UNL     1     -42.606  56.944 -59.999  1.00  0.00     0.008 A 
HETATM   16  C   UNL     1     -42.123  60.653 -59.316  1.00  0.00     0.005 C 
HETATM   17  C   UNL     1     -41.505  60.515 -57.935  1.00  0.00     0.005 C 
HETATM   18  C   UNL     1     -42.983  55.790 -59.326  1.00  0.00     0.003 A 
HETATM   19  C   UNL     1     -43.144  55.811 -57.942  1.00  0.00     0.030 A 
ENDBRANCH   7  10
ENDBRANCH   5   6
ENDBRANCH   1   3
BRANCH   1  20
HETATM   20  N   UNL     1     -42.964  56.738 -50.784  1.00  0.00    -0.262 N 
HETATM   21  C   UNL     1     -41.717  56.187 -50.511  1.00  0.00     0.328 C 
HETATM   22  O   UNL     1     -40.643  56.742 -50.700  1.00  0.00    -0.261 OA
HETATM   23  H   UNL     1     -43.718  56.079 -50.970  1.00  0.00     0.190 HD
BRANCH  21  24
HETATM   24  C   UNL     1     -41.799  54.730 -50.050  1.00  0.00     0.315 C 
HETATM   25  N   UNL     1     -41.993  53.729 -50.968  1.00  0.00    -0.316 N 
HETATM   26  H   UNL     1     -42.396  52.880 -50.580  1.00  0.00     0.169 HD
HETATM   27  O   UNL     1     -41.764  54.514 -48.839  1.00  0.00    -0.262 OA
BRANCH  25  28
HETATM   28  C   UNL     1     -41.766  53.687 -52.358  1.00  0.00     0.068 A 
HETATM   29  C   UNL     1     -40.516  53.199 -52.790  1.00  0.00     0.095 A 
HETATM   30  C   UNL     1     -40.191  53.202 -54.150  1.00  0.00     0.039 A 
HETATM   31  C   UNL     1     -41.112  53.673 -55.085  1.00  0.00     0.003 A 
HETATM   32  C   UNL     1     -42.350  54.151 -54.663  1.00  0.00     0.002 A 
HETATM   33  C   UNL     1     -42.676  54.165 -53.303  1.00  0.00     0.032 A 
BRANCH  29  34
HETATM   34  O   UNL     1     -39.655  52.763 -51.810  1.00  0.00    -0.354 OA
HETATM   35  C   UNL     1     -39.387  51.362 -51.844  1.00  0.00     0.210 C 
ENDBRANCH  29  34
ENDBRANCH  25  28
ENDBRANCH  21  24
ENDBRANCH   1  20
TORSDOF 7
ENDMDL
MODEL 7
REMARK VINA RESULT:      -8.5      1.832      2.977
REMARK  7 active torsions:
REMARK  status: ('A' for Active; 'I' for Inactive)
REMARK    1  A    between atoms: C_2  and  N_3 
REMARK    2  A    between atoms: N_3  and  N_4 
REMARK       I    between atoms: N_4  and  C_5 
REMARK    3  A    between atoms: C_5  and  C_6 
REMARK       I    between atoms: C_6  and  N_7 
REMARK    4  A    between atoms: N_7  and  C_8 
REMARK    5  A    between atoms: C_9  and  O_10 
REMARK    6  A    between atoms: C_18  and  C_19 
REMARK       I    between atoms: C_19  and  N_20 
REMARK    7  A    between atoms: N_20  and  C_21 
ROOT
HETATM    1  N   UNL     1     -44.107  56.797 -56.521  1.00  0.00    -0.302 N 
HETATM    2  H   UNL     1     -45.087  56.948 -56.253  1.00  0.00     0.186 HD
ENDROOT
BRANCH   1   3
HETATM    3  C   UNL     1     -43.288  56.281 -55.528  1.00  0.00     0.027 C 
HETATM    4  C   UNL     1     -43.624  56.759 -54.131  1.00  0.00     0.070 C 
HETATM    5  C   UNL     1     -42.261  55.444 -55.781  1.00  0.00     0.100 C 
BRANCH   5   6
HETATM    6  C   UNL     1     -41.273  54.990 -54.758  1.00  0.00     0.247 C 
HETATM    7  N   UNL     1     -41.659  53.799 -54.174  1.00  0.00    -0.323 N 
HETATM    8  H   UNL     1     -42.545  53.422 -54.474  1.00  0.00     0.169 HD
HETATM    9  O   UNL     1     -40.258  55.635 -54.534  1.00  0.00    -0.268 OA
BRANCH   7  10
HETATM   10  C   UNL     1     -40.979  53.066 -53.167  1.00  0.00     0.041 A 
HETATM   11  C   UNL     1     -41.124  53.457 -51.810  1.00  0.00    -0.025 A 
HETATM   12  C   UNL     1     -40.387  52.780 -50.808  1.00  0.00    -0.050 A 
HETATM   13  C   UNL     1     -42.014  54.623 -51.421  1.00  0.00     0.041 C 
HETATM   14  C   UNL     1     -40.476  53.155 -49.347  1.00  0.00     0.039 C 
HETATM   15  C   UNL     1     -39.576  51.690 -51.153  1.00  0.00     0.008 A 
HETATM   16  C   UNL     1     -41.031  54.554 -49.119  1.00  0.00     0.005 C 
HETATM   17  C   UNL     1     -42.306  54.734 -49.926  1.00  0.00     0.005 C 
HETATM   18  C   UNL     1     -39.465  51.288 -52.477  1.00  0.00     0.003 A 
HETATM   19  C   UNL     1     -40.157  51.975 -53.473  1.00  0.00     0.030 A 
ENDBRANCH   7  10
ENDBRANCH   5   6
ENDBRANCH   1   3
BRANCH   1  20
HETATM   20  N   UNL     1     -43.941  56.536 -57.888  1.00  0.00    -0.262 N 
HETATM   21  C   UNL     1     -43.106  57.416 -58.569  1.00  0.00     0.328 C 
HETATM   22  O   UNL     1     -42.375  58.245 -58.043  1.00  0.00    -0.261 OA
HETATM   23  H   UNL     1     -44.758  56.205 -58.397  1.00  0.00     0.190 HD
BRANCH  21  24
HETATM   24  C   UNL     1     -43.277  57.343 -60.088  1.00  0.00     0.315 C 
HETATM   25  N   UNL     1     -44.398  57.867 -60.680  1.00  0.00    -0.316 N 
HETATM   26  H   UNL     1     -44.613  57.468 -61.589  1.00  0.00     0.169 HD
HETATM   27  O   UNL     1     -42.419  56.734 -60.726  1.00  0.00    -0.262 OA
BRANCH  25  28
HETATM   28  C   UNL     1     -45.320  58.832 -60.229  1.00  0.00     0.068 A 
HETATM   29  C   UNL     1     -46.495  58.357 -59.611  1.00  0.00     0.095 A 
HETATM   30  C   UNL     1     -47.491  59.252 -59.209  1.00  0.00     0.039 A 
HETATM   31  C   UNL     1     -47.315  60.622 -59.404  1.00  0.00     0.003 A 
HETATM   32  C   UNL     1     -46.154  61.096 -60.010  1.00  0.00     0.002 A 
HETATM   33  C   UNL     1     -45.161  60.205 -60.428  1.00  0.00     0.032 A 
BRANCH  29  34
HETATM   34  O   UNL     1     -46.603  56.993 -59.463  1.00  0.00    -0.354 OA
HETATM   35  C   UNL     1     -47.333  56.345 -60.503  1.00  0.00     0.210 C 
ENDBRANCH  29  34
ENDBRANCH  25  28
ENDBRANCH  21  24
ENDBRANCH   1  20
TORSDOF 7
ENDMDL
MODEL 8
REMARK VINA RESULT:      -8.3      3.910     10.065
REMARK  7 active torsions:
REMARK  status: ('A' for Active; 'I' for Inactive)
REMARK    1  A    between atoms: C_2  and  N_3 
REMARK    2  A    between atoms: N_3  and  N_4 
REMARK       I    between atoms: N_4  and  C_5 
REMARK    3  A    between atoms: C_5  and  C_6 
REMARK       I    between atoms: C_6  and  N_7 
REMARK    4  A    between atoms: N_7  and  C_8 
REMARK    5  A    between atoms: C_9  and  O_10 
REMARK    6  A    between atoms: C_18  and  C_19 
REMARK       I    between atoms: C_19  and  N_20 
REMARK    7  A    between atoms: N_20  and  C_21 
ROOT
HETATM    1  N   UNL     1     -42.546  57.890 -50.729  1.00  0.00    -0.302 N 
HETATM    2  H   UNL     1     -42.901  58.410 -49.917  1.00  0.00     0.186 HD
ENDROOT
BRANCH   1   3
HETATM    3  C   UNL     1     -42.513  58.593 -51.923  1.00  0.00     0.027 C 
HETATM    4  C   UNL     1     -43.036  60.011 -51.828  1.00  0.00     0.070 C 
HETATM    5  C   UNL     1     -42.077  58.057 -53.081  1.00  0.00     0.100 C 
BRANCH   5   6
HETATM    6  C   UNL     1     -42.167  58.734 -54.409  1.00  0.00     0.247 C 
HETATM    7  N   UNL     1     -43.292  58.337 -55.106  1.00  0.00    -0.323 N 
HETATM    8  H   UNL     1     -43.867  57.637 -54.662  1.00  0.00     0.169 HD
HETATM    9  O   UNL     1     -41.323  59.546 -54.760  1.00  0.00    -0.268 OA
BRANCH   7  10
HETATM   10  C   UNL     1     -43.710  58.761 -56.394  1.00  0.00     0.041 A 
HETATM   11  C   UNL     1     -43.583  57.869 -57.491  1.00  0.00    -0.025 A 
HETATM   12  C   UNL     1     -43.924  58.313 -58.792  1.00  0.00    -0.050 A 
HETATM   13  C   UNL     1     -43.038  56.465 -57.302  1.00  0.00     0.041 C 
HETATM   14  C   UNL     1     -43.796  57.425 -60.009  1.00  0.00     0.039 C 
HETATM   15  C   UNL     1     -44.446  59.600 -58.977  1.00  0.00     0.008 A 
HETATM   16  C   UNL     1     -42.869  56.237 -59.789  1.00  0.00     0.005 C 
HETATM   17  C   UNL     1     -43.240  55.533 -58.495  1.00  0.00     0.005 C 
HETATM   18  C   UNL     1     -44.602  60.457 -57.896  1.00  0.00     0.003 A 
HETATM   19  C   UNL     1     -44.231  60.040 -56.618  1.00  0.00     0.030 A 
ENDBRANCH   7  10
ENDBRANCH   5   6
ENDBRANCH   1   3
BRANCH   1  20
HETATM   20  N   UNL     1     -41.631  56.886 -50.384  1.00  0.00    -0.262 N 
HETATM   21  C   UNL     1     -42.172  55.617 -50.205  1.00  0.00     0.328 C 
HETATM   22  O   UNL     1     -43.309  55.285 -50.514  1.00  0.00    -0.261 OA
HETATM   23  H   UNL     1     -40.875  57.147 -49.754  1.00  0.00     0.190 HD
BRANCH  21  24
HETATM   24  C   UNL     1     -41.235  54.671 -49.452  1.00  0.00     0.315 C 
HETATM   25  N   UNL     1     -40.721  53.566 -50.083  1.00  0.00    -0.316 N 
HETATM   26  H   UNL     1     -40.433  52.823 -49.453  1.00  0.00     0.169 HD
HETATM   27  O   UNL     1     -41.035  54.900 -48.260  1.00  0.00    -0.262 OA
BRANCH  25  28
HETATM   28  C   UNL     1     -40.559  53.271 -51.451  1.00  0.00     0.068 A 
HETATM   29  C   UNL     1     -40.088  51.983 -51.778  1.00  0.00     0.095 A 
HETATM   30  C   UNL     1     -39.829  51.644 -53.110  1.00  0.00     0.039 A 
HETATM   31  C   UNL     1     -40.054  52.578 -54.121  1.00  0.00     0.003 A 
HETATM   32  C   UNL     1     -40.525  53.850 -53.804  1.00  0.00     0.002 A 
HETATM   33  C   UNL     1     -40.771  54.199 -52.472  1.00  0.00     0.032 A 
BRANCH  29  34
HETATM   34  O   UNL     1     -39.878  51.120 -50.726  1.00  0.00    -0.354 OA
HETATM   35  C   UNL     1     -39.496  49.802 -51.114  1.00  0.00     0.210 C 
ENDBRANCH  29  34
ENDBRANCH  25  28
ENDBRANCH  21  24
ENDBRANCH   1  20
TORSDOF 7
ENDMDL
MODEL 9
REMARK VINA RESULT:      -8.3      2.560      3.158
REMARK  7 active torsions:
REMARK  status: ('A' for Active; 'I' for Inactive)
REMARK    1  A    between atoms: C_2  and  N_3 
REMARK    2  A    between atoms: N_3  and  N_4 
REMARK       I    between atoms: N_4  and  C_5 
REMARK    3  A    between atoms: C_5  and  C_6 
REMARK       I    between atoms: C_6  and  N_7 
REMARK    4  A    between atoms: N_7  and  C_8 
REMARK    5  A    between atoms: C_9  and  O_10 
REMARK    6  A    between atoms: C_18  and  C_19 
REMARK       I    between atoms: C_19  and  N_20 
REMARK    7  A    between atoms: N_20  and  C_21 
ROOT
HETATM    1  N   UNL     1     -44.440  57.030 -56.312  1.00  0.00    -0.302 N 
HETATM    2  H   UNL     1     -45.331  56.806 -55.852  1.00  0.00     0.186 HD
ENDROOT
BRANCH   1   3
HETATM    3  C   UNL     1     -43.299  56.651 -55.621  1.00  0.00     0.027 C 
HETATM    4  C   UNL     1     -42.546  55.496 -56.246  1.00  0.00     0.070 C 
HETATM    5  C   UNL     1     -42.901  57.241 -54.475  1.00  0.00     0.100 C 
BRANCH   5   6
HETATM    6  C   UNL     1     -41.766  56.763 -53.632  1.00  0.00     0.247 C 
HETATM    7  N   UNL     1     -42.119  55.653 -52.889  1.00  0.00    -0.323 N 
HETATM    8  H   UNL     1     -43.075  55.343 -52.978  1.00  0.00     0.169 HD
HETATM    9  O   UNL     1     -40.679  57.322 -53.664  1.00  0.00    -0.268 OA
BRANCH   7  10
HETATM   10  C   UNL     1     -41.311  54.925 -51.977  1.00  0.00     0.041 A 
HETATM   11  C   UNL     1     -40.710  53.712 -52.402  1.00  0.00    -0.025 A 
HETATM   12  C   UNL     1     -39.967  52.941 -51.474  1.00  0.00    -0.050 A 
HETATM   13  C   UNL     1     -40.892  53.200 -53.819  1.00  0.00     0.041 C 
HETATM   14  C   UNL     1     -39.316  51.630 -51.851  1.00  0.00     0.039 C 
HETATM   15  C   UNL     1     -39.776  53.412 -50.168  1.00  0.00     0.008 A 
HETATM   16  C   UNL     1     -39.897  51.012 -53.115  1.00  0.00     0.005 C 
HETATM   17  C   UNL     1     -39.955  52.060 -54.214  1.00  0.00     0.005 C 
HETATM   18  C   UNL     1     -40.336  54.617 -49.767  1.00  0.00     0.003 A 
HETATM   19  C   UNL     1     -41.101  55.362 -50.664  1.00  0.00     0.030 A 
ENDBRANCH   7  10
ENDBRANCH   5   6
ENDBRANCH   1   3
BRANCH   1  20
HETATM   20  N   UNL     1     -44.534  57.072 -57.709  1.00  0.00    -0.262 N 
HETATM   21  C   UNL     1     -45.652  57.725 -58.216  1.00  0.00     0.328 C 
HETATM   22  O   UNL     1     -46.422  58.416 -57.562  1.00  0.00    -0.261 OA
HETATM   23  H   UNL     1     -44.226  56.244 -58.217  1.00  0.00     0.190 HD
BRANCH  21  24
HETATM   24  C   UNL     1     -45.917  57.397 -59.686  1.00  0.00     0.315 C 
HETATM   25  N   UNL     1     -45.395  58.194 -60.673  1.00  0.00    -0.316 N 
HETATM   26  H   UNL     1     -45.895  58.146 -61.556  1.00  0.00     0.169 HD
HETATM   27  O   UNL     1     -46.670  56.455 -59.931  1.00  0.00    -0.262 OA
BRANCH  25  28
HETATM   28  C   UNL     1     -44.311  59.094 -60.662  1.00  0.00     0.068 A 
HETATM   29  C   UNL     1     -44.614  60.466 -60.779  1.00  0.00     0.095 A 
HETATM   30  C   UNL     1     -43.587  61.411 -60.854  1.00  0.00     0.039 A 
HETATM   31  C   UNL     1     -42.256  60.998 -60.795  1.00  0.00     0.003 A 
HETATM   32  C   UNL     1     -41.951  59.645 -60.676  1.00  0.00     0.002 A 
HETATM   33  C   UNL     1     -42.974  58.693 -60.615  1.00  0.00     0.032 A 
BRANCH  29  34
HETATM   34  O   UNL     1     -45.949  60.796 -60.842  1.00  0.00    -0.354 OA
HETATM   35  C   UNL     1     -46.461  61.401 -59.656  1.00  0.00     0.210 C 
ENDBRANCH  29  34
ENDBRANCH  25  28
ENDBRANCH  21  24
ENDBRANCH   1  20
TORSDOF 7
ENDMDL
MODEL 10
REMARK VINA RESULT:      -8.2      2.071      2.544
REMARK  7 active torsions:
REMARK  status: ('A' for Active; 'I' for Inactive)
REMARK    1  A    between atoms: C_2  and  N_3 
REMARK    2  A    between atoms: N_3  and  N_4 
REMARK       I    between atoms: N_4  and  C_5 
REMARK    3  A    between atoms: C_5  and  C_6 
REMARK       I    between atoms: C_6  and  N_7 
REMARK    4  A    between atoms: N_7  and  C_8 
REMARK    5  A    between atoms: C_9  and  O_10 
REMARK    6  A    between atoms: C_18  and  C_19 
REMARK       I    between atoms: C_19  and  N_20 
REMARK    7  A    between atoms: N_20  and  C_21 
ROOT
HETATM    1  N   UNL     1     -44.208  56.860 -56.464  1.00  0.00    -0.302 N 
HETATM    2  H   UNL     1     -45.194  57.001 -56.209  1.00  0.00     0.186 HD
ENDROOT
BRANCH   1   3
HETATM    3  C   UNL     1     -43.377  56.445 -55.435  1.00  0.00     0.027 C 
HETATM    4  C   UNL     1     -43.631  57.133 -54.111  1.00  0.00     0.070 C 
HETATM    5  C   UNL     1     -42.406  55.524 -55.600  1.00  0.00     0.100 C 
BRANCH   5   6
HETATM    6  C   UNL     1     -41.401  55.164 -54.555  1.00  0.00     0.247 C 
HETATM    7  N   UNL     1     -41.884  54.191 -53.702  1.00  0.00    -0.323 N 
HETATM    8  H   UNL     1     -42.832  53.887 -53.863  1.00  0.00     0.169 HD
HETATM    9  O   UNL     1     -40.299  55.692 -54.534  1.00  0.00    -0.268 OA
BRANCH   7  10
HETATM   10  C   UNL     1     -41.221  53.601 -52.594  1.00  0.00     0.041 A 
HETATM   11  C   UNL     1     -40.571  52.350 -52.762  1.00  0.00    -0.025 A 
HETATM   12  C   UNL     1     -39.976  51.719 -51.642  1.00  0.00    -0.050 A 
HETATM   13  C   UNL     1     -40.549  51.653 -54.110  1.00  0.00     0.041 C 
HETATM   14  C   UNL     1     -39.285  50.379 -51.743  1.00  0.00     0.039 C 
HETATM   15  C   UNL     1     -39.974  52.362 -50.397  1.00  0.00     0.008 A 
HETATM   16  C   UNL     1     -39.679  49.592 -52.985  1.00  0.00     0.005 C 
HETATM   17  C   UNL     1     -39.571  50.484 -54.210  1.00  0.00     0.005 C 
HETATM   18  C   UNL     1     -40.580  53.601 -50.245  1.00  0.00     0.003 A 
HETATM   19  C   UNL     1     -41.202  54.211 -51.334  1.00  0.00     0.030 A 
ENDBRANCH   7  10
ENDBRANCH   5   6
ENDBRANCH   1   3
BRANCH   1  20
HETATM   20  N   UNL     1     -44.030  56.505 -57.808  1.00  0.00    -0.262 N 
HETATM   21  C   UNL     1     -43.274  57.391 -58.567  1.00  0.00     0.328 C 
HETATM   22  O   UNL     1     -42.608  58.314 -58.118  1.00  0.00    -0.261 OA
HETATM   23  H   UNL     1     -44.821  56.069 -58.279  1.00  0.00     0.190 HD
BRANCH  21  24
HETATM   24  C   UNL     1     -43.447  57.182 -60.073  1.00  0.00     0.315 C 
HETATM   25  N   UNL     1     -44.426  57.861 -60.754  1.00  0.00    -0.316 N 
HETATM   26  H   UNL     1     -44.716  57.416 -61.619  1.00  0.00     0.169 HD
HETATM   27  O   UNL     1     -42.736  56.336 -60.614  1.00  0.00    -0.262 OA
BRANCH  25  28
HETATM   28  C   UNL     1     -45.123  59.045 -60.440  1.00  0.00     0.068 A 
HETATM   29  C   UNL     1     -44.537  60.261 -60.847  1.00  0.00     0.095 A 
HETATM   30  C   UNL     1     -45.132  61.479 -60.503  1.00  0.00     0.039 A 
HETATM   31  C   UNL     1     -46.318  61.491 -59.770  1.00  0.00     0.003 A 
HETATM   32  C   UNL     1     -46.903  60.292 -59.370  1.00  0.00     0.002 A 
HETATM   33  C   UNL     1     -46.305  59.071 -59.698  1.00  0.00     0.032 A 
BRANCH  29  34
HETATM   34  O   UNL     1     -43.362  60.170 -61.557  1.00  0.00    -0.354 OA
HETATM   35  C   UNL     1     -42.212  60.632 -60.852  1.00  0.00     0.210 C 
ENDBRANCH  29  34
ENDBRANCH  25  28
ENDBRANCH  21  24
ENDBRANCH   1  20
TORSDOF 7
ENDMDL
