MODEL 1
REMARK VINA RESULT:      -8.3      0.000      0.000
REMARK  6 active torsions:
REMARK  status: ('A' for Active; 'I' for Inactive)
REMARK    1  A    between atoms: C_2  and  C_3 
REMARK    2  A    between atoms: C_7  and  C_8 
REMARK       I    between atoms: C_8  and  N_9 
REMARK    3  A    between atoms: N_9  and  C_10 
REMARK    4  A    between atoms: C_10  and  C_11 
REMARK    5  A    between atoms: C_11  and  N_12 
REMARK    6  A    between atoms: C_15  and  C_16 
ROOT
HETATM    1  C   UNL     1     -42.505  57.432 -55.137  1.00  0.00     0.150 C 
ENDROOT
BRANCH   1   2
HETATM    2  N   UNL     1     -43.495  57.169 -56.152  1.00  0.00    -0.354 N 
HETATM    3  C   UNL     1     -43.274  57.453 -57.487  1.00  0.00     0.272 C 
HETATM    4  O   UNL     1     -42.165  57.787 -57.899  1.00  0.00    -0.266 OA
HETATM    5  H   UNL     1     -44.482  57.030 -55.923  1.00  0.00     0.162 HD
BRANCH   3   6
HETATM    6  C   UNL     1     -44.481  57.304 -58.317  1.00  0.00     0.152 A 
HETATM    7  N   UNL     1     -45.508  58.167 -58.163  1.00  0.00    -0.169 NA
HETATM    8  N   UNL     1     -46.419  57.758 -59.060  1.00  0.00    -0.281 N 
HETATM    9  C   UNL     1     -46.030  56.664 -59.780  1.00  0.00     0.036 A 
HETATM   10  H   UNL     1     -47.293  58.270 -59.133  1.00  0.00     0.189 HD
HETATM   11  C   UNL     1     -44.765  56.334 -59.325  1.00  0.00    -0.002 A 
HETATM   12  C   UNL     1     -43.907  55.218 -59.799  1.00  0.00     0.053 C 
BRANCH   9  13
HETATM   13  C   UNL     1     -46.906  56.057 -60.822  1.00  0.00     0.055 C 
HETATM   14  C   UNL     1     -47.818  57.095 -61.458  1.00  0.00     0.011 C 
ENDBRANCH   9  13
ENDBRANCH   3   6
ENDBRANCH   1   2
BRANCH   1  15
HETATM   15  C   UNL     1     -42.468  56.353 -54.038  1.00  0.00     0.254 C 
BRANCH  15  16
HETATM   16  N   UNL     1     -42.503  54.955 -54.630  1.00  0.00    -0.069 N 
HETATM   17  H   UNL     1     -43.427  54.817 -55.063  1.00  0.00     0.280 HD
HETATM   18  C   UNL     1     -42.246  53.843 -53.633  1.00  0.00     0.244 C 
HETATM   19  C   UNL     1     -40.721  53.701 -53.594  1.00  0.00     0.046 C 
HETATM   20  C   UNL     1     -40.218  54.261 -54.931  1.00  0.00     0.039 C 
HETATM   21  C   UNL     1     -41.448  54.729 -55.687  1.00  0.00     0.235 C 
BRANCH  19  22
HETATM   22  C   UNL     1     -40.290  52.282 -53.283  1.00  0.00    -0.046 A 
HETATM   23  C   UNL     1     -39.918  51.888 -51.977  1.00  0.00    -0.055 A 
HETATM   24  C   UNL     1     -39.884  52.849 -50.818  1.00  0.00     0.049 C 
HETATM   25  C   UNL     1     -39.552  50.552 -51.737  1.00  0.00     0.007 A 
HETATM   26  C   UNL     1     -39.555  49.610 -52.763  1.00  0.00     0.001 A 
HETATM   27  C   UNL     1     -39.922  49.989 -54.047  1.00  0.00     0.001 A 
HETATM   28  C   UNL     1     -40.285  51.311 -54.306  1.00  0.00     0.008 A 
ENDBRANCH  19  22
ENDBRANCH  15  16
ENDBRANCH   1  15
TORSDOF 6
ENDMDL
MODEL 2
REMARK VINA RESULT:      -8.1      2.527      3.862
REMARK  6 active torsions:
REMARK  status: ('A' for Active; 'I' for Inactive)
REMARK    1  A    between atoms: C_2  and  C_3 
REMARK    2  A    between atoms: C_7  and  C_8 
REMARK       I    between atoms: C_8  and  N_9 
REMARK    3  A    between atoms: N_9  and  C_10 
REMARK    4  A    between atoms: C_10  and  C_11 
REMARK    5  A    between atoms: C_11  and  N_12 
REMARK    6  A    between atoms: C_15  and  C_16 
ROOT
HETATM    1  C   UNL     1     -42.372  57.464 -51.168  1.00  0.00     0.150 C 
ENDROOT
BRANCH   1   2
HETATM    2  N   UNL     1     -42.462  57.507 -52.606  1.00  0.00    -0.354 N 
HETATM    3  C   UNL     1     -43.661  57.340 -53.274  1.00  0.00     0.272 C 
HETATM    4  O   UNL     1     -44.734  57.315 -52.674  1.00  0.00    -0.266 OA
HETATM    5  H   UNL     1     -41.643  57.382 -53.205  1.00  0.00     0.162 HD
BRANCH   3   6
HETATM    6  C   UNL     1     -43.498  57.211 -54.732  1.00  0.00     0.152 A 
HETATM    7  N   UNL     1     -43.527  58.315 -55.508  1.00  0.00    -0.169 NA
HETATM    8  N   UNL     1     -43.342  57.847 -56.752  1.00  0.00    -0.281 N 
HETATM    9  C   UNL     1     -43.205  56.490 -56.815  1.00  0.00     0.036 A 
HETATM   10  H   UNL     1     -43.321  58.510 -57.522  1.00  0.00     0.189 HD
HETATM   11  C   UNL     1     -43.300  56.033 -55.513  1.00  0.00    -0.002 A 
HETATM   12  C   UNL     1     -43.206  54.624 -55.051  1.00  0.00     0.053 C 
BRANCH   9  13
HETATM   13  C   UNL     1     -42.996  55.781 -58.110  1.00  0.00     0.055 C 
HETATM   14  C   UNL     1     -42.919  56.756 -59.275  1.00  0.00     0.011 C 
ENDBRANCH   9  13
ENDBRANCH   3   6
ENDBRANCH   1   2
BRANCH   1  15
HETATM   15  C   UNL     1     -41.051  56.849 -50.666  1.00  0.00     0.254 C 
BRANCH  15  16
HETATM   16  N   UNL     1     -41.280  55.499 -50.008  1.00  0.00    -0.069 N 
HETATM   17  H   UNL     1     -41.296  55.641 -48.989  1.00  0.00     0.280 HD
HETATM   18  C   UNL     1     -40.244  54.449 -50.352  1.00  0.00     0.244 C 
HETATM   19  C   UNL     1     -40.752  53.812 -51.650  1.00  0.00     0.046 C 
HETATM   20  C   UNL     1     -42.265  54.065 -51.673  1.00  0.00     0.039 C 
HETATM   21  C   UNL     1     -42.585  54.853 -50.415  1.00  0.00     0.235 C 
BRANCH  19  22
HETATM   22  C   UNL     1     -40.336  52.360 -51.772  1.00  0.00    -0.046 A 
HETATM   23  C   UNL     1     -40.031  51.778 -53.023  1.00  0.00    -0.055 A 
HETATM   24  C   UNL     1     -40.133  52.538 -54.320  1.00  0.00     0.049 C 
HETATM   25  C   UNL     1     -39.625  50.433 -53.078  1.00  0.00     0.007 A 
HETATM   26  C   UNL     1     -39.513  49.668 -51.919  1.00  0.00     0.001 A 
HETATM   27  C   UNL     1     -39.809  50.234 -50.687  1.00  0.00     0.001 A 
HETATM   28  C   UNL     1     -40.218  51.565 -50.613  1.00  0.00     0.008 A 
ENDBRANCH  19  22
ENDBRANCH  15  16
ENDBRANCH   1  15
TORSDOF 6
ENDMDL
MODEL 3
REMARK VINA RESULT:      -8.0      2.572      3.654
REMARK  6 active torsions:
REMARK  status: ('A' for Active; 'I' for Inactive)
REMARK    1  A    between atoms: C_2  and  C_3 
REMARK    2  A    between atoms: C_7  and  C_8 
REMARK       I    between atoms: C_8  and  N_9 
REMARK    3  A    between atoms: N_9  and  C_10 
REMARK    4  A    between atoms: C_10  and  C_11 
REMARK    5  A    between atoms: C_11  and  N_12 
REMARK    6  A    between atoms: C_15  and  C_16 
ROOT
HETATM    1  C   UNL     1     -43.504  57.377 -54.483  1.00  0.00     0.150 C 
ENDROOT
BRANCH   1   2
HETATM    2  N   UNL     1     -43.071  58.485 -55.297  1.00  0.00    -0.354 N 
HETATM    3  C   UNL     1     -42.963  58.389 -56.672  1.00  0.00     0.272 C 
HETATM    4  O   UNL     1     -43.390  57.412 -57.285  1.00  0.00    -0.266 OA
HETATM    5  H   UNL     1     -42.565  59.281 -54.904  1.00  0.00     0.162 HD
BRANCH   3   6
HETATM    6  C   UNL     1     -42.308  59.558 -57.283  1.00  0.00     0.152 A 
HETATM    7  N   UNL     1     -41.787  60.521 -56.493  1.00  0.00    -0.169 NA
HETATM    8  N   UNL     1     -41.271  61.410 -57.355  1.00  0.00    -0.281 N 
HETATM    9  C   UNL     1     -41.443  61.070 -58.666  1.00  0.00     0.036 A 
HETATM   10  H   UNL     1     -40.812  62.237 -56.983  1.00  0.00     0.189 HD
HETATM   11  C   UNL     1     -42.118  59.862 -58.665  1.00  0.00    -0.002 A 
HETATM   12  C   UNL     1     -42.535  59.070 -59.850  1.00  0.00     0.053 C 
BRANCH   9  13
HETATM   13  C   UNL     1     -40.943  61.933 -59.774  1.00  0.00     0.055 C 
HETATM   14  C   UNL     1     -40.068  63.062 -59.251  1.00  0.00     0.011 C 
ENDBRANCH   9  13
ENDBRANCH   3   6
ENDBRANCH   1   2
BRANCH   1  15
HETATM   15  C   UNL     1     -42.343  56.466 -54.038  1.00  0.00     0.254 C 
BRANCH  15  16
HETATM   16  N   UNL     1     -42.532  55.043 -54.533  1.00  0.00    -0.069 N 
HETATM   17  H   UNL     1     -43.515  54.933 -54.817  1.00  0.00     0.280 HD
HETATM   18  C   UNL     1     -42.181  53.973 -53.519  1.00  0.00     0.244 C 
HETATM   19  C   UNL     1     -40.676  53.749 -53.695  1.00  0.00     0.046 C 
HETATM   20  C   UNL     1     -40.352  54.208 -55.123  1.00  0.00     0.039 C 
HETATM   21  C   UNL     1     -41.658  54.704 -55.718  1.00  0.00     0.235 C 
BRANCH  19  22
HETATM   22  C   UNL     1     -40.270  52.327 -53.366  1.00  0.00    -0.046 A 
HETATM   23  C   UNL     1     -39.843  51.958 -52.070  1.00  0.00    -0.055 A 
HETATM   24  C   UNL     1     -39.722  52.949 -50.942  1.00  0.00     0.049 C 
HETATM   25  C   UNL     1     -39.503  50.618 -51.810  1.00  0.00     0.007 A 
HETATM   26  C   UNL     1     -39.586  49.649 -52.807  1.00  0.00     0.001 A 
HETATM   27  C   UNL     1     -40.007  50.004 -54.081  1.00  0.00     0.001 A 
HETATM   28  C   UNL     1     -40.345  51.328 -54.359  1.00  0.00     0.008 A 
ENDBRANCH  19  22
ENDBRANCH  15  16
ENDBRANCH   1  15
TORSDOF 6
ENDMDL
MODEL 4
REMARK VINA RESULT:      -7.9      4.312      6.387
REMARK  6 active torsions:
REMARK  status: ('A' for Active; 'I' for Inactive)
REMARK    1  A    between atoms: C_2  and  C_3 
REMARK    2  A    between atoms: C_7  and  C_8 
REMARK       I    between atoms: C_8  and  N_9 
REMARK    3  A    between atoms: N_9  and  C_10 
REMARK    4  A    between atoms: C_10  and  C_11 
REMARK    5  A    between atoms: C_11  and  N_12 
REMARK    6  A    between atoms: C_15  and  C_16 
ROOT
HETATM    1  C   UNL     1     -43.845  56.516 -52.998  1.00  0.00     0.150 C 
ENDROOT
BRANCH   1   2
HETATM    2  N   UNL     1     -43.990  57.809 -52.376  1.00  0.00    -0.354 N 
HETATM    3  C   UNL     1     -44.687  57.983 -51.195  1.00  0.00     0.272 C 
HETATM    4  O   UNL     1     -45.073  57.025 -50.528  1.00  0.00    -0.266 OA
HETATM    5  H   UNL     1     -43.842  58.679 -52.893  1.00  0.00     0.162 HD
BRANCH   3   6
HETATM    6  C   UNL     1     -44.891  59.400 -50.848  1.00  0.00     0.152 A 
HETATM    7  N   UNL     1     -46.145  59.893 -50.766  1.00  0.00    -0.169 NA
HETATM    8  N   UNL     1     -45.972  61.180 -50.430  1.00  0.00    -0.281 N 
HETATM    9  C   UNL     1     -44.661  61.543 -50.300  1.00  0.00     0.036 A 
HETATM   10  H   UNL     1     -46.793  61.765 -50.304  1.00  0.00     0.189 HD
HETATM   11  C   UNL     1     -43.919  60.406 -50.565  1.00  0.00    -0.002 A 
HETATM   12  C   UNL     1     -42.439  60.279 -50.545  1.00  0.00     0.053 C 
BRANCH   9  13
HETATM   13  C   UNL     1     -44.263  62.933 -49.934  1.00  0.00     0.055 C 
HETATM   14  C   UNL     1     -45.473  63.787 -49.587  1.00  0.00     0.011 C 
ENDBRANCH   9  13
ENDBRANCH   3   6
ENDBRANCH   1   2
BRANCH   1  15
HETATM   15  C   UNL     1     -42.671  56.457 -53.995  1.00  0.00     0.254 C 
BRANCH  15  16
HETATM   16  N   UNL     1     -42.590  55.102 -54.678  1.00  0.00    -0.069 N 
HETATM   17  H   UNL     1     -43.468  54.954 -55.194  1.00  0.00     0.280 HD
HETATM   18  C   UNL     1     -42.359  53.937 -53.737  1.00  0.00     0.244 C 
HETATM   19  C   UNL     1     -40.837  53.859 -53.581  1.00  0.00     0.046 C 
HETATM   20  C   UNL     1     -40.256  54.531 -54.833  1.00  0.00     0.039 C 
HETATM   21  C   UNL     1     -41.444  54.996 -55.656  1.00  0.00     0.235 C 
BRANCH  19  22
HETATM   22  C   UNL     1     -40.363  52.442 -53.329  1.00  0.00    -0.046 A 
HETATM   23  C   UNL     1     -39.928  52.022 -52.051  1.00  0.00    -0.055 A 
HETATM   24  C   UNL     1     -39.866  52.951 -50.867  1.00  0.00     0.049 C 
HETATM   25  C   UNL     1     -39.523  50.688 -51.864  1.00  0.00     0.007 A 
HETATM   26  C   UNL     1     -39.549  49.775 -52.915  1.00  0.00     0.001 A 
HETATM   27  C   UNL     1     -39.977  50.180 -54.171  1.00  0.00     0.001 A 
HETATM   28  C   UNL     1     -40.379  51.500 -54.378  1.00  0.00     0.008 A 
ENDBRANCH  19  22
ENDBRANCH  15  16
ENDBRANCH   1  15
TORSDOF 6
ENDMDL
MODEL 5
REMARK VINA RESULT:      -7.9      2.900      3.975
REMARK  6 active torsions:
REMARK  status: ('A' for Active; 'I' for Inactive)
REMARK    1  A    between atoms: C_2  and  C_3 
REMARK    2  A    between atoms: C_7  and  C_8 
REMARK       I    between atoms: C_8  and  N_9 
REMARK    3  A    between atoms: N_9  and  C_10 
REMARK    4  A    between atoms: C_10  and  C_11 
REMARK    5  A    between atoms: C_11  and  N_12 
REMARK    6  A    between atoms: C_15  and  C_16 
ROOT
HETATM    1  C   UNL     1     -41.380  58.628 -52.180  1.00  0.00     0.150 C 
ENDROOT
BRANCH   1   2
HETATM    2  N   UNL     1     -41.354  58.632 -53.621  1.00  0.00    -0.354 N 
HETATM    3  C   UNL     1     -42.040  59.572 -54.367  1.00  0.00     0.272 C 
HETATM    4  O   UNL     1     -42.569  60.550 -53.841  1.00  0.00    -0.266 OA
HETATM    5  H   UNL     1     -41.076  57.809 -54.161  1.00  0.00     0.162 HD
BRANCH   3   6
HETATM    6  C   UNL     1     -42.051  59.271 -55.808  1.00  0.00     0.152 A 
HETATM    7  N   UNL     1     -41.553  60.171 -56.683  1.00  0.00    -0.169 NA
HETATM    8  N   UNL     1     -41.708  59.586 -57.880  1.00  0.00    -0.281 N 
HETATM    9  C   UNL     1     -42.291  58.353 -57.820  1.00  0.00     0.036 A 
HETATM   10  H   UNL     1     -41.394  60.084 -58.709  1.00  0.00     0.189 HD
HETATM   11  C   UNL     1     -42.532  58.107 -56.480  1.00  0.00    -0.002 A 
HETATM   12  C   UNL     1     -43.149  56.890 -55.891  1.00  0.00     0.053 C 
BRANCH   9  13
HETATM   13  C   UNL     1     -42.551  57.545 -59.046  1.00  0.00     0.055 C 
HETATM   14  C   UNL     1     -41.987  58.218 -60.288  1.00  0.00     0.011 C 
ENDBRANCH   9  13
ENDBRANCH   3   6
ENDBRANCH   1   2
BRANCH   1  15
HETATM   15  C   UNL     1     -42.687  58.050 -51.603  1.00  0.00     0.254 C 
BRANCH  15  16
HETATM   16  N   UNL     1     -42.431  56.774 -50.819  1.00  0.00    -0.069 N 
HETATM   17  H   UNL     1     -42.328  57.026 -49.827  1.00  0.00     0.280 HD
HETATM   18  C   UNL     1     -41.212  55.994 -51.268  1.00  0.00     0.244 C 
HETATM   19  C   UNL     1     -41.719  55.100 -52.403  1.00  0.00     0.046 C 
HETATM   20  C   UNL     1     -43.229  54.948 -52.170  1.00  0.00     0.039 C 
HETATM   21  C   UNL     1     -43.554  55.769 -50.935  1.00  0.00     0.235 C 
BRANCH  19  22
HETATM   22  C   UNL     1     -40.945  53.800 -52.493  1.00  0.00    -0.046 A 
HETATM   23  C   UNL     1     -40.489  53.292 -53.731  1.00  0.00    -0.055 A 
HETATM   24  C   UNL     1     -40.771  53.975 -55.043  1.00  0.00     0.049 C 
HETATM   25  C   UNL     1     -39.751  52.095 -53.756  1.00  0.00     0.007 A 
HETATM   26  C   UNL     1     -39.458  51.407 -52.581  1.00  0.00     0.001 A 
HETATM   27  C   UNL     1     -39.900  51.901 -51.362  1.00  0.00     0.001 A 
HETATM   28  C   UNL     1     -40.637  53.085 -51.317  1.00  0.00     0.008 A 
ENDBRANCH  19  22
ENDBRANCH  15  16
ENDBRANCH   1  15
TORSDOF 6
ENDMDL
MODEL 6
REMARK VINA RESULT:      -7.6      3.008      8.088
REMARK  6 active torsions:
REMARK  status: ('A' for Active; 'I' for Inactive)
REMARK    1  A    between atoms: C_2  and  C_3 
REMARK    2  A    between atoms: C_7  and  C_8 
REMARK       I    between atoms: C_8  and  N_9 
REMARK    3  A    between atoms: N_9  and  C_10 
REMARK    4  A    between atoms: C_10  and  C_11 
REMARK    5  A    between atoms: C_11  and  N_12 
REMARK    6  A    between atoms: C_15  and  C_16 
ROOT
HETATM    1  C   UNL     1     -41.899  57.106 -51.329  1.00  0.00     0.150 C 
ENDROOT
BRANCH   1   2
HETATM    2  N   UNL     1     -41.272  55.867 -51.719  1.00  0.00    -0.354 N 
HETATM    3  C   UNL     1     -41.958  54.667 -51.726  1.00  0.00     0.272 C 
HETATM    4  O   UNL     1     -43.176  54.619 -51.565  1.00  0.00    -0.266 OA
HETATM    5  H   UNL     1     -40.256  55.755 -51.736  1.00  0.00     0.162 HD
BRANCH   3   6
HETATM    6  C   UNL     1     -41.083  53.503 -51.951  1.00  0.00     0.152 A 
HETATM    7  N   UNL     1     -40.560  52.847 -50.893  1.00  0.00    -0.169 NA
HETATM    8  N   UNL     1     -39.838  51.859 -51.443  1.00  0.00    -0.281 N 
HETATM    9  C   UNL     1     -39.863  51.853 -52.809  1.00  0.00     0.036 A 
HETATM   10  H   UNL     1     -39.345  51.217 -50.829  1.00  0.00     0.189 HD
HETATM   11  C   UNL     1     -40.668  52.914 -53.183  1.00  0.00    -0.002 A 
HETATM   12  C   UNL     1     -41.018  53.327 -54.566  1.00  0.00     0.053 C 
BRANCH   9  13
HETATM   13  C   UNL     1     -39.119  50.835 -53.604  1.00  0.00     0.055 C 
HETATM   14  C   UNL     1     -40.066  49.937 -54.387  1.00  0.00     0.011 C 
ENDBRANCH   9  13
ENDBRANCH   3   6
ENDBRANCH   1   2
BRANCH   1  15
HETATM   15  C   UNL     1     -42.365  57.948 -52.533  1.00  0.00     0.254 C 
BRANCH  15  16
HETATM   16  N   UNL     1     -43.153  57.111 -53.526  1.00  0.00    -0.069 N 
HETATM   17  H   UNL     1     -43.449  56.248 -53.049  1.00  0.00     0.280 HD
HETATM   18  C   UNL     1     -42.393  56.751 -54.786  1.00  0.00     0.244 C 
HETATM   19  C   UNL     1     -42.619  57.936 -55.730  1.00  0.00     0.046 C 
HETATM   20  C   UNL     1     -43.917  58.603 -55.254  1.00  0.00     0.039 C 
HETATM   21  C   UNL     1     -44.387  57.810 -54.048  1.00  0.00     0.235 C 
BRANCH  19  22
HETATM   22  C   UNL     1     -42.604  57.516 -57.185  1.00  0.00    -0.046 A 
HETATM   23  C   UNL     1     -42.131  58.377 -58.201  1.00  0.00    -0.055 A 
HETATM   24  C   UNL     1     -41.650  59.777 -57.921  1.00  0.00     0.049 C 
HETATM   25  C   UNL     1     -42.113  57.928 -59.534  1.00  0.00     0.007 A 
HETATM   26  C   UNL     1     -42.548  56.648 -59.867  1.00  0.00     0.001 A 
HETATM   27  C   UNL     1     -43.011  55.796 -58.874  1.00  0.00     0.001 A 
HETATM   28  C   UNL     1     -43.040  56.224 -57.547  1.00  0.00     0.008 A 
ENDBRANCH  19  22
ENDBRANCH  15  16
ENDBRANCH   1  15
TORSDOF 6
ENDMDL
MODEL 7
REMARK VINA RESULT:      -7.5     14.504     16.579
REMARK  6 active torsions:
REMARK  status: ('A' for Active; 'I' for Inactive)
REMARK    1  A    between atoms: C_2  and  C_3 
REMARK    2  A    between atoms: C_7  and  C_8 
REMARK       I    between atoms: C_8  and  N_9 
REMARK    3  A    between atoms: N_9  and  C_10 
REMARK    4  A    between atoms: C_10  and  C_11 
REMARK    5  A    between atoms: C_11  and  N_12 
REMARK    6  A    between atoms: C_15  and  C_16 
ROOT
HETATM    1  C   UNL     1     -37.776  41.134 -52.260  1.00  0.00     0.150 C 
ENDROOT
BRANCH   1   2
HETATM    2  N   UNL     1     -37.312  41.115 -53.625  1.00  0.00    -0.354 N 
HETATM    3  C   UNL     1     -36.418  42.050 -54.112  1.00  0.00     0.272 C 
HETATM    4  O   UNL     1     -35.845  42.842 -53.366  1.00  0.00    -0.266 OA
HETATM    5  H   UNL     1     -37.810  40.608 -54.360  1.00  0.00     0.162 HD
BRANCH   3   6
HETATM    6  C   UNL     1     -36.241  41.975 -55.572  1.00  0.00     0.152 A 
HETATM    7  N   UNL     1     -35.079  42.384 -56.126  1.00  0.00    -0.169 NA
HETATM    8  N   UNL     1     -35.250  42.175 -57.440  1.00  0.00    -0.281 N 
HETATM    9  C   UNL     1     -36.472  41.657 -57.761  1.00  0.00     0.036 A 
HETATM   10  H   UNL     1     -34.489  42.408 -58.072  1.00  0.00     0.189 HD
HETATM   11  C   UNL     1     -37.154  41.510 -56.566  1.00  0.00    -0.002 A 
HETATM   12  C   UNL     1     -38.528  40.978 -56.380  1.00  0.00     0.053 C 
BRANCH   9  13
HETATM   13  C   UNL     1     -36.854  41.359 -59.171  1.00  0.00     0.055 C 
HETATM   14  C   UNL     1     -37.304  42.612 -59.905  1.00  0.00     0.011 C 
ENDBRANCH   9  13
ENDBRANCH   3   6
ENDBRANCH   1   2
BRANCH   1  15
HETATM   15  C   UNL     1     -38.231  39.750 -51.759  1.00  0.00     0.254 C 
BRANCH  15  16
HETATM   16  N   UNL     1     -37.748  39.484 -50.344  1.00  0.00    -0.069 N 
HETATM   17  H   UNL     1     -38.456  39.851 -49.693  1.00  0.00     0.280 HD
HETATM   18  C   UNL     1     -36.400  40.095 -50.015  1.00  0.00     0.244 C 
HETATM   19  C   UNL     1     -35.378  39.050 -50.474  1.00  0.00     0.046 C 
HETATM   20  C   UNL     1     -36.125  37.710 -50.476  1.00  0.00     0.039 C 
HETATM   21  C   UNL     1     -37.550  38.016 -50.048  1.00  0.00     0.235 C 
BRANCH  19  22
HETATM   22  C   UNL     1     -34.115  39.085 -49.638  1.00  0.00    -0.046 A 
HETATM   23  C   UNL     1     -33.010  39.891 -49.995  1.00  0.00    -0.055 A 
HETATM   24  C   UNL     1     -32.990  40.736 -51.242  1.00  0.00     0.049 C 
HETATM   25  C   UNL     1     -31.872  39.908 -49.170  1.00  0.00     0.007 A 
HETATM   26  C   UNL     1     -31.818  39.148 -48.004  1.00  0.00     0.001 A 
HETATM   27  C   UNL     1     -32.900  38.356 -47.645  1.00  0.00     0.001 A 
HETATM   28  C   UNL     1     -34.037  38.323 -48.453  1.00  0.00     0.008 A 
ENDBRANCH  19  22
ENDBRANCH  15  16
ENDBRANCH   1  15
TORSDOF 6
ENDMDL
MODEL 8
REMARK VINA RESULT:      -7.4      1.934      8.283
REMARK  6 active torsions:
REMARK  status: ('A' for Active; 'I' for Inactive)
REMARK    1  A    between atoms: C_2  and  C_3 
REMARK    2  A    between atoms: C_7  and  C_8 
REMARK       I    between atoms: C_8  and  N_9 
REMARK    3  A    between atoms: N_9  and  C_10 
REMARK    4  A    between atoms: C_10  and  C_11 
REMARK    5  A    between atoms: C_11  and  N_12 
REMARK    6  A    between atoms: C_15  and  C_16 
ROOT
HETATM    1  C   UNL     1     -41.614  58.174 -53.903  1.00  0.00     0.150 C 
ENDROOT
BRANCH   1   2
HETATM    2  N   UNL     1     -41.176  56.817 -54.117  1.00  0.00    -0.354 N 
HETATM    3  C   UNL     1     -41.932  55.729 -53.722  1.00  0.00     0.272 C 
HETATM    4  O   UNL     1     -43.087  55.860 -53.322  1.00  0.00    -0.266 OA
HETATM    5  H   UNL     1     -40.198  56.586 -54.304  1.00  0.00     0.162 HD
BRANCH   3   6
HETATM    6  C   UNL     1     -41.212  54.451 -53.843  1.00  0.00     0.152 A 
HETATM    7  N   UNL     1     -40.733  54.065 -55.045  1.00  0.00    -0.169 NA
HETATM    8  N   UNL     1     -40.139  52.887 -54.800  1.00  0.00    -0.281 N 
HETATM    9  C   UNL     1     -40.220  52.490 -53.495  1.00  0.00     0.036 A 
HETATM   10  H   UNL     1     -39.693  52.397 -55.571  1.00  0.00     0.189 HD
HETATM   11  C   UNL     1     -40.915  53.487 -52.833  1.00  0.00    -0.002 A 
HETATM   12  C   UNL     1     -41.259  53.528 -51.389  1.00  0.00     0.053 C 
BRANCH   9  13
HETATM   13  C   UNL     1     -39.624  51.207 -53.026  1.00  0.00     0.055 C 
HETATM   14  C   UNL     1     -39.570  50.175 -54.142  1.00  0.00     0.011 C 
ENDBRANCH   9  13
ENDBRANCH   3   6
ENDBRANCH   1   2
BRANCH   1  15
HETATM   15  C   UNL     1     -42.189  58.828 -55.175  1.00  0.00     0.254 C 
BRANCH  15  16
HETATM   16  N   UNL     1     -43.618  58.380 -55.433  1.00  0.00    -0.069 N 
HETATM   17  H   UNL     1     -44.011  58.047 -54.542  1.00  0.00     0.280 HD
HETATM   18  C   UNL     1     -43.756  57.293 -56.479  1.00  0.00     0.244 C 
HETATM   19  C   UNL     1     -43.837  58.044 -57.812  1.00  0.00     0.046 C 
HETATM   20  C   UNL     1     -44.336  59.453 -57.464  1.00  0.00     0.039 C 
HETATM   21  C   UNL     1     -44.504  59.486 -55.956  1.00  0.00     0.235 C 
BRANCH  19  22
HETATM   22  C   UNL     1     -44.668  57.298 -58.836  1.00  0.00    -0.046 A 
HETATM   23  C   UNL     1     -44.084  56.382 -59.740  1.00  0.00    -0.055 A 
HETATM   24  C   UNL     1     -42.602  56.112 -59.781  1.00  0.00     0.049 C 
HETATM   25  C   UNL     1     -44.904  55.695 -60.653  1.00  0.00     0.007 A 
HETATM   26  C   UNL     1     -46.282  55.899 -60.676  1.00  0.00     0.001 A 
HETATM   27  C   UNL     1     -46.862  56.795 -59.789  1.00  0.00     0.001 A 
HETATM   28  C   UNL     1     -46.065  57.489 -58.879  1.00  0.00     0.008 A 
ENDBRANCH  19  22
ENDBRANCH  15  16
ENDBRANCH   1  15
TORSDOF 6
ENDMDL
MODEL 9
REMARK VINA RESULT:      -7.4      1.793      3.076
REMARK  6 active torsions:
REMARK  status: ('A' for Active; 'I' for Inactive)
REMARK    1  A    between atoms: C_2  and  C_3 
REMARK    2  A    between atoms: C_7  and  C_8 
REMARK       I    between atoms: C_8  and  N_9 
REMARK    3  A    between atoms: N_9  and  C_10 
REMARK    4  A    between atoms: C_10  and  C_11 
REMARK    5  A    between atoms: C_11  and  N_12 
REMARK    6  A    between atoms: C_15  and  C_16 
ROOT
HETATM    1  C   UNL     1     -41.914  59.512 -54.892  1.00  0.00     0.150 C 
ENDROOT
BRANCH   1   2
HETATM    2  N   UNL     1     -42.654  58.681 -55.809  1.00  0.00    -0.354 N 
HETATM    3  C   UNL     1     -42.568  58.840 -57.180  1.00  0.00     0.272 C 
HETATM    4  O   UNL     1     -41.732  59.583 -57.691  1.00  0.00    -0.266 OA
HETATM    5  H   UNL     1     -43.469  58.139 -55.513  1.00  0.00     0.162 HD
BRANCH   3   6
HETATM    6  C   UNL     1     -43.557  58.036 -57.918  1.00  0.00     0.152 A 
HETATM    7  N   UNL     1     -44.845  58.026 -57.514  1.00  0.00    -0.169 NA
HETATM    8  N   UNL     1     -45.460  57.220 -58.392  1.00  0.00    -0.281 N 
HETATM    9  C   UNL     1     -44.624  56.701 -59.341  1.00  0.00     0.036 A 
HETATM   10  H   UNL     1     -46.458  57.060 -58.291  1.00  0.00     0.189 HD
HETATM   11  C   UNL     1     -43.368  57.211 -59.067  1.00  0.00    -0.002 A 
HETATM   12  C   UNL     1     -42.114  56.951 -59.819  1.00  0.00     0.053 C 
BRANCH   9  13
HETATM   13  C   UNL     1     -45.118  55.779 -60.403  1.00  0.00     0.055 C 
HETATM   14  C   UNL     1     -44.957  54.322 -59.997  1.00  0.00     0.011 C 
ENDBRANCH   9  13
ENDBRANCH   3   6
ENDBRANCH   1   2
BRANCH   1  15
HETATM   15  C   UNL     1     -42.260  59.237 -53.416  1.00  0.00     0.254 C 
BRANCH  15  16
HETATM   16  N   UNL     1     -41.182  58.410 -52.737  1.00  0.00    -0.069 N 
HETATM   17  H   UNL     1     -40.356  59.009 -52.610  1.00  0.00     0.280 HD
HETATM   18  C   UNL     1     -40.782  57.158 -53.491  1.00  0.00     0.244 C 
HETATM   19  C   UNL     1     -41.779  56.090 -53.029  1.00  0.00     0.046 C 
HETATM   20  C   UNL     1     -42.287  56.562 -51.660  1.00  0.00     0.039 C 
HETATM   21  C   UNL     1     -41.599  57.886 -51.382  1.00  0.00     0.235 C 
BRANCH  19  22
HETATM   22  C   UNL     1     -41.175  54.701 -53.051  1.00  0.00    -0.046 A 
HETATM   23  C   UNL     1     -41.034  53.972 -54.254  1.00  0.00    -0.055 A 
HETATM   24  C   UNL     1     -41.505  54.500 -55.584  1.00  0.00     0.049 C 
HETATM   25  C   UNL     1     -40.442  52.697 -54.223  1.00  0.00     0.007 A 
HETATM   26  C   UNL     1     -39.988  52.144 -53.028  1.00  0.00     0.001 A 
HETATM   27  C   UNL     1     -40.122  52.854 -51.844  1.00  0.00     0.001 A 
HETATM   28  C   UNL     1     -40.710  54.119 -51.853  1.00  0.00     0.008 A 
ENDBRANCH  19  22
ENDBRANCH  15  16
ENDBRANCH   1  15
TORSDOF 6
ENDMDL
MODEL 10
REMARK VINA RESULT:      -7.3     14.713     16.556
REMARK  6 active torsions:
REMARK  status: ('A' for Active; 'I' for Inactive)
REMARK    1  A    between atoms: C_2  and  C_3 
REMARK    2  A    between atoms: C_7  and  C_8 
REMARK       I    between atoms: C_8  and  N_9 
REMARK    3  A    between atoms: N_9  and  C_10 
REMARK    4  A    between atoms: C_10  and  C_11 
REMARK    5  A    between atoms: C_11  and  N_12 
REMARK    6  A    between atoms: C_15  and  C_16 
ROOT
HETATM    1  C   UNL     1     -36.024  42.228 -54.648  1.00  0.00     0.150 C 
ENDROOT
BRANCH   1   2
HETATM    2  N   UNL     1     -36.252  42.059 -56.061  1.00  0.00    -0.354 N 
HETATM    3  C   UNL     1     -37.457  41.603 -56.563  1.00  0.00     0.272 C 
HETATM    4  O   UNL     1     -38.448  41.480 -55.845  1.00  0.00    -0.266 OA
HETATM    5  H   UNL     1     -35.482  41.993 -56.731  1.00  0.00     0.162 HD
BRANCH   3   6
HETATM    6  C   UNL     1     -37.408  41.305 -58.004  1.00  0.00     0.152 A 
HETATM    7  N   UNL     1     -37.081  42.282 -58.877  1.00  0.00    -0.169 NA
HETATM    8  N   UNL     1     -37.121  41.679 -60.075  1.00  0.00    -0.281 N 
HETATM    9  C   UNL     1     -37.468  40.359 -60.016  1.00  0.00     0.036 A 
HETATM   10  H   UNL     1     -36.901  42.226 -60.903  1.00  0.00     0.189 HD
HETATM   11  C   UNL     1     -37.664  40.073 -58.677  1.00  0.00    -0.002 A 
HETATM   12  C   UNL     1     -38.049  38.764 -58.090  1.00  0.00     0.053 C 
BRANCH   9  13
HETATM   13  C   UNL     1     -37.571  39.518 -61.243  1.00  0.00     0.055 C 
HETATM   14  C   UNL     1     -36.326  38.668 -61.443  1.00  0.00     0.011 C 
ENDBRANCH   9  13
ENDBRANCH   3   6
ENDBRANCH   1   2
BRANCH   1  15
HETATM   15  C   UNL     1     -35.245  41.056 -54.019  1.00  0.00     0.254 C 
BRANCH  15  16
HETATM   16  N   UNL     1     -34.255  41.543 -52.975  1.00  0.00    -0.069 N 
HETATM   17  H   UNL     1     -33.577  42.159 -53.444  1.00  0.00     0.280 HD
HETATM   18  C   UNL     1     -33.512  40.439 -52.251  1.00  0.00     0.244 C 
HETATM   19  C   UNL     1     -34.428  40.054 -51.085  1.00  0.00     0.046 C 
HETATM   20  C   UNL     1     -35.312  41.282 -50.828  1.00  0.00     0.039 C 
HETATM   21  C   UNL     1     -34.905  42.322 -51.856  1.00  0.00     0.235 C 
BRANCH  19  22
HETATM   22  C   UNL     1     -33.645  39.558 -49.886  1.00  0.00    -0.046 A 
HETATM   23  C   UNL     1     -34.136  38.526 -49.054  1.00  0.00    -0.055 A 
HETATM   24  C   UNL     1     -35.479  37.877 -49.271  1.00  0.00     0.049 C 
HETATM   25  C   UNL     1     -33.358  38.084 -47.970  1.00  0.00     0.007 A 
HETATM   26  C   UNL     1     -32.110  38.643 -47.706  1.00  0.00     0.001 A 
HETATM   27  C   UNL     1     -31.620  39.654 -48.520  1.00  0.00     0.001 A 
HETATM   28  C   UNL     1     -32.379  40.109 -49.598  1.00  0.00     0.008 A 
ENDBRANCH  19  22
ENDBRANCH  15  16
ENDBRANCH   1  15
TORSDOF 6
ENDMDL
