MODEL 1
REMARK VINA RESULT:      -8.4      0.000      0.000
REMARK  10 active torsions:
REMARK  status: ('A' for Active; 'I' for Inactive)
REMARK    1  A    between atoms: N_7  and  C_8 
REMARK    2  A    between atoms: C_8  and  C_9 
REMARK       I    between atoms: C_9  and  N_10 
REMARK    3  A    between atoms: N_10  and  C_11 
REMARK    4  A    between atoms: C_11  and  C_12 
REMARK    5  A    between atoms: C_12  and  C_13 
REMARK    6  A    between atoms: C_13  and  C_14 
REMARK       I    between atoms: C_14  and  N_15 
REMARK    7  A    between atoms: N_15  and  C_16 
REMARK    8  A    between atoms: C_16  and  C_17 
REMARK    9  A    between atoms: C_17  and  C_18 
REMARK   10  A    between atoms: C_18  and  N_19 
ROOT
HETATM    1  C   UNL     1     -44.587  57.981 -51.366  1.00  0.00     0.123 C 
ENDROOT
BRANCH   1   2
HETATM    2  N   UNL     1     -43.271  57.634 -50.871  1.00  0.00    -0.360 N 
HETATM    3  C   UNL     1     -42.889  56.318 -50.691  1.00  0.00     0.235 C 
HETATM    4  O   UNL     1     -43.640  55.373 -50.918  1.00  0.00    -0.272 OA
HETATM    5  H   UNL     1     -42.647  58.382 -50.595  1.00  0.00     0.162 HD
BRANCH   3   6
HETATM    6  C   UNL     1     -41.433  56.144 -50.262  1.00  0.00     0.235 C 
BRANCH   6   7
HETATM    7  N   UNL     1     -40.963  54.815 -50.603  1.00  0.00    -0.299 N 
HETATM    8  C   UNL     1     -40.706  53.892 -49.607  1.00  0.00     0.214 A 
HETATM    9  N   UNL     1     -40.314  52.674 -49.794  1.00  0.00    -0.235 NA
HETATM   10  C   UNL     1     -40.157  52.332 -51.096  1.00  0.00     0.115 A 
HETATM   11  C   UNL     1     -40.324  53.150 -52.192  1.00  0.00     0.075 A 
HETATM   12  S   UNL     1     -39.715  50.754 -51.550  1.00  0.00    -0.074 SA
HETATM   13  C   UNL     1     -40.071  52.474 -53.441  1.00  0.00    -0.031 A 
HETATM   14  C   UNL     1     -40.727  54.526 -51.944  1.00  0.00     0.262 A 
HETATM   15  C   UNL     1     -40.164  53.128 -54.782  1.00  0.00     0.050 C 
HETATM   16  C   UNL     1     -39.763  51.139 -53.219  1.00  0.00    -0.012 A 
HETATM   17  C   UNL     1     -39.473  50.063 -54.216  1.00  0.00     0.057 C 
HETATM   18  O   UNL     1     -40.850  55.359 -52.841  1.00  0.00    -0.267 OA
ENDBRANCH   6   7
ENDBRANCH   3   6
ENDBRANCH   1   2
BRANCH   1  19
HETATM   19  C   UNL     1     -44.524  58.929 -52.561  1.00  0.00     0.029 C 
BRANCH  19  20
HETATM   20  C   UNL     1     -43.689  58.325 -53.684  1.00  0.00     0.104 C 
BRANCH  20  21
HETATM   21  C   UNL     1     -44.258  57.012 -54.169  1.00  0.00     0.217 C 
HETATM   22  N   UNL     1     -43.417  55.930 -54.030  1.00  0.00    -0.361 N 
HETATM   23  H   UNL     1     -42.457  56.115 -53.749  1.00  0.00     0.162 HD
HETATM   24  O   UNL     1     -45.389  56.913 -54.635  1.00  0.00    -0.274 OA
BRANCH  22  25
HETATM   25  C   UNL     1     -43.702  54.648 -54.641  1.00  0.00     0.124 C 
BRANCH  25  26
HETATM   26  C   UNL     1     -43.258  54.543 -56.104  1.00  0.00     0.047 C 
BRANCH  26  27
HETATM   27  C   UNL     1     -42.352  55.697 -56.529  1.00  0.00     0.236 C 
BRANCH  27  28
HETATM   28  N   UNL     1     -42.611  56.106 -57.976  1.00  0.00    -0.070 N 
HETATM   29  H   UNL     1     -41.727  55.982 -58.484  1.00  0.00     0.279 HD
HETATM   30  C   UNL     1     -43.668  55.258 -58.647  1.00  0.00     0.239 C 
HETATM   31  C   UNL     1     -43.822  55.680 -60.110  1.00  0.00     0.008 C 
HETATM   32  C   UNL     1     -44.141  57.175 -60.222  1.00  0.00     0.011 C 
HETATM   33  C   UNL     1     -44.911  54.849 -60.787  1.00  0.00     0.011 C 
HETATM   34  C   UNL     1     -43.127  58.052 -59.477  1.00  0.00     0.008 C 
HETATM   35  C   UNL     1     -42.963  57.581 -58.031  1.00  0.00     0.239 C 
HETATM   36  C   UNL     1     -41.788  58.128 -60.215  1.00  0.00     0.011 C 
ENDBRANCH  27  28
ENDBRANCH  26  27
ENDBRANCH  25  26
ENDBRANCH  22  25
ENDBRANCH  20  21
ENDBRANCH  19  20
ENDBRANCH   1  19
TORSDOF 10
ENDMDL
MODEL 2
REMARK VINA RESULT:      -8.0      1.658      2.376
REMARK  10 active torsions:
REMARK  status: ('A' for Active; 'I' for Inactive)
REMARK    1  A    between atoms: N_7  and  C_8 
REMARK    2  A    between atoms: C_8  and  C_9 
REMARK       I    between atoms: C_9  and  N_10 
REMARK    3  A    between atoms: N_10  and  C_11 
REMARK    4  A    between atoms: C_11  and  C_12 
REMARK    5  A    between atoms: C_12  and  C_13 
REMARK    6  A    between atoms: C_13  and  C_14 
REMARK       I    between atoms: C_14  and  N_15 
REMARK    7  A    between atoms: N_15  and  C_16 
REMARK    8  A    between atoms: C_16  and  C_17 
REMARK    9  A    between atoms: C_17  and  C_18 
REMARK   10  A    between atoms: C_18  and  N_19 
ROOT
HETATM    1  C   UNL     1     -44.576  57.672 -52.368  1.00  0.00     0.123 C 
ENDROOT
BRANCH   1   2
HETATM    2  N   UNL     1     -43.286  57.460 -51.746  1.00  0.00    -0.360 N 
HETATM    3  C   UNL     1     -43.056  56.394 -50.896  1.00  0.00     0.235 C 
HETATM    4  O   UNL     1     -43.929  55.581 -50.603  1.00  0.00    -0.272 OA
HETATM    5  H   UNL     1     -42.559  58.150 -51.896  1.00  0.00     0.162 HD
BRANCH   3   6
HETATM    6  C   UNL     1     -41.610  56.275 -50.420  1.00  0.00     0.235 C 
BRANCH   6   7
HETATM    7  N   UNL     1     -41.083  54.961 -50.736  1.00  0.00    -0.299 N 
HETATM    8  C   UNL     1     -40.742  54.088 -49.721  1.00  0.00     0.214 A 
HETATM    9  N   UNL     1     -40.292  52.886 -49.882  1.00  0.00    -0.235 NA
HETATM   10  C   UNL     1     -40.163  52.508 -51.178  1.00  0.00     0.115 A 
HETATM   11  C   UNL     1     -40.413  53.279 -52.293  1.00  0.00     0.075 A 
HETATM   12  S   UNL     1     -39.655  50.942 -51.597  1.00  0.00    -0.074 SA
HETATM   13  C   UNL     1     -40.169  52.575 -53.528  1.00  0.00    -0.031 A 
HETATM   14  C   UNL     1     -40.879  54.639 -52.075  1.00  0.00     0.262 A 
HETATM   15  C   UNL     1     -40.345  53.177 -54.885  1.00  0.00     0.050 C 
HETATM   16  C   UNL     1     -39.782  51.266 -53.275  1.00  0.00    -0.012 A 
HETATM   17  C   UNL     1     -39.472  50.174 -54.247  1.00  0.00     0.057 C 
HETATM   18  O   UNL     1     -41.078  55.434 -52.992  1.00  0.00    -0.267 OA
ENDBRANCH   6   7
ENDBRANCH   3   6
ENDBRANCH   1   2
BRANCH   1  19
HETATM   19  C   UNL     1     -44.549  58.811 -53.384  1.00  0.00     0.029 C 
BRANCH  19  20
HETATM   20  C   UNL     1     -43.233  59.576 -53.299  1.00  0.00     0.104 C 
BRANCH  20  21
HETATM   21  C   UNL     1     -42.408  59.423 -54.556  1.00  0.00     0.217 C 
HETATM   22  N   UNL     1     -43.085  59.682 -55.728  1.00  0.00    -0.361 N 
HETATM   23  H   UNL     1     -44.091  59.816 -55.669  1.00  0.00     0.162 HD
HETATM   24  O   UNL     1     -41.221  59.109 -54.535  1.00  0.00    -0.274 OA
BRANCH  22  25
HETATM   25  C   UNL     1     -42.525  59.369 -57.027  1.00  0.00     0.124 C 
BRANCH  25  26
HETATM   26  C   UNL     1     -42.923  57.989 -57.561  1.00  0.00     0.047 C 
BRANCH  26  27
HETATM   27  C   UNL     1     -44.412  57.698 -57.389  1.00  0.00     0.236 C 
BRANCH  27  28
HETATM   28  N   UNL     1     -44.897  56.655 -58.392  1.00  0.00    -0.070 N 
HETATM   29  H   UNL     1     -45.291  55.879 -57.848  1.00  0.00     0.279 HD
HETATM   30  C   UNL     1     -45.973  57.183 -59.315  1.00  0.00     0.239 C 
HETATM   31  C   UNL     1     -46.457  56.066 -60.241  1.00  0.00     0.008 C 
HETATM   32  C   UNL     1     -45.290  55.455 -61.025  1.00  0.00     0.011 C 
HETATM   33  C   UNL     1     -47.523  56.599 -61.199  1.00  0.00     0.011 C 
HETATM   34  C   UNL     1     -44.148  54.989 -60.114  1.00  0.00     0.008 C 
HETATM   35  C   UNL     1     -43.714  56.112 -59.171  1.00  0.00     0.239 C 
HETATM   36  C   UNL     1     -44.509  53.707 -59.358  1.00  0.00     0.011 C 
ENDBRANCH  27  28
ENDBRANCH  26  27
ENDBRANCH  25  26
ENDBRANCH  22  25
ENDBRANCH  20  21
ENDBRANCH  19  20
ENDBRANCH   1  19
TORSDOF 10
ENDMDL
MODEL 3
REMARK VINA RESULT:      -7.7      1.781      2.507
REMARK  10 active torsions:
REMARK  status: ('A' for Active; 'I' for Inactive)
REMARK    1  A    between atoms: N_7  and  C_8 
REMARK    2  A    between atoms: C_8  and  C_9 
REMARK       I    between atoms: C_9  and  N_10 
REMARK    3  A    between atoms: N_10  and  C_11 
REMARK    4  A    between atoms: C_11  and  C_12 
REMARK    5  A    between atoms: C_12  and  C_13 
REMARK    6  A    between atoms: C_13  and  C_14 
REMARK       I    between atoms: C_14  and  N_15 
REMARK    7  A    between atoms: N_15  and  C_16 
REMARK    8  A    between atoms: C_16  and  C_17 
REMARK    9  A    between atoms: C_17  and  C_18 
REMARK   10  A    between atoms: C_18  and  N_19 
ROOT
HETATM    1  C   UNL     1     -44.786  57.710 -51.317  1.00  0.00     0.123 C 
ENDROOT
BRANCH   1   2
HETATM    2  N   UNL     1     -43.425  57.443 -50.903  1.00  0.00    -0.360 N 
HETATM    3  C   UNL     1     -43.001  56.167 -50.583  1.00  0.00     0.235 C 
HETATM    4  O   UNL     1     -43.750  55.194 -50.611  1.00  0.00    -0.272 OA
HETATM    5  H   UNL     1     -42.793  58.227 -50.789  1.00  0.00     0.162 HD
BRANCH   3   6
HETATM    6  C   UNL     1     -41.509  56.064 -50.271  1.00  0.00     0.235 C 
BRANCH   6   7
HETATM    7  N   UNL     1     -41.007  54.752 -50.633  1.00  0.00    -0.299 N 
HETATM    8  C   UNL     1     -40.692  53.833 -49.651  1.00  0.00     0.214 A 
HETATM    9  N   UNL     1     -40.267  52.629 -49.856  1.00  0.00    -0.235 NA
HETATM   10  C   UNL     1     -40.138  52.299 -51.165  1.00  0.00     0.115 A 
HETATM   11  C   UNL     1     -40.363  53.117 -52.250  1.00  0.00     0.075 A 
HETATM   12  S   UNL     1     -39.660  50.739 -51.641  1.00  0.00    -0.074 SA
HETATM   13  C   UNL     1     -40.125  52.457 -53.510  1.00  0.00    -0.031 A 
HETATM   14  C   UNL     1     -40.802  54.478 -51.983  1.00  0.00     0.262 A 
HETATM   15  C   UNL     1     -40.279  53.113 -54.844  1.00  0.00     0.050 C 
HETATM   16  C   UNL     1     -39.769  51.130 -53.306  1.00  0.00    -0.012 A 
HETATM   17  C   UNL     1     -39.475  50.070 -54.317  1.00  0.00     0.057 C 
HETATM   18  O   UNL     1     -40.977  55.312 -52.870  1.00  0.00    -0.267 OA
ENDBRANCH   6   7
ENDBRANCH   3   6
ENDBRANCH   1   2
BRANCH   1  19
HETATM   19  C   UNL     1     -44.850  58.519 -52.609  1.00  0.00     0.029 C 
BRANCH  19  20
HETATM   20  C   UNL     1     -45.422  59.908 -52.347  1.00  0.00     0.104 C 
BRANCH  20  21
HETATM   21  C   UNL     1     -45.619  60.690 -53.625  1.00  0.00     0.217 C 
HETATM   22  N   UNL     1     -45.760  59.920 -54.758  1.00  0.00    -0.361 N 
HETATM   23  H   UNL     1     -45.588  58.921 -54.672  1.00  0.00     0.162 HD
HETATM   24  O   UNL     1     -45.667  61.916 -53.650  1.00  0.00    -0.274 OA
BRANCH  22  25
HETATM   25  C   UNL     1     -45.730  60.493 -56.088  1.00  0.00     0.124 C 
BRANCH  25  26
HETATM   26  C   UNL     1     -45.024  59.617 -57.129  1.00  0.00     0.047 C 
BRANCH  26  27
HETATM   27  C   UNL     1     -45.928  58.517 -57.682  1.00  0.00     0.236 C 
BRANCH  27  28
HETATM   28  N   UNL     1     -45.127  57.271 -58.051  1.00  0.00    -0.070 N 
HETATM   29  H   UNL     1     -45.367  56.548 -57.362  1.00  0.00     0.279 HD
HETATM   30  C   UNL     1     -45.462  56.744 -59.429  1.00  0.00     0.239 C 
HETATM   31  C   UNL     1     -44.675  55.460 -59.699  1.00  0.00     0.008 C 
HETATM   32  C   UNL     1     -43.169  55.689 -59.532  1.00  0.00     0.011 C 
HETATM   33  C   UNL     1     -44.984  54.938 -61.103  1.00  0.00     0.011 C 
HETATM   34  C   UNL     1     -42.814  56.302 -58.172  1.00  0.00     0.008 C 
HETATM   35  C   UNL     1     -43.645  57.560 -57.910  1.00  0.00     0.239 C 
HETATM   36  C   UNL     1     -42.939  55.282 -57.037  1.00  0.00     0.011 C 
ENDBRANCH  27  28
ENDBRANCH  26  27
ENDBRANCH  25  26
ENDBRANCH  22  25
ENDBRANCH  20  21
ENDBRANCH  19  20
ENDBRANCH   1  19
TORSDOF 10
ENDMDL
MODEL 4
REMARK VINA RESULT:      -7.6      3.059      7.941
REMARK  10 active torsions:
REMARK  status: ('A' for Active; 'I' for Inactive)
REMARK    1  A    between atoms: N_7  and  C_8 
REMARK    2  A    between atoms: C_8  and  C_9 
REMARK       I    between atoms: C_9  and  N_10 
REMARK    3  A    between atoms: N_10  and  C_11 
REMARK    4  A    between atoms: C_11  and  C_12 
REMARK    5  A    between atoms: C_12  and  C_13 
REMARK    6  A    between atoms: C_13  and  C_14 
REMARK       I    between atoms: C_14  and  N_15 
REMARK    7  A    between atoms: N_15  and  C_16 
REMARK    8  A    between atoms: C_16  and  C_17 
REMARK    9  A    between atoms: C_17  and  C_18 
REMARK   10  A    between atoms: C_18  and  N_19 
ROOT
HETATM    1  C   UNL     1     -42.154  58.239 -52.951  1.00  0.00     0.123 C 
ENDROOT
BRANCH   1   2
HETATM    2  N   UNL     1     -41.913  58.356 -54.374  1.00  0.00    -0.360 N 
HETATM    3  C   UNL     1     -42.398  57.423 -55.271  1.00  0.00     0.235 C 
HETATM    4  O   UNL     1     -43.040  56.437 -54.919  1.00  0.00    -0.272 OA
HETATM    5  H   UNL     1     -41.320  59.110 -54.702  1.00  0.00     0.162 HD
BRANCH   3   6
HETATM    6  C   UNL     1     -42.133  57.768 -56.735  1.00  0.00     0.235 C 
BRANCH   6   7
HETATM    7  N   UNL     1     -43.385  57.903 -57.455  1.00  0.00    -0.299 N 
HETATM    8  C   UNL     1     -44.181  59.016 -57.263  1.00  0.00     0.214 A 
HETATM    9  N   UNL     1     -45.298  59.256 -57.869  1.00  0.00    -0.235 NA
HETATM   10  C   UNL     1     -45.668  58.298 -58.755  1.00  0.00     0.115 A 
HETATM   11  C   UNL     1     -45.011  57.116 -59.018  1.00  0.00     0.075 A 
HETATM   12  S   UNL     1     -47.069  58.463 -59.703  1.00  0.00    -0.074 SA
HETATM   13  C   UNL     1     -45.677  56.313 -60.013  1.00  0.00    -0.031 A 
HETATM   14  C   UNL     1     -43.778  56.860 -58.289  1.00  0.00     0.262 A 
HETATM   15  C   UNL     1     -45.190  54.978 -60.477  1.00  0.00     0.050 C 
HETATM   16  C   UNL     1     -46.804  56.966 -60.493  1.00  0.00    -0.012 A 
HETATM   17  C   UNL     1     -47.763  56.530 -61.553  1.00  0.00     0.057 C 
HETATM   18  O   UNL     1     -43.140  55.814 -58.400  1.00  0.00    -0.267 OA
ENDBRANCH   6   7
ENDBRANCH   3   6
ENDBRANCH   1   2
BRANCH   1  19
HETATM   19  C   UNL     1     -41.097  57.387 -52.253  1.00  0.00     0.029 C 
BRANCH  19  20
HETATM   20  C   UNL     1     -41.282  57.432 -50.741  1.00  0.00     0.104 C 
BRANCH  20  21
HETATM   21  C   UNL     1     -41.863  56.144 -50.204  1.00  0.00     0.217 C 
HETATM   22  N   UNL     1     -41.032  55.442 -49.359  1.00  0.00    -0.361 N 
HETATM   23  H   UNL     1     -40.071  55.762 -49.274  1.00  0.00     0.162 HD
HETATM   24  O   UNL     1     -42.996  55.761 -50.485  1.00  0.00    -0.274 OA
BRANCH  22  25
HETATM   25  C   UNL     1     -41.329  54.089 -48.935  1.00  0.00     0.124 C 
BRANCH  25  26
HETATM   26  C   UNL     1     -40.692  53.006 -49.813  1.00  0.00     0.047 C 
BRANCH  26  27
HETATM   27  C   UNL     1     -39.544  53.541 -50.666  1.00  0.00     0.236 C 
BRANCH  27  28
HETATM   28  N   UNL     1     -39.702  53.136 -52.130  1.00  0.00    -0.070 N 
HETATM   29  H   UNL     1     -38.925  53.568 -52.644  1.00  0.00     0.279 HD
HETATM   30  C   UNL     1     -39.634  51.639 -52.336  1.00  0.00     0.239 C 
HETATM   31  C   UNL     1     -39.729  51.316 -53.828  1.00  0.00     0.008 C 
HETATM   32  C   UNL     1     -40.999  51.914 -54.444  1.00  0.00     0.011 C 
HETATM   33  C   UNL     1     -39.693  49.802 -54.043  1.00  0.00     0.011 C 
HETATM   34  C   UNL     1     -41.131  53.418 -54.175  1.00  0.00     0.008 C 
HETATM   35  C   UNL     1     -40.991  53.717 -52.681  1.00  0.00     0.239 C 
HETATM   36  C   UNL     1     -40.152  54.237 -55.021  1.00  0.00     0.011 C 
ENDBRANCH  27  28
ENDBRANCH  26  27
ENDBRANCH  25  26
ENDBRANCH  22  25
ENDBRANCH  20  21
ENDBRANCH  19  20
ENDBRANCH   1  19
TORSDOF 10
ENDMDL
MODEL 5
REMARK VINA RESULT:      -7.6      2.108      3.483
REMARK  10 active torsions:
REMARK  status: ('A' for Active; 'I' for Inactive)
REMARK    1  A    between atoms: N_7  and  C_8 
REMARK    2  A    between atoms: C_8  and  C_9 
REMARK       I    between atoms: C_9  and  N_10 
REMARK    3  A    between atoms: N_10  and  C_11 
REMARK    4  A    between atoms: C_11  and  C_12 
REMARK    5  A    between atoms: C_12  and  C_13 
REMARK    6  A    between atoms: C_13  and  C_14 
REMARK       I    between atoms: C_14  and  N_15 
REMARK    7  A    between atoms: N_15  and  C_16 
REMARK    8  A    between atoms: C_16  and  C_17 
REMARK    9  A    between atoms: C_17  and  C_18 
REMARK   10  A    between atoms: C_18  and  N_19 
ROOT
HETATM    1  C   UNL     1     -44.693  57.360 -54.461  1.00  0.00     0.123 C 
ENDROOT
BRANCH   1   2
HETATM    2  N   UNL     1     -43.291  57.038 -54.299  1.00  0.00    -0.360 N 
HETATM    3  C   UNL     1     -42.642  56.171 -55.158  1.00  0.00     0.235 C 
HETATM    4  O   UNL     1     -43.213  55.612 -56.090  1.00  0.00    -0.272 OA
HETATM    5  H   UNL     1     -42.799  57.413 -53.496  1.00  0.00     0.162 HD
BRANCH   3   6
HETATM    6  C   UNL     1     -41.143  56.034 -54.893  1.00  0.00     0.235 C 
BRANCH   6   7
HETATM    7  N   UNL     1     -40.909  55.143 -53.772  1.00  0.00    -0.299 N 
HETATM    8  C   UNL     1     -41.132  55.578 -52.480  1.00  0.00     0.214 A 
HETATM    9  N   UNL     1     -40.986  54.865 -51.411  1.00  0.00    -0.235 NA
HETATM   10  C   UNL     1     -40.576  53.594 -51.640  1.00  0.00     0.115 A 
HETATM   11  C   UNL     1     -40.266  53.032 -52.859  1.00  0.00     0.075 A 
HETATM   12  S   UNL     1     -40.395  52.479 -50.370  1.00  0.00    -0.074 SA
HETATM   13  C   UNL     1     -39.854  51.654 -52.754  1.00  0.00    -0.031 A 
HETATM   14  C   UNL     1     -40.403  53.874 -54.038  1.00  0.00     0.262 A 
HETATM   15  C   UNL     1     -39.447  50.809 -53.918  1.00  0.00     0.050 C 
HETATM   16  C   UNL     1     -39.919  51.225 -51.435  1.00  0.00    -0.012 A 
HETATM   17  C   UNL     1     -39.627  49.871 -50.872  1.00  0.00     0.057 C 
HETATM   18  O   UNL     1     -40.100  53.497 -55.169  1.00  0.00    -0.267 OA
ENDBRANCH   6   7
ENDBRANCH   3   6
ENDBRANCH   1   2
BRANCH   1  19
HETATM   19  C   UNL     1     -44.902  58.651 -55.248  1.00  0.00     0.029 C 
BRANCH  19  20
HETATM   20  C   UNL     1     -44.003  59.760 -54.712  1.00  0.00     0.104 C 
BRANCH  20  21
HETATM   21  C   UNL     1     -42.750  59.922 -55.541  1.00  0.00     0.217 C 
HETATM   22  N   UNL     1     -42.953  60.435 -56.803  1.00  0.00    -0.361 N 
HETATM   23  H   UNL     1     -43.914  60.531 -57.121  1.00  0.00     0.162 HD
HETATM   24  O   UNL     1     -41.633  59.636 -55.117  1.00  0.00    -0.274 OA
BRANCH  22  25
HETATM   25  C   UNL     1     -41.910  60.447 -57.808  1.00  0.00     0.124 C 
BRANCH  25  26
HETATM   26  C   UNL     1     -42.113  59.422 -58.929  1.00  0.00     0.047 C 
BRANCH  26  27
HETATM   27  C   UNL     1     -42.046  57.981 -58.427  1.00  0.00     0.236 C 
BRANCH  27  28
HETATM   28  N   UNL     1     -43.315  57.208 -58.778  1.00  0.00    -0.070 N 
HETATM   29  H   UNL     1     -43.442  56.497 -58.047  1.00  0.00     0.279 HD
HETATM   30  C   UNL     1     -44.547  58.085 -58.807  1.00  0.00     0.239 C 
HETATM   31  C   UNL     1     -45.784  57.232 -59.095  1.00  0.00     0.008 C 
HETATM   32  C   UNL     1     -45.621  56.443 -60.399  1.00  0.00     0.011 C 
HETATM   33  C   UNL     1     -47.030  58.116 -59.158  1.00  0.00     0.011 C 
HETATM   34  C   UNL     1     -44.333  55.611 -60.426  1.00  0.00     0.008 C 
HETATM   35  C   UNL     1     -43.118  56.479 -60.094  1.00  0.00     0.239 C 
HETATM   36  C   UNL     1     -44.429  54.382 -59.516  1.00  0.00     0.011 C 
ENDBRANCH  27  28
ENDBRANCH  26  27
ENDBRANCH  25  26
ENDBRANCH  22  25
ENDBRANCH  20  21
ENDBRANCH  19  20
ENDBRANCH   1  19
TORSDOF 10
ENDMDL
MODEL 6
REMARK VINA RESULT:      -7.6      1.947      2.868
REMARK  10 active torsions:
REMARK  status: ('A' for Active; 'I' for Inactive)
REMARK    1  A    between atoms: N_7  and  C_8 
REMARK    2  A    between atoms: C_8  and  C_9 
REMARK       I    between atoms: C_9  and  N_10 
REMARK    3  A    between atoms: N_10  and  C_11 
REMARK    4  A    between atoms: C_11  and  C_12 
REMARK    5  A    between atoms: C_12  and  C_13 
REMARK    6  A    between atoms: C_13  and  C_14 
REMARK       I    between atoms: C_14  and  N_15 
REMARK    7  A    between atoms: N_15  and  C_16 
REMARK    8  A    between atoms: C_16  and  C_17 
REMARK    9  A    between atoms: C_17  and  C_18 
REMARK   10  A    between atoms: C_18  and  N_19 
ROOT
HETATM    1  C   UNL     1     -45.520  59.136 -50.474  1.00  0.00     0.123 C 
ENDROOT
BRANCH   1   2
HETATM    2  N   UNL     1     -44.104  58.923 -50.686  1.00  0.00    -0.360 N 
HETATM    3  C   UNL     1     -43.638  58.067 -51.665  1.00  0.00     0.235 C 
HETATM    4  O   UNL     1     -44.388  57.425 -52.395  1.00  0.00    -0.272 OA
HETATM    5  H   UNL     1     -43.449  59.370 -50.054  1.00  0.00     0.162 HD
BRANCH   3   6
HETATM    6  C   UNL     1     -42.117  58.050 -51.808  1.00  0.00     0.235 C 
BRANCH   6   7
HETATM    7  N   UNL     1     -41.618  56.691 -51.732  1.00  0.00    -0.299 N 
HETATM    8  C   UNL     1     -41.454  56.078 -50.505  1.00  0.00     0.214 A 
HETATM    9  N   UNL     1     -41.047  54.865 -50.318  1.00  0.00    -0.235 NA
HETATM   10  C   UNL     1     -40.771  54.187 -51.460  1.00  0.00     0.115 A 
HETATM   11  C   UNL     1     -40.836  54.675 -52.747  1.00  0.00     0.075 A 
HETATM   12  S   UNL     1     -40.290  52.558 -51.428  1.00  0.00    -0.074 SA
HETATM   13  C   UNL     1     -40.469  53.694 -53.738  1.00  0.00    -0.031 A 
HETATM   14  C   UNL     1     -41.260  56.056 -52.919  1.00  0.00     0.262 A 
HETATM   15  C   UNL     1     -40.438  53.958 -55.209  1.00  0.00     0.050 C 
HETATM   16  C   UNL     1     -40.183  52.476 -53.136  1.00  0.00    -0.012 A 
HETATM   17  C   UNL     1     -39.803  51.178 -53.774  1.00  0.00     0.057 C 
HETATM   18  O   UNL     1     -41.299  56.613 -54.014  1.00  0.00    -0.267 OA
ENDBRANCH   6   7
ENDBRANCH   3   6
ENDBRANCH   1   2
BRANCH   1  19
HETATM   19  C   UNL     1     -45.917  60.600 -50.645  1.00  0.00     0.029 C 
BRANCH  19  20
HETATM   20  C   UNL     1     -46.549  60.830 -52.013  1.00  0.00     0.104 C 
BRANCH  20  21
HETATM   21  C   UNL     1     -45.541  60.695 -53.131  1.00  0.00     0.217 C 
HETATM   22  N   UNL     1     -45.949  59.908 -54.185  1.00  0.00    -0.361 N 
HETATM   23  H   UNL     1     -46.812  59.382 -54.073  1.00  0.00     0.162 HD
HETATM   24  O   UNL     1     -44.450  61.257 -53.110  1.00  0.00    -0.274 OA
BRANCH  22  25
HETATM   25  C   UNL     1     -45.038  59.485 -55.229  1.00  0.00     0.124 C 
BRANCH  25  26
HETATM   26  C   UNL     1     -45.302  58.069 -55.752  1.00  0.00     0.047 C 
BRANCH  26  27
HETATM   27  C   UNL     1     -44.016  57.305 -56.057  1.00  0.00     0.236 C 
BRANCH  27  28
HETATM   28  N   UNL     1     -43.827  57.108 -57.559  1.00  0.00    -0.070 N 
HETATM   29  H   UNL     1     -44.765  57.080 -57.977  1.00  0.00     0.279 HD
HETATM   30  C   UNL     1     -43.053  58.235 -58.207  1.00  0.00     0.239 C 
HETATM   31  C   UNL     1     -42.965  58.004 -59.716  1.00  0.00     0.008 C 
HETATM   32  C   UNL     1     -42.345  56.638 -60.031  1.00  0.00     0.011 C 
HETATM   33  C   UNL     1     -42.157  59.122 -60.374  1.00  0.00     0.011 C 
HETATM   34  C   UNL     1     -43.063  55.486 -59.317  1.00  0.00     0.008 C 
HETATM   35  C   UNL     1     -43.174  55.763 -57.817  1.00  0.00     0.239 C 
HETATM   36  C   UNL     1     -44.424  55.184 -59.949  1.00  0.00     0.011 C 
ENDBRANCH  27  28
ENDBRANCH  26  27
ENDBRANCH  25  26
ENDBRANCH  22  25
ENDBRANCH  20  21
ENDBRANCH  19  20
ENDBRANCH   1  19
TORSDOF 10
ENDMDL
MODEL 7
REMARK VINA RESULT:      -7.4      1.507      2.387
REMARK  10 active torsions:
REMARK  status: ('A' for Active; 'I' for Inactive)
REMARK    1  A    between atoms: N_7  and  C_8 
REMARK    2  A    between atoms: C_8  and  C_9 
REMARK       I    between atoms: C_9  and  N_10 
REMARK    3  A    between atoms: N_10  and  C_11 
REMARK    4  A    between atoms: C_11  and  C_12 
REMARK    5  A    between atoms: C_12  and  C_13 
REMARK    6  A    between atoms: C_13  and  C_14 
REMARK       I    between atoms: C_14  and  N_15 
REMARK    7  A    between atoms: N_15  and  C_16 
REMARK    8  A    between atoms: C_16  and  C_17 
REMARK    9  A    between atoms: C_17  and  C_18 
REMARK   10  A    between atoms: C_18  and  N_19 
ROOT
HETATM    1  C   UNL     1     -44.550  58.263 -52.675  1.00  0.00     0.123 C 
ENDROOT
BRANCH   1   2
HETATM    2  N   UNL     1     -43.255  58.051 -52.063  1.00  0.00    -0.360 N 
HETATM    3  C   UNL     1     -43.028  57.005 -51.189  1.00  0.00     0.235 C 
HETATM    4  O   UNL     1     -43.906  56.210 -50.866  1.00  0.00    -0.272 OA
HETATM    5  H   UNL     1     -42.522  58.729 -52.237  1.00  0.00     0.162 HD
BRANCH   3   6
HETATM    6  C   UNL     1     -41.577  56.880 -50.726  1.00  0.00     0.235 C 
BRANCH   6   7
HETATM    7  N   UNL     1     -41.081  55.541 -50.979  1.00  0.00    -0.299 N 
HETATM    8  C   UNL     1     -40.709  54.728 -49.926  1.00  0.00     0.214 A 
HETATM    9  N   UNL     1     -40.283  53.511 -50.029  1.00  0.00    -0.235 NA
HETATM   10  C   UNL     1     -40.214  53.051 -51.303  1.00  0.00     0.115 A 
HETATM   11  C   UNL     1     -40.499  53.754 -52.453  1.00  0.00     0.075 A 
HETATM   12  S   UNL     1     -39.744  51.453 -51.642  1.00  0.00    -0.074 SA
HETATM   13  C   UNL     1     -40.317  52.971 -53.650  1.00  0.00    -0.031 A 
HETATM   14  C   UNL     1     -40.938  55.133 -52.302  1.00  0.00     0.262 A 
HETATM   15  C   UNL     1     -40.541  53.488 -55.034  1.00  0.00     0.050 C 
HETATM   16  C   UNL     1     -39.937  51.674 -53.330  1.00  0.00    -0.012 A 
HETATM   17  C   UNL     1     -39.682  50.518 -54.243  1.00  0.00     0.057 C 
HETATM   18  O   UNL     1     -41.165  55.872 -53.259  1.00  0.00    -0.267 OA
ENDBRANCH   6   7
ENDBRANCH   3   6
ENDBRANCH   1   2
BRANCH   1  19
HETATM   19  C   UNL     1     -44.454  59.074 -53.964  1.00  0.00     0.029 C 
BRANCH  19  20
HETATM   20  C   UNL     1     -45.046  58.296 -55.134  1.00  0.00     0.104 C 
BRANCH  20  21
HETATM   21  C   UNL     1     -43.981  57.828 -56.099  1.00  0.00     0.217 C 
HETATM   22  N   UNL     1     -43.997  56.477 -56.368  1.00  0.00    -0.361 N 
HETATM   23  H   UNL     1     -44.614  55.894 -55.809  1.00  0.00     0.162 HD
HETATM   24  O   UNL     1     -43.174  58.595 -56.617  1.00  0.00    -0.274 OA
BRANCH  22  25
HETATM   25  C   UNL     1     -42.922  55.821 -57.084  1.00  0.00     0.124 C 
BRANCH  25  26
HETATM   26  C   UNL     1     -43.313  55.327 -58.481  1.00  0.00     0.047 C 
BRANCH  26  27
HETATM   27  C   UNL     1     -42.609  56.098 -59.596  1.00  0.00     0.236 C 
BRANCH  27  28
HETATM   28  N   UNL     1     -43.118  57.534 -59.689  1.00  0.00    -0.070 N 
HETATM   29  H   UNL     1     -43.241  57.870 -58.727  1.00  0.00     0.279 HD
HETATM   30  C   UNL     1     -42.150  58.456 -60.395  1.00  0.00     0.239 C 
HETATM   31  C   UNL     1     -42.695  59.886 -60.389  1.00  0.00     0.008 C 
HETATM   32  C   UNL     1     -44.092  59.947 -61.015  1.00  0.00     0.011 C 
HETATM   33  C   UNL     1     -41.736  60.819 -61.128  1.00  0.00     0.011 C 
HETATM   34  C   UNL     1     -45.071  58.958 -60.370  1.00  0.00     0.008 C 
HETATM   35  C   UNL     1     -44.483  57.546 -60.352  1.00  0.00     0.239 C 
HETATM   36  C   UNL     1     -45.510  59.417 -58.977  1.00  0.00     0.011 C 
ENDBRANCH  27  28
ENDBRANCH  26  27
ENDBRANCH  25  26
ENDBRANCH  22  25
ENDBRANCH  20  21
ENDBRANCH  19  20
ENDBRANCH   1  19
TORSDOF 10
ENDMDL
MODEL 8
REMARK VINA RESULT:      -7.4      2.956      8.013
REMARK  10 active torsions:
REMARK  status: ('A' for Active; 'I' for Inactive)
REMARK    1  A    between atoms: N_7  and  C_8 
REMARK    2  A    between atoms: C_8  and  C_9 
REMARK       I    between atoms: C_9  and  N_10 
REMARK    3  A    between atoms: N_10  and  C_11 
REMARK    4  A    between atoms: C_11  and  C_12 
REMARK    5  A    between atoms: C_12  and  C_13 
REMARK    6  A    between atoms: C_13  and  C_14 
REMARK       I    between atoms: C_14  and  N_15 
REMARK    7  A    between atoms: N_15  and  C_16 
REMARK    8  A    between atoms: C_16  and  C_17 
REMARK    9  A    between atoms: C_17  and  C_18 
REMARK   10  A    between atoms: C_18  and  N_19 
ROOT
HETATM    1  C   UNL     1     -42.136  60.066 -53.470  1.00  0.00     0.123 C 
ENDROOT
BRANCH   1   2
HETATM    2  N   UNL     1     -41.806  59.854 -54.864  1.00  0.00    -0.360 N 
HETATM    3  C   UNL     1     -42.685  59.233 -55.731  1.00  0.00     0.235 C 
HETATM    4  O   UNL     1     -43.780  58.809 -55.372  1.00  0.00    -0.272 OA
HETATM    5  H   UNL     1     -40.881  60.115 -55.186  1.00  0.00     0.162 HD
BRANCH   3   6
HETATM    6  C   UNL     1     -42.208  59.192 -57.181  1.00  0.00     0.235 C 
BRANCH   6   7
HETATM    7  N   UNL     1     -43.042  58.298 -57.961  1.00  0.00    -0.299 N 
HETATM    8  C   UNL     1     -42.786  56.940 -57.971  1.00  0.00     0.214 A 
HETATM    9  N   UNL     1     -43.477  56.049 -58.603  1.00  0.00    -0.235 NA
HETATM   10  C   UNL     1     -44.529  56.549 -59.298  1.00  0.00     0.115 A 
HETATM   11  C   UNL     1     -44.881  57.875 -59.425  1.00  0.00     0.075 A 
HETATM   12  S   UNL     1     -45.601  55.530 -60.137  1.00  0.00    -0.074 SA
HETATM   13  C   UNL     1     -46.053  58.069 -60.243  1.00  0.00    -0.031 A 
HETATM   14  C   UNL     1     -44.058  58.855 -58.734  1.00  0.00     0.262 A 
HETATM   15  C   UNL     1     -46.645  59.405 -60.557  1.00  0.00     0.050 C 
HETATM   16  C   UNL     1     -46.562  56.847 -60.663  1.00  0.00    -0.012 A 
HETATM   17  C   UNL     1     -47.779  56.569 -61.485  1.00  0.00     0.057 C 
HETATM   18  O   UNL     1     -44.243  60.067 -58.822  1.00  0.00    -0.267 OA
ENDBRANCH   6   7
ENDBRANCH   3   6
ENDBRANCH   1   2
BRANCH   1  19
HETATM   19  C   UNL     1     -41.149  59.378 -52.531  1.00  0.00     0.029 C 
BRANCH  19  20
HETATM   20  C   UNL     1     -41.127  57.874 -52.782  1.00  0.00     0.104 C 
BRANCH  20  21
HETATM   21  C   UNL     1     -41.852  57.109 -51.698  1.00  0.00     0.217 C 
HETATM   22  N   UNL     1     -41.036  56.552 -50.738  1.00  0.00    -0.361 N 
HETATM   23  H   UNL     1     -40.033  56.579 -50.902  1.00  0.00     0.162 HD
HETATM   24  O   UNL     1     -43.075  57.006 -51.666  1.00  0.00    -0.274 OA
BRANCH  22  25
HETATM   25  C   UNL     1     -41.531  55.604 -49.761  1.00  0.00     0.124 C 
BRANCH  25  26
HETATM   26  C   UNL     1     -41.383  54.139 -50.184  1.00  0.00     0.047 C 
BRANCH  26  27
HETATM   27  C   UNL     1     -39.963  53.795 -50.628  1.00  0.00     0.236 C 
BRANCH  27  28
HETATM   28  N   UNL     1     -39.940  53.246 -52.052  1.00  0.00    -0.070 N 
HETATM   29  H   UNL     1     -39.138  53.679 -52.525  1.00  0.00     0.279 HD
HETATM   30  C   UNL     1     -39.765  51.744 -52.100  1.00  0.00     0.239 C 
HETATM   31  C   UNL     1     -39.682  51.278 -53.555  1.00  0.00     0.008 C 
HETATM   32  C   UNL     1     -40.910  51.730 -54.352  1.00  0.00     0.011 C 
HETATM   33  C   UNL     1     -39.537  49.757 -53.613  1.00  0.00     0.011 C 
HETATM   34  C   UNL     1     -41.156  53.240 -54.248  1.00  0.00     0.008 C 
HETATM   35  C   UNL     1     -41.193  53.685 -52.785  1.00  0.00     0.239 C 
HETATM   36  C   UNL     1     -40.141  54.041 -55.069  1.00  0.00     0.011 C 
ENDBRANCH  27  28
ENDBRANCH  26  27
ENDBRANCH  25  26
ENDBRANCH  22  25
ENDBRANCH  20  21
ENDBRANCH  19  20
ENDBRANCH   1  19
TORSDOF 10
ENDMDL
MODEL 9
REMARK VINA RESULT:      -7.4      2.096      2.996
REMARK  10 active torsions:
REMARK  status: ('A' for Active; 'I' for Inactive)
REMARK    1  A    between atoms: N_7  and  C_8 
REMARK    2  A    between atoms: C_8  and  C_9 
REMARK       I    between atoms: C_9  and  N_10 
REMARK    3  A    between atoms: N_10  and  C_11 
REMARK    4  A    between atoms: C_11  and  C_12 
REMARK    5  A    between atoms: C_12  and  C_13 
REMARK    6  A    between atoms: C_13  and  C_14 
REMARK       I    between atoms: C_14  and  N_15 
REMARK    7  A    between atoms: N_15  and  C_16 
REMARK    8  A    between atoms: C_16  and  C_17 
REMARK    9  A    between atoms: C_17  and  C_18 
REMARK   10  A    between atoms: C_18  and  N_19 
ROOT
HETATM    1  C   UNL     1     -43.661  58.343 -51.172  1.00  0.00     0.123 C 
ENDROOT
BRANCH   1   2
HETATM    2  N   UNL     1     -42.938  57.145 -50.798  1.00  0.00    -0.360 N 
HETATM    3  C   UNL     1     -41.587  57.174 -50.510  1.00  0.00     0.235 C 
HETATM    4  O   UNL     1     -40.919  58.203 -50.570  1.00  0.00    -0.272 OA
HETATM    5  H   UNL     1     -43.431  56.260 -50.813  1.00  0.00     0.162 HD
BRANCH   3   6
HETATM    6  C   UNL     1     -41.021  55.837 -50.035  1.00  0.00     0.235 C 
BRANCH   6   7
HETATM    7  N   UNL     1     -40.872  54.927 -51.155  1.00  0.00    -0.299 N 
HETATM    8  C   UNL     1     -41.134  55.359 -52.441  1.00  0.00     0.214 A 
HETATM    9  N   UNL     1     -41.008  54.648 -53.514  1.00  0.00    -0.235 NA
HETATM   10  C   UNL     1     -40.581  53.380 -53.295  1.00  0.00     0.115 A 
HETATM   11  C   UNL     1     -40.328  52.791 -52.075  1.00  0.00     0.075 A 
HETATM   12  S   UNL     1     -40.285  52.311 -54.583  1.00  0.00    -0.074 SA
HETATM   13  C   UNL     1     -39.892  51.422 -52.192  1.00  0.00    -0.031 A 
HETATM   14  C   UNL     1     -40.518  53.608 -50.886  1.00  0.00     0.262 A 
HETATM   15  C   UNL     1     -39.564  50.543 -51.029  1.00  0.00     0.050 C 
HETATM   16  C   UNL     1     -39.794  51.054 -53.528  1.00  0.00    -0.012 A 
HETATM   17  C   UNL     1     -39.344  49.754 -54.114  1.00  0.00     0.057 C 
HETATM   18  O   UNL     1     -40.378  53.171 -49.745  1.00  0.00    -0.267 OA
ENDBRANCH   6   7
ENDBRANCH   3   6
ENDBRANCH   1   2
BRANCH   1  19
HETATM   19  C   UNL     1     -43.760  58.510 -52.686  1.00  0.00     0.029 C 
BRANCH  19  20
HETATM   20  C   UNL     1     -43.144  59.835 -53.122  1.00  0.00     0.104 C 
BRANCH  20  21
HETATM   21  C   UNL     1     -42.206  59.665 -54.294  1.00  0.00     0.217 C 
HETATM   22  N   UNL     1     -42.763  59.932 -55.525  1.00  0.00    -0.361 N 
HETATM   23  H   UNL     1     -43.768  60.084 -55.562  1.00  0.00     0.162 HD
HETATM   24  O   UNL     1     -41.032  59.331 -54.160  1.00  0.00    -0.274 OA
BRANCH  22  25
HETATM   25  C   UNL     1     -42.088  59.606 -56.764  1.00  0.00     0.124 C 
BRANCH  25  26
HETATM   26  C   UNL     1     -42.933  58.774 -57.735  1.00  0.00     0.047 C 
BRANCH  26  27
HETATM   27  C   UNL     1     -43.191  57.358 -57.225  1.00  0.00     0.236 C 
BRANCH  27  28
HETATM   28  N   UNL     1     -44.094  56.578 -58.177  1.00  0.00    -0.070 N 
HETATM   29  H   UNL     1     -44.566  55.857 -57.617  1.00  0.00     0.279 HD
HETATM   30  C   UNL     1     -45.152  57.443 -58.825  1.00  0.00     0.239 C 
HETATM   31  C   UNL     1     -46.058  56.582 -59.707  1.00  0.00     0.008 C 
HETATM   32  C   UNL     1     -45.243  55.810 -60.750  1.00  0.00     0.011 C 
HETATM   33  C   UNL     1     -47.111  57.455 -60.392  1.00  0.00     0.011 C 
HETATM   34  C   UNL     1     -44.110  54.989 -60.121  1.00  0.00     0.008 C 
HETATM   35  C   UNL     1     -43.245  55.865 -59.212  1.00  0.00     0.239 C 
HETATM   36  C   UNL     1     -44.638  53.750 -59.394  1.00  0.00     0.011 C 
ENDBRANCH  27  28
ENDBRANCH  26  27
ENDBRANCH  25  26
ENDBRANCH  22  25
ENDBRANCH  20  21
ENDBRANCH  19  20
ENDBRANCH   1  19
TORSDOF 10
ENDMDL
MODEL 10
REMARK VINA RESULT:      -7.4      3.139      7.384
REMARK  10 active torsions:
REMARK  status: ('A' for Active; 'I' for Inactive)
REMARK    1  A    between atoms: N_7  and  C_8 
REMARK    2  A    between atoms: C_8  and  C_9 
REMARK       I    between atoms: C_9  and  N_10 
REMARK    3  A    between atoms: N_10  and  C_11 
REMARK    4  A    between atoms: C_11  and  C_12 
REMARK    5  A    between atoms: C_12  and  C_13 
REMARK    6  A    between atoms: C_13  and  C_14 
REMARK       I    between atoms: C_14  and  N_15 
REMARK    7  A    between atoms: N_15  and  C_16 
REMARK    8  A    between atoms: C_16  and  C_17 
REMARK    9  A    between atoms: C_17  and  C_18 
REMARK   10  A    between atoms: C_18  and  N_19 
ROOT
HETATM    1  C   UNL     1     -45.094  58.974 -52.693  1.00  0.00     0.123 C 
ENDROOT
BRANCH   1   2
HETATM    2  N   UNL     1     -44.584  59.131 -54.039  1.00  0.00    -0.360 N 
HETATM    3  C   UNL     1     -44.854  60.260 -54.789  1.00  0.00     0.235 C 
HETATM    4  O   UNL     1     -45.551  61.181 -54.372  1.00  0.00    -0.272 OA
HETATM    5  H   UNL     1     -44.072  58.361 -54.454  1.00  0.00     0.162 HD
BRANCH   3   6
HETATM    6  C   UNL     1     -44.147  60.294 -56.143  1.00  0.00     0.235 C 
BRANCH   6   7
HETATM    7  N   UNL     1     -44.757  59.343 -57.053  1.00  0.00    -0.299 N 
HETATM    8  C   UNL     1     -46.126  59.340 -57.240  1.00  0.00     0.214 A 
HETATM    9  N   UNL     1     -46.773  58.561 -58.045  1.00  0.00    -0.235 NA
HETATM   10  C   UNL     1     -45.989  57.696 -58.734  1.00  0.00     0.115 A 
HETATM   11  C   UNL     1     -44.624  57.545 -58.620  1.00  0.00     0.075 A 
HETATM   12  S   UNL     1     -46.644  56.639 -59.893  1.00  0.00    -0.074 SA
HETATM   13  C   UNL     1     -44.097  56.527 -59.495  1.00  0.00    -0.031 A 
HETATM   14  C   UNL     1     -43.932  58.410 -57.677  1.00  0.00     0.262 A 
HETATM   15  C   UNL     1     -42.653  56.148 -59.565  1.00  0.00     0.050 C 
HETATM   16  C   UNL     1     -45.108  55.981 -60.273  1.00  0.00    -0.012 A 
HETATM   17  C   UNL     1     -45.015  54.935 -61.337  1.00  0.00     0.057 C 
HETATM   18  O   UNL     1     -42.727  58.325 -57.451  1.00  0.00    -0.267 OA
ENDBRANCH   6   7
ENDBRANCH   3   6
ENDBRANCH   1   2
BRANCH   1  19
HETATM   19  C   UNL     1     -44.142  58.179 -51.803  1.00  0.00     0.029 C 
BRANCH  19  20
HETATM   20  C   UNL     1     -42.758  58.818 -51.789  1.00  0.00     0.104 C 
BRANCH  20  21
HETATM   21  C   UNL     1     -41.718  57.903 -51.186  1.00  0.00     0.217 C 
HETATM   22  N   UNL     1     -42.224  56.789 -50.554  1.00  0.00    -0.361 N 
HETATM   23  H   UNL     1     -43.232  56.740 -50.424  1.00  0.00     0.162 HD
HETATM   24  O   UNL     1     -40.513  58.125 -51.267  1.00  0.00    -0.274 OA
BRANCH  22  25
HETATM   25  C   UNL     1     -41.400  55.928 -49.730  1.00  0.00     0.124 C 
BRANCH  25  26
HETATM   26  C   UNL     1     -41.119  54.555 -50.350  1.00  0.00     0.047 C 
BRANCH  26  27
HETATM   27  C   UNL     1     -42.330  53.982 -51.083  1.00  0.00     0.236 C 
BRANCH  27  28
HETATM   28  N   UNL     1     -41.985  53.607 -52.522  1.00  0.00    -0.070 N 
HETATM   29  H   UNL     1     -42.376  52.672 -52.688  1.00  0.00     0.279 HD
HETATM   30  C   UNL     1     -42.580  54.558 -53.536  1.00  0.00     0.239 C 
HETATM   31  C   UNL     1     -42.252  54.080 -54.952  1.00  0.00     0.008 C 
HETATM   32  C   UNL     1     -40.740  53.922 -55.145  1.00  0.00     0.011 C 
HETATM   33  C   UNL     1     -42.824  55.053 -55.983  1.00  0.00     0.011 C 
HETATM   34  C   UNL     1     -40.100  53.027 -54.076  1.00  0.00     0.008 C 
HETATM   35  C   UNL     1     -40.479  53.503 -52.673  1.00  0.00     0.239 C 
HETATM   36  C   UNL     1     -40.435  51.549 -54.294  1.00  0.00     0.011 C 
ENDBRANCH  27  28
ENDBRANCH  26  27
ENDBRANCH  25  26
ENDBRANCH  22  25
ENDBRANCH  20  21
ENDBRANCH  19  20
ENDBRANCH   1  19
TORSDOF 10
ENDMDL
