MODEL 1
REMARK VINA RESULT:      -9.6      0.000      0.000
REMARK  3 active torsions:
REMARK  status: ('A' for Active; 'I' for Inactive)
REMARK    1  A    between atoms: C_8  and  C_9 
REMARK    2  A    between atoms: C_14  and  C_15 
REMARK    3  A    between atoms: C_16  and  O_17 
ROOT
HETATM    1  C   UNL     1     -42.810  56.486 -56.906  1.00  0.00     0.143 A 
HETATM    2  N   UNL     1     -43.773  56.757 -56.048  1.00  0.00    -0.223 NA
HETATM    3  C   UNL     1     -43.274  56.477 -54.791  1.00  0.00     0.149 A 
HETATM    4  C   UNL     1     -41.972  56.021 -54.902  1.00  0.00     0.046 A 
HETATM    5  C   UNL     1     -40.970  55.708 -53.848  1.00  0.00     0.070 C 
HETATM    6  C   UNL     1     -41.457  54.715 -52.773  1.00  0.00     0.045 C 
HETATM    7  C   UNL     1     -42.987  54.626 -52.574  1.00  0.00     0.132 C 
HETATM    8  N   UNL     1     -43.654  55.910 -52.457  1.00  0.00    -0.355 N 
HETATM    9  C   UNL     1     -44.020  56.683 -53.546  1.00  0.00     0.272 C 
HETATM   10  O   UNL     1     -44.936  57.493 -53.424  1.00  0.00    -0.266 OA
HETATM   11  N   UNL     1     -41.706  56.011 -56.246  1.00  0.00    -0.341 N 
HETATM   12  H   UNL     1     -40.832  55.758 -56.679  1.00  0.00     0.167 HD
HETATM   13  H   UNL     1     -44.283  56.053 -51.676  1.00  0.00     0.162 HD
ENDROOT
BRANCH   1  14
HETATM   14  C   UNL     1     -42.928  56.697 -58.374  1.00  0.00     0.059 A 
HETATM   15  C   UNL     1     -42.523  57.792 -59.115  1.00  0.00     0.040 A 
HETATM   16  C   UNL     1     -41.865  59.074 -58.777  1.00  0.00     0.071 C 
HETATM   17  N   UNL     1     -42.866  57.493 -60.407  1.00  0.00    -0.281 N 
HETATM   18  H   UNL     1     -42.729  58.059 -61.237  1.00  0.00     0.189 HD
HETATM   19  N   UNL     1     -43.454  56.300 -60.559  1.00  0.00    -0.179 NA
HETATM   20  C   UNL     1     -43.504  55.802 -59.315  1.00  0.00     0.067 A 
HETATM   21  C   UNL     1     -44.116  54.471 -59.068  1.00  0.00     0.073 C 
ENDBRANCH   1  14
BRANCH   6  22
HETATM   22  C   UNL     1     -40.825  53.337 -52.990  1.00  0.00    -0.019 A 
HETATM   23  C   UNL     1     -39.988  52.763 -52.008  1.00  0.00     0.074 A 
HETATM   24  C   UNL     1     -39.426  51.499 -52.225  1.00  0.00     0.037 A 
HETATM   25  C   UNL     1     -39.671  50.809 -53.413  1.00  0.00     0.003 A 
HETATM   26  C   UNL     1     -40.467  51.381 -54.399  1.00  0.00     0.001 A 
HETATM   27  C   UNL     1     -41.032  52.639 -54.195  1.00  0.00     0.010 A 
BRANCH  23  28
HETATM   28  O   UNL     1     -39.776  53.514 -50.881  1.00  0.00    -0.355 OA
HETATM   29  C   UNL     1     -40.403  53.096 -49.676  1.00  0.00     0.210 C 
ENDBRANCH  23  28
ENDBRANCH   6  22
TORSDOF 3
ENDMDL
MODEL 2
REMARK VINA RESULT:      -8.3      2.600      3.378
REMARK  3 active torsions:
REMARK  status: ('A' for Active; 'I' for Inactive)
REMARK    1  A    between atoms: C_8  and  C_9 
REMARK    2  A    between atoms: C_14  and  C_15 
REMARK    3  A    between atoms: C_16  and  O_17 
ROOT
HETATM    1  C   UNL     1     -42.540  58.234 -53.607  1.00  0.00     0.143 A 
HETATM    2  N   UNL     1     -43.617  57.951 -52.902  1.00  0.00    -0.223 NA
HETATM    3  C   UNL     1     -43.268  56.933 -52.037  1.00  0.00     0.149 A 
HETATM    4  C   UNL     1     -41.940  56.595 -52.233  1.00  0.00     0.046 A 
HETATM    5  C   UNL     1     -41.066  55.658 -51.479  1.00  0.00     0.070 C 
HETATM    6  C   UNL     1     -41.633  54.231 -51.325  1.00  0.00     0.045 C 
HETATM    7  C   UNL     1     -43.169  54.098 -51.428  1.00  0.00     0.132 C 
HETATM    8  N   UNL     1     -43.912  55.057 -50.631  1.00  0.00    -0.355 N 
HETATM    9  C   UNL     1     -44.176  56.351 -51.044  1.00  0.00     0.272 C 
HETATM   10  O   UNL     1     -45.142  56.945 -50.569  1.00  0.00    -0.266 OA
HETATM   11  N   UNL     1     -41.505  57.410 -53.245  1.00  0.00    -0.341 N 
HETATM   12  H   UNL     1     -40.572  57.447 -53.621  1.00  0.00     0.167 HD
HETATM   13  H   UNL     1     -44.641  54.708 -50.020  1.00  0.00     0.162 HD
ENDROOT
BRANCH   1  14
HETATM   14  C   UNL     1     -42.481  59.314 -54.629  1.00  0.00     0.059 A 
HETATM   15  C   UNL     1     -42.565  60.680 -54.433  1.00  0.00     0.040 A 
HETATM   16  C   UNL     1     -42.726  61.538 -53.239  1.00  0.00     0.071 C 
HETATM   17  N   UNL     1     -42.468  61.224 -55.687  1.00  0.00    -0.281 N 
HETATM   18  H   UNL     1     -42.491  62.204 -55.947  1.00  0.00     0.189 HD
HETATM   19  N   UNL     1     -42.328  60.325 -56.669  1.00  0.00    -0.179 NA
HETATM   20  C   UNL     1     -42.340  59.145 -56.032  1.00  0.00     0.067 A 
HETATM   21  C   UNL     1     -42.221  57.881 -56.803  1.00  0.00     0.073 C 
ENDBRANCH   1  14
BRANCH   6  22
HETATM   22  C   UNL     1     -40.907  53.262 -52.262  1.00  0.00    -0.019 A 
HETATM   23  C   UNL     1     -40.300  52.090 -51.761  1.00  0.00     0.074 A 
HETATM   24  C   UNL     1     -39.647  51.215 -52.638  1.00  0.00     0.037 A 
HETATM   25  C   UNL     1     -39.576  51.501 -54.002  1.00  0.00     0.003 A 
HETATM   26  C   UNL     1     -40.142  52.669 -54.499  1.00  0.00     0.001 A 
HETATM   27  C   UNL     1     -40.795  53.548 -53.636  1.00  0.00     0.010 A 
BRANCH  23  28
HETATM   28  O   UNL     1     -40.391  51.894 -50.407  1.00  0.00    -0.355 OA
HETATM   29  C   UNL     1     -40.233  50.569 -49.916  1.00  0.00     0.210 C 
ENDBRANCH  23  28
ENDBRANCH   6  22
TORSDOF 3
ENDMDL
MODEL 3
REMARK VINA RESULT:      -8.2      2.845      5.578
REMARK  3 active torsions:
REMARK  status: ('A' for Active; 'I' for Inactive)
REMARK    1  A    between atoms: C_8  and  C_9 
REMARK    2  A    between atoms: C_14  and  C_15 
REMARK    3  A    between atoms: C_16  and  O_17 
ROOT
HETATM    1  C   UNL     1     -42.777  57.933 -52.413  1.00  0.00     0.143 A 
HETATM    2  N   UNL     1     -42.399  58.092 -53.665  1.00  0.00    -0.223 NA
HETATM    3  C   UNL     1     -42.321  56.830 -54.220  1.00  0.00     0.149 A 
HETATM    4  C   UNL     1     -42.660  55.885 -53.267  1.00  0.00     0.046 A 
HETATM    5  C   UNL     1     -42.848  54.415 -53.394  1.00  0.00     0.070 C 
HETATM    6  C   UNL     1     -41.655  53.668 -54.027  1.00  0.00     0.045 C 
HETATM    7  C   UNL     1     -40.730  54.511 -54.934  1.00  0.00     0.132 C 
HETATM    8  N   UNL     1     -41.427  55.329 -55.910  1.00  0.00    -0.355 N 
HETATM    9  C   UNL     1     -41.972  56.567 -55.619  1.00  0.00     0.272 C 
HETATM   10  O   UNL     1     -42.137  57.376 -56.529  1.00  0.00    -0.266 OA
HETATM   11  N   UNL     1     -42.921  56.599 -52.127  1.00  0.00    -0.341 N 
HETATM   12  H   UNL     1     -43.225  56.222 -51.243  1.00  0.00     0.167 HD
HETATM   13  H   UNL     1     -41.132  55.274 -56.877  1.00  0.00     0.162 HD
ENDROOT
BRANCH   1  14
HETATM   14  C   UNL     1     -43.024  59.060 -51.474  1.00  0.00     0.059 A 
HETATM   15  C   UNL     1     -42.110  59.718 -50.672  1.00  0.00     0.040 A 
HETATM   16  C   UNL     1     -40.653  59.583 -50.451  1.00  0.00     0.071 C 
HETATM   17  N   UNL     1     -42.843  60.660 -49.998  1.00  0.00    -0.281 N 
HETATM   18  H   UNL     1     -42.516  61.335 -49.315  1.00  0.00     0.189 HD
HETATM   19  N   UNL     1     -44.147  60.663 -50.300  1.00  0.00    -0.179 NA
HETATM   20  C   UNL     1     -44.273  59.679 -51.203  1.00  0.00     0.067 A 
HETATM   21  C   UNL     1     -45.606  59.360 -51.776  1.00  0.00     0.073 C 
ENDBRANCH   1  14
BRANCH   6  22
HETATM   22  C   UNL     1     -40.871  52.906 -52.955  1.00  0.00    -0.019 A 
HETATM   23  C   UNL     1     -40.203  51.702 -53.267  1.00  0.00     0.074 A 
HETATM   24  C   UNL     1     -39.486  51.026 -52.272  1.00  0.00     0.037 A 
HETATM   25  C   UNL     1     -39.442  51.523 -50.968  1.00  0.00     0.003 A 
HETATM   26  C   UNL     1     -40.123  52.690 -50.645  1.00  0.00     0.001 A 
HETATM   27  C   UNL     1     -40.841  53.373 -51.627  1.00  0.00     0.010 A 
BRANCH  23  28
HETATM   28  O   UNL     1     -40.316  51.266 -54.561  1.00  0.00    -0.355 OA
HETATM   29  C   UNL     1     -39.979  49.913 -54.838  1.00  0.00     0.210 C 
ENDBRANCH  23  28
ENDBRANCH   6  22
TORSDOF 3
ENDMDL
MODEL 4
REMARK VINA RESULT:      -8.1      3.543      7.198
REMARK  3 active torsions:
REMARK  status: ('A' for Active; 'I' for Inactive)
REMARK    1  A    between atoms: C_8  and  C_9 
REMARK    2  A    between atoms: C_14  and  C_15 
REMARK    3  A    between atoms: C_16  and  O_17 
ROOT
HETATM    1  C   UNL     1     -40.663  52.503 -53.393  1.00  0.00     0.143 A 
HETATM    2  N   UNL     1     -41.763  52.540 -54.117  1.00  0.00    -0.223 NA
HETATM    3  C   UNL     1     -41.924  53.847 -54.529  1.00  0.00     0.149 A 
HETATM    4  C   UNL     1     -40.888  54.620 -54.031  1.00  0.00     0.046 A 
HETATM    5  C   UNL     1     -40.541  56.043 -54.286  1.00  0.00     0.070 C 
HETATM    6  C   UNL     1     -41.693  57.039 -54.038  1.00  0.00     0.045 C 
HETATM    7  C   UNL     1     -43.123  56.460 -54.132  1.00  0.00     0.132 C 
HETATM    8  N   UNL     1     -43.366  55.644 -55.307  1.00  0.00    -0.355 N 
HETATM    9  C   UNL     1     -43.012  54.309 -55.395  1.00  0.00     0.272 C 
HETATM   10  O   UNL     1     -43.614  53.582 -56.183  1.00  0.00    -0.266 OA
HETATM   11  N   UNL     1     -40.116  53.757 -53.297  1.00  0.00    -0.341 N 
HETATM   12  H   UNL     1     -39.260  53.985 -52.816  1.00  0.00     0.167 HD
HETATM   13  H   UNL     1     -44.184  55.847 -55.869  1.00  0.00     0.162 HD
ENDROOT
BRANCH   1  14
HETATM   14  C   UNL     1     -40.107  51.260 -52.794  1.00  0.00     0.059 A 
HETATM   15  C   UNL     1     -39.685  50.115 -53.444  1.00  0.00     0.040 A 
HETATM   16  C   UNL     1     -39.617  49.705 -54.864  1.00  0.00     0.071 C 
HETATM   17  N   UNL     1     -39.276  49.270 -52.445  1.00  0.00    -0.281 N 
HETATM   18  H   UNL     1     -38.904  48.331 -52.534  1.00  0.00     0.189 HD
HETATM   19  N   UNL     1     -39.398  49.776 -51.212  1.00  0.00    -0.179 NA
HETATM   20  C   UNL     1     -39.914  50.998 -51.412  1.00  0.00     0.067 A 
HETATM   21  C   UNL     1     -40.213  51.879 -50.254  1.00  0.00     0.073 C 
ENDBRANCH   1  14
BRANCH   6  22
HETATM   22  C   UNL     1     -41.466  57.805 -52.732  1.00  0.00    -0.019 A 
HETATM   23  C   UNL     1     -41.280  59.205 -52.738  1.00  0.00     0.074 A 
HETATM   24  C   UNL     1     -41.081  59.886 -51.531  1.00  0.00     0.037 A 
HETATM   25  C   UNL     1     -41.048  59.189 -50.322  1.00  0.00     0.003 A 
HETATM   26  C   UNL     1     -41.199  57.808 -50.309  1.00  0.00     0.001 A 
HETATM   27  C   UNL     1     -41.397  57.118 -51.505  1.00  0.00     0.010 A 
BRANCH  23  28
HETATM   28  O   UNL     1     -41.300  59.812 -53.967  1.00  0.00    -0.355 OA
HETATM   29  C   UNL     1     -42.405  60.652 -54.275  1.00  0.00     0.210 C 
ENDBRANCH  23  28
ENDBRANCH   6  22
TORSDOF 3
ENDMDL
MODEL 5
REMARK VINA RESULT:      -8.0      2.733      7.368
REMARK  3 active torsions:
REMARK  status: ('A' for Active; 'I' for Inactive)
REMARK    1  A    between atoms: C_8  and  C_9 
REMARK    2  A    between atoms: C_14  and  C_15 
REMARK    3  A    between atoms: C_16  and  O_17 
ROOT
HETATM    1  C   UNL     1     -41.580  55.545 -53.238  1.00  0.00     0.143 A 
HETATM    2  N   UNL     1     -41.019  56.736 -53.190  1.00  0.00    -0.223 NA
HETATM    3  C   UNL     1     -41.805  57.575 -53.954  1.00  0.00     0.149 A 
HETATM    4  C   UNL     1     -42.869  56.863 -54.478  1.00  0.00     0.046 A 
HETATM    5  C   UNL     1     -44.049  57.328 -55.254  1.00  0.00     0.070 C 
HETATM    6  C   UNL     1     -43.707  58.160 -56.507  1.00  0.00     0.045 C 
HETATM    7  C   UNL     1     -42.336  58.873 -56.494  1.00  0.00     0.132 C 
HETATM    8  N   UNL     1     -42.049  59.603 -55.273  1.00  0.00    -0.355 N 
HETATM    9  C   UNL     1     -41.549  59.008 -54.128  1.00  0.00     0.272 C 
HETATM   10  O   UNL     1     -40.926  59.695 -53.321  1.00  0.00    -0.266 OA
HETATM   11  N   UNL     1     -42.696  55.577 -54.035  1.00  0.00    -0.341 N 
HETATM   12  H   UNL     1     -43.311  54.798 -54.210  1.00  0.00     0.167 HD
HETATM   13  H   UNL     1     -41.743  60.566 -55.352  1.00  0.00     0.162 HD
ENDROOT
BRANCH   1  14
HETATM   14  C   UNL     1     -41.064  54.357 -52.505  1.00  0.00     0.059 A 
HETATM   15  C   UNL     1     -40.494  53.212 -53.029  1.00  0.00     0.040 A 
HETATM   16  C   UNL     1     -40.191  52.751 -54.403  1.00  0.00     0.071 C 
HETATM   17  N   UNL     1     -40.203  52.430 -51.942  1.00  0.00    -0.281 N 
HETATM   18  H   UNL     1     -39.777  51.510 -51.929  1.00  0.00     0.189 HD
HETATM   19  N   UNL     1     -40.535  52.978 -50.766  1.00  0.00    -0.179 NA
HETATM   20  C   UNL     1     -41.071  54.161 -51.099  1.00  0.00     0.067 A 
HETATM   21  C   UNL     1     -41.585  55.070 -50.042  1.00  0.00     0.073 C 
ENDBRANCH   1  14
BRANCH   6  22
HETATM   22  C   UNL     1     -43.910  57.327 -57.776  1.00  0.00    -0.019 A 
HETATM   23  C   UNL     1     -45.032  57.537 -58.607  1.00  0.00     0.074 A 
HETATM   24  C   UNL     1     -45.194  56.768 -59.766  1.00  0.00     0.037 A 
HETATM   25  C   UNL     1     -44.264  55.781 -60.097  1.00  0.00     0.003 A 
HETATM   26  C   UNL     1     -43.174  55.545 -59.268  1.00  0.00     0.001 A 
HETATM   27  C   UNL     1     -43.002  56.304 -58.111  1.00  0.00     0.010 A 
BRANCH  23  28
HETATM   28  O   UNL     1     -45.912  58.506 -58.200  1.00  0.00    -0.355 OA
HETATM   29  C   UNL     1     -47.177  58.087 -57.703  1.00  0.00     0.210 C 
ENDBRANCH  23  28
ENDBRANCH   6  22
TORSDOF 3
ENDMDL
MODEL 6
REMARK VINA RESULT:      -7.8      2.699      5.008
REMARK  3 active torsions:
REMARK  status: ('A' for Active; 'I' for Inactive)
REMARK    1  A    between atoms: C_8  and  C_9 
REMARK    2  A    between atoms: C_14  and  C_15 
REMARK    3  A    between atoms: C_16  and  O_17 
ROOT
HETATM    1  C   UNL     1     -44.463  57.966 -53.927  1.00  0.00     0.143 A 
HETATM    2  N   UNL     1     -43.951  58.037 -55.139  1.00  0.00    -0.223 NA
HETATM    3  C   UNL     1     -43.481  56.775 -55.444  1.00  0.00     0.149 A 
HETATM    4  C   UNL     1     -43.717  55.923 -54.379  1.00  0.00     0.046 A 
HETATM    5  C   UNL     1     -43.515  54.455 -54.258  1.00  0.00     0.070 C 
HETATM    6  C   UNL     1     -42.093  53.971 -54.612  1.00  0.00     0.045 C 
HETATM    7  C   UNL     1     -41.278  54.889 -55.551  1.00  0.00     0.132 C 
HETATM    8  N   UNL     1     -41.999  55.338 -56.729  1.00  0.00    -0.355 N 
HETATM    9  C   UNL     1     -42.870  56.413 -56.726  1.00  0.00     0.272 C 
HETATM   10  O   UNL     1     -43.090  57.006 -57.780  1.00  0.00    -0.266 OA
HETATM   11  N   UNL     1     -44.316  56.700 -53.421  1.00  0.00    -0.341 N 
HETATM   12  H   UNL     1     -44.648  56.389 -52.523  1.00  0.00     0.167 HD
HETATM   13  H   UNL     1     -41.556  55.223 -57.632  1.00  0.00     0.162 HD
ENDROOT
BRANCH   1  14
HETATM   14  C   UNL     1     -45.120  59.111 -53.239  1.00  0.00     0.059 A 
HETATM   15  C   UNL     1     -45.575  60.293 -53.794  1.00  0.00     0.040 A 
HETATM   16  C   UNL     1     -45.595  60.842 -55.168  1.00  0.00     0.071 C 
HETATM   17  N   UNL     1     -46.082  61.007 -52.740  1.00  0.00    -0.281 N 
HETATM   18  H   UNL     1     -46.504  61.929 -52.755  1.00  0.00     0.189 HD
HETATM   19  N   UNL     1     -45.992  60.384 -51.558  1.00  0.00    -0.179 NA
HETATM   20  C   UNL     1     -45.397  59.219 -51.850  1.00  0.00     0.067 A 
HETATM   21  C   UNL     1     -45.106  58.240 -50.771  1.00  0.00     0.073 C 
ENDBRANCH   1  14
BRANCH   6  22
HETATM   22  C   UNL     1     -41.318  53.612 -53.342  1.00  0.00    -0.019 A 
HETATM   23  C   UNL     1     -40.572  52.415 -53.263  1.00  0.00     0.074 A 
HETATM   24  C   UNL     1     -39.865  52.112 -52.093  1.00  0.00     0.037 A 
HETATM   25  C   UNL     1     -39.905  52.975 -50.997  1.00  0.00     0.003 A 
HETATM   26  C   UNL     1     -40.662  54.139 -51.054  1.00  0.00     0.001 A 
HETATM   27  C   UNL     1     -41.371  54.453 -52.213  1.00  0.00     0.010 A 
BRANCH  23  28
HETATM   28  O   UNL     1     -40.605  51.610 -54.371  1.00  0.00    -0.355 OA
HETATM   29  C   UNL     1     -40.027  50.315 -54.268  1.00  0.00     0.210 C 
ENDBRANCH  23  28
ENDBRANCH   6  22
TORSDOF 3
ENDMDL
MODEL 7
REMARK VINA RESULT:      -7.6     14.302     15.618
REMARK  3 active torsions:
REMARK  status: ('A' for Active; 'I' for Inactive)
REMARK    1  A    between atoms: C_8  and  C_9 
REMARK    2  A    between atoms: C_14  and  C_15 
REMARK    3  A    between atoms: C_16  and  O_17 
ROOT
HETATM    1  C   UNL     1     -37.569  40.788 -57.425  1.00  0.00     0.143 A 
HETATM    2  N   UNL     1     -38.690  40.722 -56.737  1.00  0.00    -0.223 NA
HETATM    3  C   UNL     1     -38.411  41.210 -55.476  1.00  0.00     0.149 A 
HETATM    4  C   UNL     1     -37.077  41.576 -55.407  1.00  0.00     0.046 A 
HETATM    5  C   UNL     1     -36.322  42.259 -54.323  1.00  0.00     0.070 C 
HETATM    6  C   UNL     1     -36.435  41.588 -52.939  1.00  0.00     0.045 C 
HETATM    7  C   UNL     1     -37.687  40.712 -52.710  1.00  0.00     0.132 C 
HETATM    8  N   UNL     1     -38.938  41.334 -53.105  1.00  0.00    -0.355 N 
HETATM    9  C   UNL     1     -39.405  41.348 -54.408  1.00  0.00     0.272 C 
HETATM   10  O   UNL     1     -40.611  41.474 -54.609  1.00  0.00    -0.266 OA
HETATM   11  N   UNL     1     -36.557  41.278 -56.640  1.00  0.00    -0.341 N 
HETATM   12  H   UNL     1     -35.611  41.445 -56.944  1.00  0.00     0.167 HD
HETATM   13  H   UNL     1     -39.701  41.339 -52.439  1.00  0.00     0.162 HD
ENDROOT
BRANCH   1  14
HETATM   14  C   UNL     1     -37.453  40.396 -58.856  1.00  0.00     0.059 A 
HETATM   15  C   UNL     1     -37.359  41.220 -59.961  1.00  0.00     0.040 A 
HETATM   16  C   UNL     1     -37.334  42.688 -60.149  1.00  0.00     0.071 C 
HETATM   17  N   UNL     1     -37.285  40.370 -61.033  1.00  0.00    -0.281 N 
HETATM   18  H   UNL     1     -37.210  40.607 -62.016  1.00  0.00     0.189 HD
HETATM   19  N   UNL     1     -37.322  39.071 -60.709  1.00  0.00    -0.179 NA
HETATM   20  C   UNL     1     -37.430  39.073 -59.373  1.00  0.00     0.067 A 
HETATM   21  C   UNL     1     -37.516  37.790 -58.630  1.00  0.00     0.073 C 
ENDBRANCH   1  14
BRANCH   6  22
HETATM   22  C   UNL     1     -35.141  40.842 -52.598  1.00  0.00    -0.019 A 
HETATM   23  C   UNL     1     -34.866  40.441 -51.272  1.00  0.00     0.074 A 
HETATM   24  C   UNL     1     -33.680  39.754 -50.986  1.00  0.00     0.037 A 
HETATM   25  C   UNL     1     -32.758  39.479 -51.997  1.00  0.00     0.003 A 
HETATM   26  C   UNL     1     -33.006  39.898 -53.298  1.00  0.00     0.001 A 
HETATM   27  C   UNL     1     -34.183  40.583 -53.597  1.00  0.00     0.010 A 
BRANCH  23  28
HETATM   28  O   UNL     1     -35.808  40.772 -50.334  1.00  0.00    -0.355 OA
HETATM   29  C   UNL     1     -36.363  39.722 -49.551  1.00  0.00     0.210 C 
ENDBRANCH  23  28
ENDBRANCH   6  22
TORSDOF 3
ENDMDL
MODEL 8
REMARK VINA RESULT:      -7.2      2.356      4.709
REMARK  3 active torsions:
REMARK  status: ('A' for Active; 'I' for Inactive)
REMARK    1  A    between atoms: C_8  and  C_9 
REMARK    2  A    between atoms: C_14  and  C_15 
REMARK    3  A    between atoms: C_16  and  O_17 
ROOT
HETATM    1  C   UNL     1     -43.019  55.965 -56.941  1.00  0.00     0.143 A 
HETATM    2  N   UNL     1     -42.404  54.895 -56.481  1.00  0.00    -0.223 NA
HETATM    3  C   UNL     1     -42.624  54.866 -55.119  1.00  0.00     0.149 A 
HETATM    4  C   UNL     1     -43.392  55.957 -54.751  1.00  0.00     0.046 A 
HETATM    5  C   UNL     1     -43.996  56.310 -53.439  1.00  0.00     0.070 C 
HETATM    6  C   UNL     1     -43.001  56.339 -52.260  1.00  0.00     0.045 C 
HETATM    7  C   UNL     1     -41.723  55.486 -52.431  1.00  0.00     0.132 C 
HETATM    8  N   UNL     1     -41.960  54.132 -52.898  1.00  0.00    -0.355 N 
HETATM    9  C   UNL     1     -42.141  53.805 -54.230  1.00  0.00     0.272 C 
HETATM   10  O   UNL     1     -41.894  52.660 -54.603  1.00  0.00    -0.266 OA
HETATM   11  N   UNL     1     -43.611  56.652 -55.912  1.00  0.00    -0.341 N 
HETATM   12  H   UNL     1     -44.160  57.491 -56.011  1.00  0.00     0.167 HD
HETATM   13  H   UNL     1     -41.537  53.369 -52.384  1.00  0.00     0.162 HD
ENDROOT
BRANCH   1  14
HETATM   14  C   UNL     1     -43.064  56.339 -58.381  1.00  0.00     0.059 A 
HETATM   15  C   UNL     1     -42.569  57.482 -58.982  1.00  0.00     0.040 A 
HETATM   16  C   UNL     1     -41.857  58.679 -58.483  1.00  0.00     0.071 C 
HETATM   17  N   UNL     1     -42.874  57.344 -60.311  1.00  0.00    -0.281 N 
HETATM   18  H   UNL     1     -42.672  57.987 -61.068  1.00  0.00     0.189 HD
HETATM   19  N   UNL     1     -43.520  56.211 -60.613  1.00  0.00    -0.179 NA
HETATM   20  C   UNL     1     -43.648  55.586 -59.434  1.00  0.00     0.067 A 
HETATM   21  C   UNL     1     -44.342  54.275 -59.357  1.00  0.00     0.073 C 
ENDBRANCH   1  14
BRANCH   6  22
HETATM   22  C   UNL     1     -42.681  57.783 -51.864  1.00  0.00    -0.019 A 
HETATM   23  C   UNL     1     -43.671  58.612 -51.293  1.00  0.00     0.074 A 
HETATM   24  C   UNL     1     -43.354  59.927 -50.932  1.00  0.00     0.037 A 
HETATM   25  C   UNL     1     -42.071  60.432 -51.149  1.00  0.00     0.003 A 
HETATM   26  C   UNL     1     -41.099  59.633 -51.740  1.00  0.00     0.001 A 
HETATM   27  C   UNL     1     -41.402  58.322 -52.104  1.00  0.00     0.010 A 
BRANCH  23  28
HETATM   28  O   UNL     1     -44.912  58.051 -51.137  1.00  0.00    -0.355 OA
HETATM   29  C   UNL     1     -46.009  58.923 -50.894  1.00  0.00     0.210 C 
ENDBRANCH  23  28
ENDBRANCH   6  22
TORSDOF 3
ENDMDL
MODEL 9
REMARK VINA RESULT:      -7.1     14.335     15.905
REMARK  3 active torsions:
REMARK  status: ('A' for Active; 'I' for Inactive)
REMARK    1  A    between atoms: C_8  and  C_9 
REMARK    2  A    between atoms: C_14  and  C_15 
REMARK    3  A    between atoms: C_16  and  O_17 
ROOT
HETATM    1  C   UNL     1     -37.599  40.569 -57.211  1.00  0.00     0.143 A 
HETATM    2  N   UNL     1     -38.738  40.580 -56.549  1.00  0.00    -0.223 NA
HETATM    3  C   UNL     1     -38.483  41.176 -55.331  1.00  0.00     0.149 A 
HETATM    4  C   UNL     1     -37.146  41.531 -55.260  1.00  0.00     0.046 A 
HETATM    5  C   UNL     1     -36.409  42.300 -54.223  1.00  0.00     0.070 C 
HETATM    6  C   UNL     1     -36.565  41.758 -52.788  1.00  0.00     0.045 C 
HETATM    7  C   UNL     1     -37.835  40.922 -52.513  1.00  0.00     0.132 C 
HETATM    8  N   UNL     1     -39.067  41.520 -52.995  1.00  0.00    -0.355 N 
HETATM    9  C   UNL     1     -39.501  41.422 -54.306  1.00  0.00     0.272 C 
HETATM   10  O   UNL     1     -40.700  41.543 -54.548  1.00  0.00    -0.266 OA
HETATM   11  N   UNL     1     -36.600  41.117 -56.447  1.00  0.00    -0.341 N 
HETATM   12  H   UNL     1     -35.645  41.244 -56.741  1.00  0.00     0.167 HD
HETATM   13  H   UNL     1     -39.846  41.594 -52.353  1.00  0.00     0.162 HD
ENDROOT
BRANCH   1  14
HETATM   14  C   UNL     1     -37.453  40.048 -58.597  1.00  0.00     0.059 A 
HETATM   15  C   UNL     1     -37.399  38.731 -59.013  1.00  0.00     0.040 A 
HETATM   16  C   UNL     1     -37.463  37.429 -58.311  1.00  0.00     0.071 C 
HETATM   17  N   UNL     1     -37.249  38.793 -60.373  1.00  0.00    -0.281 N 
HETATM   18  H   UNL     1     -37.169  38.024 -61.030  1.00  0.00     0.189 HD
HETATM   19  N   UNL     1     -37.205  40.037 -60.866  1.00  0.00    -0.179 NA
HETATM   20  C   UNL     1     -37.324  40.819 -59.783  1.00  0.00     0.067 A 
HETATM   21  C   UNL     1     -37.301  42.298 -59.926  1.00  0.00     0.073 C 
ENDBRANCH   1  14
BRANCH   6  22
HETATM   22  C   UNL     1     -35.291  41.032 -52.348  1.00  0.00    -0.019 A 
HETATM   23  C   UNL     1     -34.912  39.810 -52.947  1.00  0.00     0.074 A 
HETATM   24  C   UNL     1     -33.739  39.167 -52.533  1.00  0.00     0.037 A 
HETATM   25  C   UNL     1     -32.950  39.714 -51.520  1.00  0.00     0.003 A 
HETATM   26  C   UNL     1     -33.332  40.899 -50.903  1.00  0.00     0.001 A 
HETATM   27  C   UNL     1     -34.498  41.549 -51.306  1.00  0.00     0.010 A 
BRANCH  23  28
HETATM   28  O   UNL     1     -35.753  39.326 -53.914  1.00  0.00    -0.355 OA
HETATM   29  C   UNL     1     -35.605  37.966 -54.304  1.00  0.00     0.210 C 
ENDBRANCH  23  28
ENDBRANCH   6  22
TORSDOF 3
ENDMDL
MODEL 10
REMARK VINA RESULT:      -7.1      3.126      7.615
REMARK  3 active torsions:
REMARK  status: ('A' for Active; 'I' for Inactive)
REMARK    1  A    between atoms: C_8  and  C_9 
REMARK    2  A    between atoms: C_14  and  C_15 
REMARK    3  A    between atoms: C_16  and  O_17 
ROOT
HETATM    1  C   UNL     1     -41.506  54.565 -52.976  1.00  0.00     0.143 A 
HETATM    2  N   UNL     1     -42.073  54.334 -54.143  1.00  0.00    -0.223 NA
HETATM    3  C   UNL     1     -42.493  55.556 -54.629  1.00  0.00     0.149 A 
HETATM    4  C   UNL     1     -42.172  56.550 -53.721  1.00  0.00     0.046 A 
HETATM    5  C   UNL     1     -42.298  58.028 -53.828  1.00  0.00     0.070 C 
HETATM    6  C   UNL     1     -43.708  58.527 -54.205  1.00  0.00     0.045 C 
HETATM    7  C   UNL     1     -44.606  57.519 -54.957  1.00  0.00     0.132 C 
HETATM    8  N   UNL     1     -43.959  56.852 -56.073  1.00  0.00    -0.355 N 
HETATM    9  C   UNL     1     -43.141  55.745 -55.930  1.00  0.00     0.272 C 
HETATM   10  O   UNL     1     -42.995  54.983 -56.884  1.00  0.00    -0.266 OA
HETATM   11  N   UNL     1     -41.571  55.901 -52.673  1.00  0.00    -0.341 N 
HETATM   12  H   UNL     1     -41.186  56.331 -51.847  1.00  0.00     0.167 HD
HETATM   13  H   UNL     1     -44.434  56.847 -56.967  1.00  0.00     0.162 HD
ENDROOT
BRANCH   1  14
HETATM   14  C   UNL     1     -40.877  53.509 -52.138  1.00  0.00     0.059 A 
HETATM   15  C   UNL     1     -40.157  52.405 -52.556  1.00  0.00     0.040 A 
HETATM   16  C   UNL     1     -39.756  51.880 -53.880  1.00  0.00     0.071 C 
HETATM   17  N   UNL     1     -39.811  51.750 -51.403  1.00  0.00    -0.281 N 
HETATM   18  H   UNL     1     -39.279  50.892 -51.307  1.00  0.00     0.189 HD
HETATM   19  N   UNL     1     -40.245  52.341 -50.283  1.00  0.00    -0.179 NA
HETATM   20  C   UNL     1     -40.907  53.421 -50.722  1.00  0.00     0.067 A 
HETATM   21  C   UNL     1     -41.560  54.339 -49.753  1.00  0.00     0.073 C 
ENDBRANCH   1  14
BRANCH   6  22
HETATM   22  C   UNL     1     -44.411  59.121 -52.981  1.00  0.00    -0.019 A 
HETATM   23  C   UNL     1     -44.577  60.518 -52.850  1.00  0.00     0.074 A 
HETATM   24  C   UNL     1     -45.228  61.038 -51.725  1.00  0.00     0.037 A 
HETATM   25  C   UNL     1     -45.700  60.189 -50.723  1.00  0.00     0.003 A 
HETATM   26  C   UNL     1     -45.513  58.816 -50.828  1.00  0.00     0.001 A 
HETATM   27  C   UNL     1     -44.865  58.285 -51.943  1.00  0.00     0.010 A 
BRANCH  23  28
HETATM   28  O   UNL     1     -44.062  61.284 -53.863  1.00  0.00    -0.355 OA
HETATM   29  C   UNL     1     -43.108  62.282 -53.522  1.00  0.00     0.210 C 
ENDBRANCH  23  28
ENDBRANCH   6  22
TORSDOF 3
ENDMDL
