MODEL 1
REMARK VINA RESULT:      -7.4      0.000      0.000
REMARK  4 active torsions:
REMARK  status: ('A' for Active; 'I' for Inactive)
REMARK    1  A    between atoms: C_3  and  N_4 
REMARK       I    between atoms: N_4  and  C_5 
REMARK    2  A    between atoms: C_5  and  C_6 
REMARK    3  A    between atoms: C_7  and  C_8 
REMARK    4  A    between atoms: C_16  and  C_17 
ROOT
HETATM    1  C   UNL     1     -39.770  51.925 -53.641  1.00  0.00     0.003 A 
HETATM    2  C   UNL     1     -40.133  52.813 -54.655  1.00  0.00     0.029 A 
HETATM    3  C   UNL     1     -40.679  54.058 -54.341  1.00  0.00     0.035 A 
HETATM    4  C   UNL     1     -40.862  54.398 -52.992  1.00  0.00     0.042 A 
HETATM    5  C   UNL     1     -40.501  53.515 -51.961  1.00  0.00    -0.021 A 
HETATM    6  C   UNL     1     -39.952  52.273 -52.303  1.00  0.00     0.012 A 
ENDROOT
BRANCH   3   7
HETATM    7  N   UNL     1     -41.093  54.998 -55.307  1.00  0.00    -0.327 N 
HETATM    8  C   UNL     1     -42.341  55.132 -55.869  1.00  0.00     0.227 C 
HETATM    9  O   UNL     1     -43.294  54.381 -55.703  1.00  0.00    -0.273 OA
HETATM   10  H   UNL     1     -40.363  55.577 -55.708  1.00  0.00     0.169 HD
BRANCH   8  11
HETATM   11  C   UNL     1     -42.565  56.326 -56.739  1.00  0.00     0.089 A 
HETATM   12  C   UNL     1     -42.367  57.767 -56.319  1.00  0.00     0.057 A 
HETATM   13  C   UNL     1     -43.747  57.238 -56.666  1.00  0.00     0.027 A 
BRANCH  12  14
HETATM   14  C   UNL     1     -42.160  58.212 -54.884  1.00  0.00     0.057 A 
HETATM   15  O   UNL     1     -42.370  57.442 -53.779  1.00  0.00    -0.327 OA
HETATM   16  C   UNL     1     -42.100  58.216 -52.696  1.00  0.00     0.142 A 
HETATM   17  C   UNL     1     -41.732  59.480 -53.089  1.00  0.00     0.027 A 
HETATM   18  C   UNL     1     -41.775  59.481 -54.503  1.00  0.00     0.035 A 
ENDBRANCH  12  14
ENDBRANCH   8  11
ENDBRANCH   3   7
BRANCH   5  19
HETATM   19  C   UNL     1     -40.689  53.896 -50.571  1.00  0.00     0.010 A 
HETATM   20  C   UNL     1     -40.526  53.154 -49.377  1.00  0.00     0.152 A 
HETATM   21  N   UNL     1     -40.787  53.868 -48.280  1.00  0.00    -0.187 NA
HETATM   22  N   UNL     1     -41.121  55.075 -48.764  1.00  0.00    -0.289 N 
HETATM   23  H   UNL     1     -41.366  55.807 -48.107  1.00  0.00     0.188 HD
HETATM   24  C   UNL     1     -41.075  55.144 -50.127  1.00  0.00     0.123 A 
ENDBRANCH   5  19
TORSDOF 4
ENDMDL
MODEL 2
REMARK VINA RESULT:      -7.3      2.335      4.239
REMARK  4 active torsions:
REMARK  status: ('A' for Active; 'I' for Inactive)
REMARK    1  A    between atoms: C_3  and  N_4 
REMARK       I    between atoms: N_4  and  C_5 
REMARK    2  A    between atoms: C_5  and  C_6 
REMARK    3  A    between atoms: C_7  and  C_8 
REMARK    4  A    between atoms: C_16  and  C_17 
ROOT
HETATM    1  C   UNL     1     -39.866  53.920 -50.054  1.00  0.00     0.003 A 
HETATM    2  C   UNL     1     -40.663  54.952 -50.554  1.00  0.00     0.029 A 
HETATM    3  C   UNL     1     -41.244  54.846 -51.818  1.00  0.00     0.035 A 
HETATM    4  C   UNL     1     -41.009  53.690 -52.578  1.00  0.00     0.042 A 
HETATM    5  C   UNL     1     -40.210  52.644 -52.088  1.00  0.00    -0.021 A 
HETATM    6  C   UNL     1     -39.642  52.773 -50.815  1.00  0.00     0.012 A 
ENDROOT
BRANCH   3   7
HETATM    7  N   UNL     1     -42.038  55.853 -52.402  1.00  0.00    -0.327 N 
HETATM    8  C   UNL     1     -43.288  56.273 -52.009  1.00  0.00     0.227 C 
HETATM    9  O   UNL     1     -43.979  55.766 -51.134  1.00  0.00    -0.273 OA
HETATM   10  H   UNL     1     -41.695  56.244 -53.273  1.00  0.00     0.169 HD
BRANCH   8  11
HETATM   11  C   UNL     1     -43.839  57.483 -52.689  1.00  0.00     0.089 A 
HETATM   12  C   UNL     1     -44.113  57.608 -54.173  1.00  0.00     0.057 A 
HETATM   13  C   UNL     1     -43.046  58.454 -53.502  1.00  0.00     0.027 A 
BRANCH  12  14
HETATM   14  C   UNL     1     -43.626  56.615 -55.212  1.00  0.00     0.057 A 
HETATM   15  O   UNL     1     -43.325  55.307 -54.974  1.00  0.00    -0.327 OA
HETATM   16  C   UNL     1     -42.902  54.776 -56.151  1.00  0.00     0.142 A 
HETATM   17  C   UNL     1     -42.915  55.729 -57.141  1.00  0.00     0.027 A 
HETATM   18  C   UNL     1     -43.379  56.920 -56.534  1.00  0.00     0.035 A 
ENDBRANCH  12  14
ENDBRANCH   8  11
ENDBRANCH   3   7
BRANCH   5  19
HETATM   19  C   UNL     1     -39.993  51.451 -52.891  1.00  0.00     0.010 A 
HETATM   20  C   UNL     1     -39.532  50.163 -52.528  1.00  0.00     0.152 A 
HETATM   21  N   UNL     1     -39.477  49.319 -53.562  1.00  0.00    -0.187 NA
HETATM   22  N   UNL     1     -39.903  50.064 -54.595  1.00  0.00    -0.289 N 
HETATM   23  H   UNL     1     -39.951  49.633 -55.512  1.00  0.00     0.188 HD
HETATM   24  C   UNL     1     -40.226  51.343 -54.245  1.00  0.00     0.123 A 
ENDBRANCH   5  19
TORSDOF 4
ENDMDL
MODEL 3
REMARK VINA RESULT:      -7.3      2.787      7.108
REMARK  4 active torsions:
REMARK  status: ('A' for Active; 'I' for Inactive)
REMARK    1  A    between atoms: C_3  and  N_4 
REMARK       I    between atoms: N_4  and  C_5 
REMARK    2  A    between atoms: C_5  and  C_6 
REMARK    3  A    between atoms: C_7  and  C_8 
REMARK    4  A    between atoms: C_16  and  C_17 
ROOT
HETATM    1  C   UNL     1     -42.450  57.739 -56.605  1.00  0.00     0.003 A 
HETATM    2  C   UNL     1     -42.176  56.833 -55.579  1.00  0.00     0.029 A 
HETATM    3  C   UNL     1     -42.468  55.478 -55.739  1.00  0.00     0.035 A 
HETATM    4  C   UNL     1     -43.045  55.044 -56.941  1.00  0.00     0.042 A 
HETATM    5  C   UNL     1     -43.325  55.944 -57.983  1.00  0.00    -0.021 A 
HETATM    6  C   UNL     1     -43.020  57.298 -57.800  1.00  0.00     0.012 A 
ENDROOT
BRANCH   3   7
HETATM    7  N   UNL     1     -42.245  54.506 -54.742  1.00  0.00    -0.327 N 
HETATM    8  C   UNL     1     -41.060  53.883 -54.424  1.00  0.00     0.227 C 
HETATM    9  O   UNL     1     -40.001  53.990 -55.031  1.00  0.00    -0.273 OA
HETATM   10  H   UNL     1     -43.071  54.150 -54.272  1.00  0.00     0.169 HD
BRANCH   8  11
HETATM   11  C   UNL     1     -41.056  53.020 -53.205  1.00  0.00     0.089 A 
HETATM   12  C   UNL     1     -41.302  53.500 -51.790  1.00  0.00     0.057 A 
HETATM   13  C   UNL     1     -39.949  52.946 -52.203  1.00  0.00     0.027 A 
BRANCH  12  14
HETATM   14  C   UNL     1     -41.333  54.961 -51.382  1.00  0.00     0.057 A 
HETATM   15  O   UNL     1     -41.819  55.983 -52.142  1.00  0.00    -0.327 OA
HETATM   16  C   UNL     1     -41.638  57.127 -51.432  1.00  0.00     0.142 A 
HETATM   17  C   UNL     1     -41.029  56.856 -50.231  1.00  0.00     0.027 A 
HETATM   18  C   UNL     1     -40.827  55.456 -50.199  1.00  0.00     0.035 A 
ENDBRANCH  12  14
ENDBRANCH   8  11
ENDBRANCH   3   7
BRANCH   5  19
HETATM   19  C   UNL     1     -43.912  55.467 -59.225  1.00  0.00     0.010 A 
HETATM   20  C   UNL     1     -44.091  56.113 -60.472  1.00  0.00     0.152 A 
HETATM   21  N   UNL     1     -44.667  55.328 -61.386  1.00  0.00    -0.187 NA
HETATM   22  N   UNL     1     -44.862  54.174 -60.729  1.00  0.00    -0.289 N 
HETATM   23  H   UNL     1     -45.297  53.405 -61.226  1.00  0.00     0.188 HD
HETATM   24  C   UNL     1     -44.426  54.206 -59.435  1.00  0.00     0.123 A 
ENDBRANCH   5  19
TORSDOF 4
ENDMDL
MODEL 4
REMARK VINA RESULT:      -7.3      2.643      3.945
REMARK  4 active torsions:
REMARK  status: ('A' for Active; 'I' for Inactive)
REMARK    1  A    between atoms: C_3  and  N_4 
REMARK       I    between atoms: N_4  and  C_5 
REMARK    2  A    between atoms: C_5  and  C_6 
REMARK    3  A    between atoms: C_7  and  C_8 
REMARK    4  A    between atoms: C_16  and  C_17 
ROOT
HETATM    1  C   UNL     1     -40.608  53.813 -49.650  1.00  0.00     0.003 A 
HETATM    2  C   UNL     1     -40.874  54.888 -50.500  1.00  0.00     0.029 A 
HETATM    3  C   UNL     1     -40.810  54.726 -51.884  1.00  0.00     0.035 A 
HETATM    4  C   UNL     1     -40.469  53.469 -52.405  1.00  0.00     0.042 A 
HETATM    5  C   UNL     1     -40.199  52.378 -51.563  1.00  0.00    -0.021 A 
HETATM    6  C   UNL     1     -40.274  52.565 -50.178  1.00  0.00     0.012 A 
ENDROOT
BRANCH   3   7
HETATM    7  N   UNL     1     -41.041  55.767 -52.806  1.00  0.00    -0.327 N 
HETATM    8  C   UNL     1     -42.236  56.382 -53.101  1.00  0.00     0.227 C 
HETATM    9  O   UNL     1     -43.340  56.054 -52.683  1.00  0.00    -0.273 OA
HETATM   10  H   UNL     1     -40.255  56.025 -53.394  1.00  0.00     0.169 HD
BRANCH   8  11
HETATM   11  C   UNL     1     -42.178  57.582 -53.987  1.00  0.00     0.089 A 
HETATM   12  C   UNL     1     -41.368  58.833 -53.720  1.00  0.00     0.057 A 
HETATM   13  C   UNL     1     -42.886  58.875 -53.739  1.00  0.00     0.027 A 
BRANCH  12  14
HETATM   14  C   UNL     1     -40.704  59.146 -52.392  1.00  0.00     0.057 A 
HETATM   15  O   UNL     1     -39.360  59.198 -52.173  1.00  0.00    -0.327 OA
HETATM   16  C   UNL     1     -39.181  59.479 -50.857  1.00  0.00     0.142 A 
HETATM   17  C   UNL     1     -40.394  59.595 -50.221  1.00  0.00     0.027 A 
HETATM   18  C   UNL     1     -41.380  59.375 -51.212  1.00  0.00     0.035 A 
ENDBRANCH  12  14
ENDBRANCH   8  11
ENDBRANCH   3   7
BRANCH   5  19
HETATM   19  C   UNL     1     -39.860  51.082 -52.129  1.00  0.00     0.010 A 
HETATM   20  C   UNL     1     -39.761  50.658 -53.476  1.00  0.00     0.152 A 
HETATM   21  N   UNL     1     -39.407  49.376 -53.593  1.00  0.00    -0.187 NA
HETATM   22  N   UNL     1     -39.277  48.970 -52.320  1.00  0.00    -0.289 N 
HETATM   23  H   UNL     1     -39.007  48.008 -52.146  1.00  0.00     0.188 HD
HETATM   24  C   UNL     1     -39.534  49.953 -51.408  1.00  0.00     0.123 A 
ENDBRANCH   5  19
TORSDOF 4
ENDMDL
MODEL 5
REMARK VINA RESULT:      -7.3      2.643      4.147
REMARK  4 active torsions:
REMARK  status: ('A' for Active; 'I' for Inactive)
REMARK    1  A    between atoms: C_3  and  N_4 
REMARK       I    between atoms: N_4  and  C_5 
REMARK    2  A    between atoms: C_5  and  C_6 
REMARK    3  A    between atoms: C_7  and  C_8 
REMARK    4  A    between atoms: C_16  and  C_17 
ROOT
HETATM    1  C   UNL     1     -40.241  54.280 -55.266  1.00  0.00     0.003 A 
HETATM    2  C   UNL     1     -41.133  55.073 -54.541  1.00  0.00     0.029 A 
HETATM    3  C   UNL     1     -41.648  54.624 -53.324  1.00  0.00     0.035 A 
HETATM    4  C   UNL     1     -41.260  53.363 -52.847  1.00  0.00     0.042 A 
HETATM    5  C   UNL     1     -40.363  52.555 -53.565  1.00  0.00    -0.021 A 
HETATM    6  C   UNL     1     -39.858  53.030 -54.781  1.00  0.00     0.012 A 
ENDROOT
BRANCH   3   7
HETATM    7  N   UNL     1     -42.571  55.354 -52.547  1.00  0.00    -0.327 N 
HETATM    8  C   UNL     1     -42.345  56.514 -51.842  1.00  0.00     0.227 C 
HETATM    9  O   UNL     1     -41.263  57.064 -51.681  1.00  0.00    -0.273 OA
HETATM   10  H   UNL     1     -43.477  54.921 -52.407  1.00  0.00     0.169 HD
BRANCH   8  11
HETATM   11  C   UNL     1     -43.539  57.184 -51.245  1.00  0.00     0.089 A 
HETATM   12  C   UNL     1     -44.709  57.749 -52.022  1.00  0.00     0.057 A 
HETATM   13  C   UNL     1     -43.785  58.658 -51.230  1.00  0.00     0.027 A 
BRANCH  12  14
HETATM   14  C   UNL     1     -44.713  57.944 -53.527  1.00  0.00     0.057 A 
HETATM   15  O   UNL     1     -44.272  57.036 -54.442  1.00  0.00    -0.327 OA
HETATM   16  C   UNL     1     -44.420  57.602 -55.668  1.00  0.00     0.142 A 
HETATM   17  C   UNL     1     -44.939  58.870 -55.553  1.00  0.00     0.027 A 
HETATM   18  C   UNL     1     -45.125  59.094 -54.168  1.00  0.00     0.035 A 
ENDBRANCH  12  14
ENDBRANCH   8  11
ENDBRANCH   3   7
BRANCH   5  19
HETATM   19  C   UNL     1     -39.968  51.257 -53.042  1.00  0.00     0.010 A 
HETATM   20  C   UNL     1     -39.824  50.005 -53.686  1.00  0.00     0.152 A 
HETATM   21  N   UNL     1     -39.424  49.036 -52.858  1.00  0.00    -0.187 NA
HETATM   22  N   UNL     1     -39.311  49.663 -51.676  1.00  0.00    -0.289 N 
HETATM   23  H   UNL     1     -39.013  49.123 -50.871  1.00  0.00     0.188 HD
HETATM   24  C   UNL     1     -39.621  50.991 -51.735  1.00  0.00     0.123 A 
ENDBRANCH   5  19
TORSDOF 4
ENDMDL
MODEL 6
REMARK VINA RESULT:      -7.2      2.332      3.846
REMARK  4 active torsions:
REMARK  status: ('A' for Active; 'I' for Inactive)
REMARK    1  A    between atoms: C_3  and  N_4 
REMARK       I    between atoms: N_4  and  C_5 
REMARK    2  A    between atoms: C_5  and  C_6 
REMARK    3  A    between atoms: C_7  and  C_8 
REMARK    4  A    between atoms: C_16  and  C_17 
ROOT
HETATM    1  C   UNL     1     -40.502  53.692 -55.378  1.00  0.00     0.003 A 
HETATM    2  C   UNL     1     -40.800  54.851 -54.660  1.00  0.00     0.029 A 
HETATM    3  C   UNL     1     -40.793  54.838 -53.264  1.00  0.00     0.035 A 
HETATM    4  C   UNL     1     -40.490  53.641 -52.599  1.00  0.00     0.042 A 
HETATM    5  C   UNL     1     -40.188  52.467 -53.308  1.00  0.00    -0.021 A 
HETATM    6  C   UNL     1     -40.197  52.508 -54.707  1.00  0.00     0.012 A 
ENDROOT
BRANCH   3   7
HETATM    7  N   UNL     1     -41.107  55.959 -52.469  1.00  0.00    -0.327 N 
HETATM    8  C   UNL     1     -42.312  56.260 -51.876  1.00  0.00     0.227 C 
HETATM    9  O   UNL     1     -43.363  55.650 -52.026  1.00  0.00    -0.273 OA
HETATM   10  H   UNL     1     -40.393  56.678 -52.409  1.00  0.00     0.169 HD
BRANCH   8  11
HETATM   11  C   UNL     1     -42.330  57.419 -50.935  1.00  0.00     0.089 A 
HETATM   12  C   UNL     1     -42.483  58.872 -51.335  1.00  0.00     0.057 A 
HETATM   13  C   UNL     1     -41.197  58.366 -50.707  1.00  0.00     0.027 A 
BRANCH  12  14
HETATM   14  C   UNL     1     -42.381  59.374 -52.762  1.00  0.00     0.057 A 
HETATM   15  O   UNL     1     -41.735  58.737 -53.780  1.00  0.00    -0.327 OA
HETATM   16  C   UNL     1     -41.852  59.525 -54.880  1.00  0.00     0.142 A 
HETATM   17  C   UNL     1     -42.553  60.668 -54.581  1.00  0.00     0.027 A 
HETATM   18  C   UNL     1     -42.892  60.574 -53.211  1.00  0.00     0.035 A 
ENDBRANCH  12  14
ENDBRANCH   8  11
ENDBRANCH   3   7
BRANCH   5  19
HETATM   19  C   UNL     1     -39.865  51.242 -52.594  1.00  0.00     0.010 A 
HETATM   20  C   UNL     1     -39.655  51.004 -51.214  1.00  0.00     0.152 A 
HETATM   21  N   UNL     1     -39.387  49.724 -50.943  1.00  0.00    -0.187 NA
HETATM   22  N   UNL     1     -39.422  49.134 -52.148  1.00  0.00    -0.289 N 
HETATM   23  H   UNL     1     -39.245  48.137 -52.202  1.00  0.00     0.188 HD
HETATM   24  C   UNL     1     -39.706  49.999 -53.167  1.00  0.00     0.123 A 
ENDBRANCH   5  19
TORSDOF 4
ENDMDL
MODEL 7
REMARK VINA RESULT:      -7.1      2.533      7.310
REMARK  4 active torsions:
REMARK  status: ('A' for Active; 'I' for Inactive)
REMARK    1  A    between atoms: C_3  and  N_4 
REMARK       I    between atoms: N_4  and  C_5 
REMARK    2  A    between atoms: C_5  and  C_6 
REMARK    3  A    between atoms: C_7  and  C_8 
REMARK    4  A    between atoms: C_16  and  C_17 
ROOT
HETATM    1  C   UNL     1     -45.356  58.344 -55.796  1.00  0.00     0.003 A 
HETATM    2  C   UNL     1     -44.963  57.641 -54.656  1.00  0.00     0.029 A 
HETATM    3  C   UNL     1     -43.886  56.755 -54.710  1.00  0.00     0.035 A 
HETATM    4  C   UNL     1     -43.212  56.580 -55.928  1.00  0.00     0.042 A 
HETATM    5  C   UNL     1     -43.596  57.281 -57.083  1.00  0.00    -0.021 A 
HETATM    6  C   UNL     1     -44.677  58.167 -57.001  1.00  0.00     0.012 A 
ENDROOT
BRANCH   3   7
HETATM    7  N   UNL     1     -43.445  55.991 -53.610  1.00  0.00    -0.327 N 
HETATM    8  C   UNL     1     -42.658  56.404 -52.560  1.00  0.00     0.227 C 
HETATM    9  O   UNL     1     -42.112  57.495 -52.451  1.00  0.00    -0.273 OA
HETATM   10  H   UNL     1     -43.644  54.997 -53.649  1.00  0.00     0.169 HD
BRANCH   8  11
HETATM   11  C   UNL     1     -42.482  55.444 -51.430  1.00  0.00     0.089 A 
HETATM   12  C   UNL     1     -41.593  54.217 -51.451  1.00  0.00     0.057 A 
HETATM   13  C   UNL     1     -43.102  54.087 -51.344  1.00  0.00     0.027 A 
BRANCH  12  14
HETATM   14  C   UNL     1     -40.958  53.651 -52.707  1.00  0.00     0.057 A 
HETATM   15  O   UNL     1     -41.020  54.214 -53.946  1.00  0.00    -0.327 OA
HETATM   16  C   UNL     1     -40.353  53.387 -54.793  1.00  0.00     0.142 A 
HETATM   17  C   UNL     1     -39.874  52.291 -54.117  1.00  0.00     0.027 A 
HETATM   18  C   UNL     1     -40.268  52.459 -52.768  1.00  0.00     0.035 A 
ENDBRANCH  12  14
ENDBRANCH   8  11
ENDBRANCH   3   7
BRANCH   5  19
HETATM   19  C   UNL     1     -42.872  57.090 -58.329  1.00  0.00     0.010 A 
HETATM   20  C   UNL     1     -42.944  56.054 -59.291  1.00  0.00     0.152 A 
HETATM   21  N   UNL     1     -42.117  56.244 -60.323  1.00  0.00    -0.187 NA
HETATM   22  N   UNL     1     -41.509  57.404 -60.027  1.00  0.00    -0.289 N 
HETATM   23  H   UNL     1     -40.821  57.766 -60.677  1.00  0.00     0.188 HD
HETATM   24  C   UNL     1     -41.928  57.950 -58.848  1.00  0.00     0.123 A 
ENDBRANCH   5  19
TORSDOF 4
ENDMDL
MODEL 8
REMARK VINA RESULT:      -7.0      3.104      4.735
REMARK  4 active torsions:
REMARK  status: ('A' for Active; 'I' for Inactive)
REMARK    1  A    between atoms: C_3  and  N_4 
REMARK       I    between atoms: N_4  and  C_5 
REMARK    2  A    between atoms: C_5  and  C_6 
REMARK    3  A    between atoms: C_7  and  C_8 
REMARK    4  A    between atoms: C_16  and  C_17 
ROOT
HETATM    1  C   UNL     1     -43.360  55.706 -53.238  1.00  0.00     0.003 A 
HETATM    2  C   UNL     1     -43.726  55.752 -54.585  1.00  0.00     0.029 A 
HETATM    3  C   UNL     1     -43.138  54.884 -55.506  1.00  0.00     0.035 A 
HETATM    4  C   UNL     1     -42.173  53.971 -55.057  1.00  0.00     0.042 A 
HETATM    5  C   UNL     1     -41.795  53.912 -53.706  1.00  0.00    -0.021 A 
HETATM    6  C   UNL     1     -42.402  54.791 -52.801  1.00  0.00     0.012 A 
ENDROOT
BRANCH   3   7
HETATM    7  N   UNL     1     -43.436  54.886 -56.884  1.00  0.00    -0.327 N 
HETATM    8  C   UNL     1     -43.054  55.814 -57.826  1.00  0.00     0.227 C 
HETATM    9  O   UNL     1     -42.469  56.868 -57.607  1.00  0.00    -0.273 OA
HETATM   10  H   UNL     1     -44.090  54.179 -57.201  1.00  0.00     0.169 HD
BRANCH   8  11
HETATM   11  C   UNL     1     -43.350  55.489 -59.253  1.00  0.00     0.089 A 
HETATM   12  C   UNL     1     -44.304  56.253 -60.148  1.00  0.00     0.057 A 
HETATM   13  C   UNL     1     -44.590  54.817 -59.746  1.00  0.00     0.027 A 
BRANCH  12  14
HETATM   14  C   UNL     1     -45.284  57.298 -59.647  1.00  0.00     0.057 A 
HETATM   15  O   UNL     1     -44.948  58.519 -59.144  1.00  0.00    -0.327 OA
HETATM   16  C   UNL     1     -46.105  59.134 -58.786  1.00  0.00     0.142 A 
HETATM   17  C   UNL     1     -47.181  58.318 -59.039  1.00  0.00     0.027 A 
HETATM   18  C   UNL     1     -46.651  57.128 -59.593  1.00  0.00     0.035 A 
ENDBRANCH  12  14
ENDBRANCH   8  11
ENDBRANCH   3   7
BRANCH   5  19
HETATM   19  C   UNL     1     -40.800  52.948 -53.265  1.00  0.00     0.010 A 
HETATM   20  C   UNL     1     -40.227  52.727 -51.989  1.00  0.00     0.152 A 
HETATM   21  N   UNL     1     -39.344  51.725 -51.982  1.00  0.00    -0.187 NA
HETATM   22  N   UNL     1     -39.345  51.299 -53.255  1.00  0.00    -0.289 N 
HETATM   23  H   UNL     1     -38.739  50.525 -53.504  1.00  0.00     0.188 HD
HETATM   24  C   UNL     1     -40.200  51.995 -54.060  1.00  0.00     0.123 A 
ENDBRANCH   5  19
TORSDOF 4
ENDMDL
MODEL 9
REMARK VINA RESULT:      -7.0      1.719      3.110
REMARK  4 active torsions:
REMARK  status: ('A' for Active; 'I' for Inactive)
REMARK    1  A    between atoms: C_3  and  N_4 
REMARK       I    between atoms: N_4  and  C_5 
REMARK    2  A    between atoms: C_5  and  C_6 
REMARK    3  A    between atoms: C_7  and  C_8 
REMARK    4  A    between atoms: C_16  and  C_17 
ROOT
HETATM    1  C   UNL     1     -40.292  52.996 -54.469  1.00  0.00     0.003 A 
HETATM    2  C   UNL     1     -40.732  54.154 -55.112  1.00  0.00     0.029 A 
HETATM    3  C   UNL     1     -41.211  55.234 -54.370  1.00  0.00     0.035 A 
HETATM    4  C   UNL     1     -41.247  55.134 -52.971  1.00  0.00     0.042 A 
HETATM    5  C   UNL     1     -40.807  53.976 -52.311  1.00  0.00    -0.021 A 
HETATM    6  C   UNL     1     -40.327  52.907 -53.077  1.00  0.00     0.012 A 
ENDROOT
BRANCH   3   7
HETATM    7  N   UNL     1     -41.697  56.426 -54.946  1.00  0.00    -0.327 N 
HETATM    8  C   UNL     1     -43.008  56.820 -55.085  1.00  0.00     0.227 C 
HETATM    9  O   UNL     1     -43.997  56.147 -54.824  1.00  0.00    -0.273 OA
HETATM   10  H   UNL     1     -41.008  57.015 -55.401  1.00  0.00     0.169 HD
BRANCH   8  11
HETATM   11  C   UNL     1     -43.247  58.213 -55.569  1.00  0.00     0.089 A 
HETATM   12  C   UNL     1     -43.356  58.631 -57.021  1.00  0.00     0.057 A 
HETATM   13  C   UNL     1     -42.208  59.115 -56.153  1.00  0.00     0.027 A 
BRANCH  12  14
HETATM   14  C   UNL     1     -42.984  57.740 -58.191  1.00  0.00     0.057 A 
HETATM   15  O   UNL     1     -43.348  56.435 -58.337  1.00  0.00    -0.327 OA
HETATM   16  C   UNL     1     -42.793  55.994 -59.496  1.00  0.00     0.142 A 
HETATM   17  C   UNL     1     -42.063  56.995 -60.090  1.00  0.00     0.027 A 
HETATM   18  C   UNL     1     -42.182  58.124 -59.245  1.00  0.00     0.035 A 
ENDBRANCH  12  14
ENDBRANCH   8  11
ENDBRANCH   3   7
BRANCH   5  19
HETATM   19  C   UNL     1     -40.843  53.902 -50.859  1.00  0.00     0.010 A 
HETATM   20  C   UNL     1     -41.442  54.758 -49.904  1.00  0.00     0.152 A 
HETATM   21  N   UNL     1     -41.265  54.341 -48.648  1.00  0.00    -0.187 NA
HETATM   22  N   UNL     1     -40.549  53.214 -48.790  1.00  0.00    -0.289 N 
HETATM   23  H   UNL     1     -40.285  52.702 -47.956  1.00  0.00     0.188 HD
HETATM   24  C   UNL     1     -40.274  52.908 -50.092  1.00  0.00     0.123 A 
ENDBRANCH   5  19
TORSDOF 4
ENDMDL
MODEL 10
REMARK VINA RESULT:      -6.9      2.386      7.063
REMARK  4 active torsions:
REMARK  status: ('A' for Active; 'I' for Inactive)
REMARK    1  A    between atoms: C_3  and  N_4 
REMARK       I    between atoms: N_4  and  C_5 
REMARK    2  A    between atoms: C_5  and  C_6 
REMARK    3  A    between atoms: C_7  and  C_8 
REMARK    4  A    between atoms: C_16  and  C_17 
ROOT
HETATM    1  C   UNL     1     -44.692  58.438 -52.501  1.00  0.00     0.003 A 
HETATM    2  C   UNL     1     -43.824  57.948 -51.523  1.00  0.00     0.029 A 
HETATM    3  C   UNL     1     -42.782  57.088 -51.872  1.00  0.00     0.035 A 
HETATM    4  C   UNL     1     -42.626  56.721 -53.216  1.00  0.00     0.042 A 
HETATM    5  C   UNL     1     -43.491  57.206 -54.211  1.00  0.00    -0.021 A 
HETATM    6  C   UNL     1     -44.526  58.071 -53.836  1.00  0.00     0.012 A 
ENDROOT
BRANCH   3   7
HETATM    7  N   UNL     1     -41.881  56.531 -50.941  1.00  0.00    -0.327 N 
HETATM    8  C   UNL     1     -42.034  55.377 -50.207  1.00  0.00     0.227 C 
HETATM    9  O   UNL     1     -43.040  54.680 -50.158  1.00  0.00    -0.273 OA
HETATM   10  H   UNL     1     -41.072  57.098 -50.709  1.00  0.00     0.169 HD
BRANCH   8  11
HETATM   11  C   UNL     1     -40.852  54.913 -49.423  1.00  0.00     0.089 A 
HETATM   12  C   UNL     1     -39.782  53.966 -49.925  1.00  0.00     0.057 A 
HETATM   13  C   UNL     1     -40.709  53.567 -48.790  1.00  0.00     0.027 A 
BRANCH  12  14
HETATM   14  C   UNL     1     -39.897  53.156 -51.202  1.00  0.00     0.057 A 
HETATM   15  O   UNL     1     -39.482  51.867 -51.360  1.00  0.00    -0.327 OA
HETATM   16  C   UNL     1     -39.737  51.522 -52.649  1.00  0.00     0.142 A 
HETATM   17  C   UNL     1     -40.299  52.577 -53.327  1.00  0.00     0.027 A 
HETATM   18  C   UNL     1     -40.399  53.636 -52.393  1.00  0.00     0.035 A 
ENDBRANCH  12  14
ENDBRANCH   8  11
ENDBRANCH   3   7
BRANCH   5  19
HETATM   19  C   UNL     1     -43.300  56.820 -55.600  1.00  0.00     0.010 A 
HETATM   20  C   UNL     1     -43.839  57.358 -56.793  1.00  0.00     0.152 A 
HETATM   21  N   UNL     1     -43.409  56.729 -57.889  1.00  0.00    -0.187 NA
HETATM   22  N   UNL     1     -42.591  55.781 -57.404  1.00  0.00    -0.289 N 
HETATM   23  H   UNL     1     -42.132  55.159 -58.061  1.00  0.00     0.188 HD
HETATM   24  C   UNL     1     -42.490  55.796 -56.042  1.00  0.00     0.123 A 
ENDBRANCH   5  19
TORSDOF 4
ENDMDL
