MODEL 1
REMARK VINA RESULT:      -7.9      0.000      0.000
REMARK  5 active torsions:
REMARK  status: ('A' for Active; 'I' for Inactive)
REMARK    1  A    between atoms: C_4  and  C_5 
REMARK    2  A    between atoms: C_10  and  C_11 
REMARK       I    between atoms: C_11  and  N_12 
REMARK    3  A    between atoms: N_12  and  C_13 
REMARK    4  A    between atoms: C_13  and  C_14 
REMARK    5  A    between atoms: C_22  and  C_23 
ROOT
HETATM    1  C   UNL     1     -43.236  54.325 -52.529  1.00  0.00     0.118 C 
HETATM    2  N   UNL     1     -43.847  55.584 -52.943  1.00  0.00    -0.365 N 
HETATM    3  C   UNL     1     -43.373  56.293 -53.996  1.00  0.00     0.141 A 
HETATM    4  N   UNL     1     -42.450  55.763 -54.855  1.00  0.00    -0.238 N 
HETATM    5  N   UNL     1     -42.115  56.576 -55.871  1.00  0.00    -0.163 NA
HETATM    6  C   UNL     1     -42.813  57.714 -55.624  1.00  0.00     0.165 A 
HETATM    7  C   UNL     1     -43.618  57.558 -54.466  1.00  0.00     0.092 A 
HETATM    8 BR   UNL     1     -44.771  58.822 -53.705  1.00  0.00    -0.044 Br
HETATM    9  C   UNL     1     -41.888  54.431 -54.734  1.00  0.00     0.221 C 
HETATM   10  C   UNL     1     -42.731  53.570 -53.773  1.00  0.00     0.066 C 
HETATM   11  H   UNL     1     -44.424  56.042 -52.237  1.00  0.00     0.162 HD
ENDROOT
BRANCH   6  12
HETATM   12  C   UNL     1     -42.649  58.893 -56.491  1.00  0.00     0.273 C 
HETATM   13  N   UNL     1     -43.597  58.960 -57.487  1.00  0.00    -0.353 N 
HETATM   14  H   UNL     1     -44.228  58.164 -57.549  1.00  0.00     0.162 HD
HETATM   15  O   UNL     1     -41.744  59.714 -56.371  1.00  0.00    -0.266 OA
BRANCH  13  16
HETATM   16  C   UNL     1     -43.543  59.891 -58.594  1.00  0.00     0.155 C 
BRANCH  16  17
HETATM   17  C   UNL     1     -43.431  59.203 -59.963  1.00  0.00     0.139 C 
HETATM   18  O   UNL     1     -44.336  58.079 -60.009  1.00  0.00    -0.384 OA
HETATM   19  C   UNL     1     -43.590  56.900 -60.338  1.00  0.00     0.168 C 
HETATM   20  C   UNL     1     -42.141  57.199 -60.033  1.00  0.00     0.029 C 
HETATM   21  C   UNL     1     -42.046  58.675 -60.318  1.00  0.00     0.035 C 
ENDBRANCH  16  17
ENDBRANCH  13  16
ENDBRANCH   6  12
BRANCH   9  22
HETATM   22  C   UNL     1     -40.422  54.513 -54.363  1.00  0.00     0.409 C 
HETATM   23  F   UNL     1     -39.599  54.667 -55.416  1.00  0.00    -0.169 F 
HETATM   24  F   UNL     1     -40.209  55.563 -53.529  1.00  0.00    -0.169 F 
HETATM   25  F   UNL     1     -40.012  53.411 -53.691  1.00  0.00    -0.169 F 
ENDBRANCH   9  22
BRANCH   1  26
HETATM   26  C   UNL     1     -42.215  54.490 -51.414  1.00  0.00    -0.035 A 
HETATM   27  C   UNL     1     -42.013  55.703 -50.735  1.00  0.00     0.009 A 
HETATM   28  C   UNL     1     -41.068  55.809 -49.711  1.00  0.00     0.001 A 
HETATM   29  C   UNL     1     -40.313  54.701 -49.340  1.00  0.00     0.000 A 
HETATM   30  C   UNL     1     -40.507  53.485 -49.987  1.00  0.00     0.001 A 
HETATM   31  C   UNL     1     -41.452  53.379 -51.011  1.00  0.00     0.009 A 
ENDBRANCH   1  26
TORSDOF 5
ENDMDL
MODEL 2
REMARK VINA RESULT:      -7.8      1.907      2.696
REMARK  5 active torsions:
REMARK  status: ('A' for Active; 'I' for Inactive)
REMARK    1  A    between atoms: C_4  and  C_5 
REMARK    2  A    between atoms: C_10  and  C_11 
REMARK       I    between atoms: C_11  and  N_12 
REMARK    3  A    between atoms: N_12  and  C_13 
REMARK    4  A    between atoms: C_13  and  C_14 
REMARK    5  A    between atoms: C_22  and  C_23 
ROOT
HETATM    1  C   UNL     1     -43.469  55.802 -52.647  1.00  0.00     0.118 C 
HETATM    2  N   UNL     1     -44.086  56.427 -53.814  1.00  0.00    -0.365 N 
HETATM    3  C   UNL     1     -43.627  56.203 -55.069  1.00  0.00     0.141 A 
HETATM    4  N   UNL     1     -42.716  55.217 -55.329  1.00  0.00    -0.238 N 
HETATM    5  N   UNL     1     -42.395  55.095 -56.628  1.00  0.00    -0.163 NA
HETATM    6  C   UNL     1     -43.089  56.092 -57.232  1.00  0.00     0.165 A 
HETATM    7  C   UNL     1     -43.878  56.791 -56.282  1.00  0.00     0.092 A 
HETATM    8 BR   UNL     1     -45.020  58.240 -56.599  1.00  0.00    -0.044 Br
HETATM    9  C   UNL     1     -42.152  54.336 -54.323  1.00  0.00     0.221 C 
HETATM   10  C   UNL     1     -42.981  54.390 -53.026  1.00  0.00     0.066 C 
HETATM   11  H   UNL     1     -44.653  57.252 -53.616  1.00  0.00     0.162 HD
ENDROOT
BRANCH   6  12
HETATM   12  C   UNL     1     -42.937  56.339 -58.676  1.00  0.00     0.273 C 
HETATM   13  N   UNL     1     -42.001  57.310 -58.955  1.00  0.00    -0.353 N 
HETATM   14  H   UNL     1     -41.601  57.782 -58.147  1.00  0.00     0.162 HD
HETATM   15  O   UNL     1     -43.595  55.773 -59.544  1.00  0.00    -0.266 OA
BRANCH  13  16
HETATM   16  C   UNL     1     -41.807  57.892 -60.267  1.00  0.00     0.155 C 
BRANCH  16  17
HETATM   17  C   UNL     1     -42.562  59.216 -60.463  1.00  0.00     0.139 C 
HETATM   18  O   UNL     1     -41.888  60.007 -61.465  1.00  0.00    -0.384 OA
HETATM   19  C   UNL     1     -41.572  61.288 -60.903  1.00  0.00     0.168 C 
HETATM   20  C   UNL     1     -41.623  61.133 -59.401  1.00  0.00     0.029 C 
HETATM   21  C   UNL     1     -42.691  60.086 -59.219  1.00  0.00     0.035 C 
ENDBRANCH  16  17
ENDBRANCH  13  16
ENDBRANCH   6  12
BRANCH   9  22
HETATM   22  C   UNL     1     -40.681  54.638 -54.127  1.00  0.00     0.409 C 
HETATM   23  F   UNL     1     -40.361  55.932 -54.299  1.00  0.00    -0.169 F 
HETATM   24  F   UNL     1     -40.297  54.292 -52.871  1.00  0.00    -0.169 F 
HETATM   25  F   UNL     1     -39.904  53.916 -54.969  1.00  0.00    -0.169 F 
ENDBRANCH   9  22
BRANCH   1  26
HETATM   26  C   UNL     1     -42.433  56.684 -51.970  1.00  0.00    -0.035 A 
HETATM   27  C   UNL     1     -42.085  57.959 -52.445  1.00  0.00     0.009 A 
HETATM   28  C   UNL     1     -41.132  58.740 -51.786  1.00  0.00     0.001 A 
HETATM   29  C   UNL     1     -40.515  58.264 -50.634  1.00  0.00     0.000 A 
HETATM   30  C   UNL     1     -40.854  57.011 -50.135  1.00  0.00     0.001 A 
HETATM   31  C   UNL     1     -41.808  56.230 -50.794  1.00  0.00     0.009 A 
ENDBRANCH   1  26
TORSDOF 5
ENDMDL
MODEL 3
REMARK VINA RESULT:      -7.7     16.446     19.395
REMARK  5 active torsions:
REMARK  status: ('A' for Active; 'I' for Inactive)
REMARK    1  A    between atoms: C_4  and  C_5 
REMARK    2  A    between atoms: C_10  and  C_11 
REMARK       I    between atoms: C_11  and  N_12 
REMARK    3  A    between atoms: N_12  and  C_13 
REMARK    4  A    between atoms: C_13  and  C_14 
REMARK    5  A    between atoms: C_22  and  C_23 
ROOT
HETATM    1  C   UNL     1     -36.657  42.405 -55.787  1.00  0.00     0.118 C 
HETATM    2  N   UNL     1     -37.092  41.840 -54.513  1.00  0.00    -0.365 N 
HETATM    3  C   UNL     1     -36.298  41.011 -53.793  1.00  0.00     0.141 A 
HETATM    4  N   UNL     1     -34.977  40.841 -54.104  1.00  0.00    -0.238 N 
HETATM    5  N   UNL     1     -34.317  40.022 -53.269  1.00  0.00    -0.163 NA
HETATM    6  C   UNL     1     -35.274  39.593 -52.406  1.00  0.00     0.165 A 
HETATM    7  C   UNL     1     -36.518  40.208 -52.703  1.00  0.00     0.092 A 
HETATM    8 BR   UNL     1     -38.147  39.965 -51.813  1.00  0.00    -0.044 Br
HETATM    9  C   UNL     1     -34.304  41.499 -55.208  1.00  0.00     0.221 C 
HETATM   10  C   UNL     1     -35.142  42.682 -55.730  1.00  0.00     0.066 C 
HETATM   11  H   UNL     1     -38.101  41.846 -54.356  1.00  0.00     0.162 HD
ENDROOT
BRANCH   6  12
HETATM   12  C   UNL     1     -34.952  38.600 -51.368  1.00  0.00     0.273 C 
HETATM   13  N   UNL     1     -34.750  39.169 -50.130  1.00  0.00    -0.353 N 
HETATM   14  H   UNL     1     -34.767  40.186 -50.104  1.00  0.00     0.162 HD
HETATM   15  O   UNL     1     -34.836  37.397 -51.579  1.00  0.00    -0.266 OA
BRANCH  13  16
HETATM   16  C   UNL     1     -34.219  38.453 -48.989  1.00  0.00     0.155 C 
BRANCH  16  17
HETATM   17  C   UNL     1     -32.689  38.316 -49.015  1.00  0.00     0.139 C 
HETATM   18  O   UNL     1     -32.228  37.849 -47.728  1.00  0.00    -0.384 OA
HETATM   19  C   UNL     1     -31.258  38.775 -47.224  1.00  0.00     0.168 C 
HETATM   20  C   UNL     1     -31.455  40.071 -47.975  1.00  0.00     0.029 C 
HETATM   21  C   UNL     1     -31.923  39.595 -49.326  1.00  0.00     0.035 C 
ENDBRANCH  16  17
ENDBRANCH  13  16
ENDBRANCH   6  12
BRANCH   9  22
HETATM   22  C   UNL     1     -33.935  40.489 -56.274  1.00  0.00     0.409 C 
HETATM   23  F   UNL     1     -34.790  39.455 -56.367  1.00  0.00    -0.169 F 
HETATM   24  F   UNL     1     -33.894  41.089 -57.492  1.00  0.00    -0.169 F 
HETATM   25  F   UNL     1     -32.700  39.972 -56.070  1.00  0.00    -0.169 F 
ENDBRANCH   9  22
BRANCH   1  26
HETATM   26  C   UNL     1     -37.122  41.602 -56.992  1.00  0.00    -0.035 A 
HETATM   27  C   UNL     1     -37.873  40.420 -56.880  1.00  0.00     0.009 A 
HETATM   28  C   UNL     1     -38.285  39.717 -58.014  1.00  0.00     0.001 A 
HETATM   29  C   UNL     1     -37.963  40.187 -59.283  1.00  0.00     0.000 A 
HETATM   30  C   UNL     1     -37.235  41.364 -59.420  1.00  0.00     0.001 A 
HETATM   31  C   UNL     1     -36.822  42.067 -58.285  1.00  0.00     0.009 A 
ENDBRANCH   1  26
TORSDOF 5
ENDMDL
MODEL 4
REMARK VINA RESULT:      -7.4      4.248      7.363
REMARK  5 active torsions:
REMARK  status: ('A' for Active; 'I' for Inactive)
REMARK    1  A    between atoms: C_4  and  C_5 
REMARK    2  A    between atoms: C_10  and  C_11 
REMARK       I    between atoms: C_11  and  N_12 
REMARK    3  A    between atoms: N_12  and  C_13 
REMARK    4  A    between atoms: C_13  and  C_14 
REMARK    5  A    between atoms: C_22  and  C_23 
ROOT
HETATM    1  C   UNL     1     -44.495  58.826 -51.624  1.00  0.00     0.118 C 
HETATM    2  N   UNL     1     -44.404  57.471 -51.087  1.00  0.00    -0.365 N 
HETATM    3  C   UNL     1     -43.212  56.847 -50.927  1.00  0.00     0.141 A 
HETATM    4  N   UNL     1     -42.031  57.525 -51.048  1.00  0.00    -0.238 N 
HETATM    5  N   UNL     1     -40.940  56.774 -50.818  1.00  0.00    -0.163 NA
HETATM    6  C   UNL     1     -41.439  55.531 -50.595  1.00  0.00     0.165 A 
HETATM    7  C   UNL     1     -42.857  55.553 -50.643  1.00  0.00     0.092 A 
HETATM    8 BR   UNL     1     -44.025  54.110 -50.395  1.00  0.00    -0.044 Br
HETATM    9  C   UNL     1     -41.925  58.938 -51.358  1.00  0.00     0.221 C 
HETATM   10  C   UNL     1     -43.279  59.644 -51.151  1.00  0.00     0.066 C 
HETATM   11  H   UNL     1     -45.265  56.925 -51.133  1.00  0.00     0.162 HD
ENDROOT
BRANCH   6  12
HETATM   12  C   UNL     1     -40.533  54.391 -50.378  1.00  0.00     0.273 C 
HETATM   13  N   UNL     1     -40.788  53.338 -51.227  1.00  0.00    -0.353 N 
HETATM   14  H   UNL     1     -41.602  53.444 -51.829  1.00  0.00     0.162 HD
HETATM   15  O   UNL     1     -39.666  54.357 -49.510  1.00  0.00    -0.266 OA
BRANCH  13  16
HETATM   16  C   UNL     1     -40.191  52.026 -51.090  1.00  0.00     0.155 C 
BRANCH  16  17
HETATM   17  C   UNL     1     -39.379  51.595 -52.322  1.00  0.00     0.139 C 
HETATM   18  O   UNL     1     -39.735  52.430 -53.445  1.00  0.00    -0.384 OA
HETATM   19  C   UNL     1     -40.163  51.591 -54.525  1.00  0.00     0.168 C 
HETATM   20  C   UNL     1     -40.527  50.254 -53.924  1.00  0.00     0.029 C 
HETATM   21  C   UNL     1     -39.575  50.149 -52.761  1.00  0.00     0.035 C 
ENDBRANCH  16  17
ENDBRANCH  13  16
ENDBRANCH   6  12
BRANCH   9  22
HETATM   22  C   UNL     1     -41.336  59.129 -52.741  1.00  0.00     0.409 C 
HETATM   23  F   UNL     1     -41.672  58.165 -53.616  1.00  0.00    -0.169 F 
HETATM   24  F   UNL     1     -41.751  60.311 -53.266  1.00  0.00    -0.169 F 
HETATM   25  F   UNL     1     -39.984  59.188 -52.707  1.00  0.00    -0.169 F 
ENDBRANCH   9  22
BRANCH   1  26
HETATM   26  C   UNL     1     -44.756  58.862 -53.122  1.00  0.00    -0.035 A 
HETATM   27  C   UNL     1     -44.805  57.706 -53.918  1.00  0.00     0.009 A 
HETATM   28  C   UNL     1     -45.054  57.785 -55.291  1.00  0.00     0.001 A 
HETATM   29  C   UNL     1     -45.269  59.020 -55.891  1.00  0.00     0.000 A 
HETATM   30  C   UNL     1     -45.243  60.178 -55.121  1.00  0.00     0.001 A 
HETATM   31  C   UNL     1     -44.993  60.099 -53.748  1.00  0.00     0.009 A 
ENDBRANCH   1  26
TORSDOF 5
ENDMDL
MODEL 5
REMARK VINA RESULT:      -7.4      4.268      7.134
REMARK  5 active torsions:
REMARK  status: ('A' for Active; 'I' for Inactive)
REMARK    1  A    between atoms: C_4  and  C_5 
REMARK    2  A    between atoms: C_10  and  C_11 
REMARK       I    between atoms: C_11  and  N_12 
REMARK    3  A    between atoms: N_12  and  C_13 
REMARK    4  A    between atoms: C_13  and  C_14 
REMARK    5  A    between atoms: C_22  and  C_23 
ROOT
HETATM    1  C   UNL     1     -42.084  59.098 -50.709  1.00  0.00     0.118 C 
HETATM    2  N   UNL     1     -42.152  57.639 -50.701  1.00  0.00    -0.365 N 
HETATM    3  C   UNL     1     -41.877  56.908 -51.809  1.00  0.00     0.141 A 
HETATM    4  N   UNL     1     -41.311  57.476 -52.916  1.00  0.00    -0.238 N 
HETATM    5  N   UNL     1     -41.062  56.609 -53.912  1.00  0.00    -0.163 NA
HETATM    6  C   UNL     1     -41.546  55.429 -53.448  1.00  0.00     0.165 A 
HETATM    7  C   UNL     1     -42.048  55.585 -52.130  1.00  0.00     0.092 A 
HETATM    8 BR   UNL     1     -42.815  54.269 -51.041  1.00  0.00    -0.044 Br
HETATM    9  C   UNL     1     -40.961  58.879 -53.029  1.00  0.00     0.221 C 
HETATM   10  C   UNL     1     -40.944  59.550 -51.641  1.00  0.00     0.066 C 
HETATM   11  H   UNL     1     -42.700  57.232 -49.943  1.00  0.00     0.162 HD
ENDROOT
BRANCH   6  12
HETATM   12  C   UNL     1     -41.529  54.228 -54.299  1.00  0.00     0.273 C 
HETATM   13  N   UNL     1     -41.187  53.088 -53.607  1.00  0.00    -0.353 N 
HETATM   14  H   UNL     1     -40.916  53.226 -52.636  1.00  0.00     0.162 HD
HETATM   15  O   UNL     1     -41.755  54.237 -55.506  1.00  0.00    -0.266 OA
BRANCH  13  16
HETATM   16  C   UNL     1     -40.891  51.818 -54.237  1.00  0.00     0.155 C 
BRANCH  16  17
HETATM   17  C   UNL     1     -39.618  51.150 -53.692  1.00  0.00     0.139 C 
HETATM   18  O   UNL     1     -39.812  49.720 -53.642  1.00  0.00    -0.384 OA
HETATM   19  C   UNL     1     -39.565  49.270 -52.304  1.00  0.00     0.168 C 
HETATM   20  C   UNL     1     -39.677  50.478 -51.405  1.00  0.00     0.029 C 
HETATM   21  C   UNL     1     -39.195  51.593 -52.297  1.00  0.00     0.035 C 
ENDBRANCH  16  17
ENDBRANCH  13  16
ENDBRANCH   6  12
BRANCH   9  22
HETATM   22  C   UNL     1     -41.863  59.566 -54.033  1.00  0.00     0.409 C 
HETATM   23  F   UNL     1     -41.429  59.484 -55.304  1.00  0.00    -0.169 F 
HETATM   24  F   UNL     1     -43.105  59.017 -53.996  1.00  0.00    -0.169 F 
HETATM   25  F   UNL     1     -42.025  60.879 -53.748  1.00  0.00    -0.169 F 
ENDBRANCH   9  22
BRANCH   1  26
HETATM   26  C   UNL     1     -43.428  59.761 -50.964  1.00  0.00    -0.035 A 
HETATM   27  C   UNL     1     -44.615  59.034 -51.160  1.00  0.00     0.009 A 
HETATM   28  C   UNL     1     -45.831  59.685 -51.384  1.00  0.00     0.001 A 
HETATM   29  C   UNL     1     -45.886  61.074 -51.407  1.00  0.00     0.000 A 
HETATM   30  C   UNL     1     -44.728  61.816 -51.198  1.00  0.00     0.001 A 
HETATM   31  C   UNL     1     -43.511  61.165 -50.974  1.00  0.00     0.009 A 
ENDBRANCH   1  26
TORSDOF 5
ENDMDL
MODEL 6
REMARK VINA RESULT:      -7.3      3.640      8.216
REMARK  5 active torsions:
REMARK  status: ('A' for Active; 'I' for Inactive)
REMARK    1  A    between atoms: C_4  and  C_5 
REMARK    2  A    between atoms: C_10  and  C_11 
REMARK       I    between atoms: C_11  and  N_12 
REMARK    3  A    between atoms: N_12  and  C_13 
REMARK    4  A    between atoms: C_13  and  C_14 
REMARK    5  A    between atoms: C_22  and  C_23 
ROOT
HETATM    1  C   UNL     1     -42.763  58.721 -59.294  1.00  0.00     0.118 C 
HETATM    2  N   UNL     1     -42.413  58.578 -57.883  1.00  0.00    -0.365 N 
HETATM    3  C   UNL     1     -42.511  57.389 -57.242  1.00  0.00     0.141 A 
HETATM    4  N   UNL     1     -42.725  56.225 -57.927  1.00  0.00    -0.238 N 
HETATM    5  N   UNL     1     -42.754  55.128 -57.152  1.00  0.00    -0.163 NA
HETATM    6  C   UNL     1     -42.609  55.614 -55.892  1.00  0.00     0.165 A 
HETATM    7  C   UNL     1     -42.441  57.022 -55.922  1.00  0.00     0.092 A 
HETATM    8 BR   UNL     1     -42.196  58.169 -54.463  1.00  0.00    -0.044 Br
HETATM    9  C   UNL     1     -42.876  56.138 -59.368  1.00  0.00     0.221 C 
HETATM   10  C   UNL     1     -42.383  57.431 -60.046  1.00  0.00     0.066 C 
HETATM   11  H   UNL     1     -42.394  59.447 -57.349  1.00  0.00     0.162 HD
ENDROOT
BRANCH   6  12
HETATM   12  C   UNL     1     -42.669  54.709 -54.732  1.00  0.00     0.273 C 
HETATM   13  N   UNL     1     -41.457  54.119 -54.452  1.00  0.00    -0.353 N 
HETATM   14  H   UNL     1     -40.709  54.314 -55.114  1.00  0.00     0.162 HD
HETATM   15  O   UNL     1     -43.693  54.469 -54.099  1.00  0.00    -0.266 OA
BRANCH  13  16
HETATM   16  C   UNL     1     -41.284  53.038 -53.505  1.00  0.00     0.155 C 
BRANCH  16  17
HETATM   17  C   UNL     1     -39.970  52.264 -53.699  1.00  0.00     0.139 C 
HETATM   18  O   UNL     1     -40.168  51.221 -54.677  1.00  0.00    -0.384 OA
HETATM   19  C   UNL     1     -39.797  49.966 -54.092  1.00  0.00     0.168 C 
HETATM   20  C   UNL     1     -39.814  50.157 -52.594  1.00  0.00     0.029 C 
HETATM   21  C   UNL     1     -39.411  51.602 -52.446  1.00  0.00     0.035 C 
ENDBRANCH  16  17
ENDBRANCH  13  16
ENDBRANCH   6  12
BRANCH   9  22
HETATM   22  C   UNL     1     -44.297  55.758 -59.724  1.00  0.00     0.409 C 
HETATM   23  F   UNL     1     -45.229  56.324 -58.937  1.00  0.00    -0.169 F 
HETATM   24  F   UNL     1     -44.572  56.128 -61.002  1.00  0.00    -0.169 F 
HETATM   25  F   UNL     1     -44.488  54.419 -59.672  1.00  0.00    -0.169 F 
ENDBRANCH   9  22
BRANCH   1  26
HETATM   26  C   UNL     1     -44.189  59.201 -59.513  1.00  0.00    -0.035 A 
HETATM   27  C   UNL     1     -44.757  59.356 -60.789  1.00  0.00     0.009 A 
HETATM   28  C   UNL     1     -46.074  59.794 -60.945  1.00  0.00     0.001 A 
HETATM   29  C   UNL     1     -46.853  60.076 -59.828  1.00  0.00     0.000 A 
HETATM   30  C   UNL     1     -46.319  59.914 -58.554  1.00  0.00     0.001 A 
HETATM   31  C   UNL     1     -45.001  59.477 -58.397  1.00  0.00     0.009 A 
ENDBRANCH   1  26
TORSDOF 5
ENDMDL
MODEL 7
REMARK VINA RESULT:      -7.1     16.183     18.687
REMARK  5 active torsions:
REMARK  status: ('A' for Active; 'I' for Inactive)
REMARK    1  A    between atoms: C_4  and  C_5 
REMARK    2  A    between atoms: C_10  and  C_11 
REMARK       I    between atoms: C_11  and  N_12 
REMARK    3  A    between atoms: N_12  and  C_13 
REMARK    4  A    between atoms: C_13  and  C_14 
REMARK    5  A    between atoms: C_22  and  C_23 
ROOT
HETATM    1  C   UNL     1     -36.930  42.309 -56.572  1.00  0.00     0.118 C 
HETATM    2  N   UNL     1     -37.678  42.137 -55.330  1.00  0.00    -0.365 N 
HETATM    3  C   UNL     1     -37.169  41.447 -54.281  1.00  0.00     0.141 A 
HETATM    4  N   UNL     1     -35.855  41.072 -54.246  1.00  0.00    -0.238 N 
HETATM    5  N   UNL     1     -35.496  40.434 -53.119  1.00  0.00    -0.163 NA
HETATM    6  C   UNL     1     -36.652  40.340 -52.413  1.00  0.00     0.165 A 
HETATM    7  C   UNL     1     -37.709  40.978 -53.111  1.00  0.00     0.092 A 
HETATM    8 BR   UNL     1     -39.495  41.137 -52.571  1.00  0.00    -0.044 Br
HETATM    9  C   UNL     1     -34.893  41.352 -55.296  1.00  0.00     0.221 C 
HETATM   10  C   UNL     1     -35.429  42.439 -56.248  1.00  0.00     0.066 C 
HETATM   11  H   UNL     1     -38.685  42.285 -55.405  1.00  0.00     0.162 HD
ENDROOT
BRANCH   6  12
HETATM   12  C   UNL     1     -36.686  39.621 -51.129  1.00  0.00     0.273 C 
HETATM   13  N   UNL     1     -37.159  38.333 -51.251  1.00  0.00    -0.353 N 
HETATM   14  H   UNL     1     -37.494  38.072 -52.175  1.00  0.00     0.162 HD
HETATM   15  O   UNL     1     -36.366  40.118 -50.053  1.00  0.00    -0.266 OA
BRANCH  13  16
HETATM   16  C   UNL     1     -37.491  37.484 -50.126  1.00  0.00     0.155 C 
BRANCH  16  17
HETATM   17  C   UNL     1     -38.934  36.957 -50.167  1.00  0.00     0.139 C 
HETATM   18  O   UNL     1     -39.724  37.793 -51.041  1.00  0.00    -0.384 OA
HETATM   19  C   UNL     1     -40.855  38.283 -50.310  1.00  0.00     0.168 C 
HETATM   20  C   UNL     1     -40.526  38.140 -48.842  1.00  0.00     0.029 C 
HETATM   21  C   UNL     1     -39.652  36.913 -48.823  1.00  0.00     0.035 C 
ENDBRANCH  16  17
ENDBRANCH  13  16
ENDBRANCH   6  12
BRANCH   9  22
HETATM   22  C   UNL     1     -34.487  40.070 -55.991  1.00  0.00     0.409 C 
HETATM   23  F   UNL     1     -35.418  39.100 -55.937  1.00  0.00    -0.169 F 
HETATM   24  F   UNL     1     -34.232  40.311 -57.303  1.00  0.00    -0.169 F 
HETATM   25  F   UNL     1     -33.345  39.558 -55.475  1.00  0.00    -0.169 F 
ENDBRANCH   9  22
BRANCH   1  26
HETATM   26  C   UNL     1     -37.275  41.273 -57.631  1.00  0.00    -0.035 A 
HETATM   27  C   UNL     1     -37.991  40.098 -57.346  1.00  0.00     0.009 A 
HETATM   28  C   UNL     1     -38.293  39.176 -58.352  1.00  0.00     0.001 A 
HETATM   29  C   UNL     1     -37.894  39.415 -59.662  1.00  0.00     0.000 A 
HETATM   30  C   UNL     1     -37.199  40.580 -59.971  1.00  0.00     0.001 A 
HETATM   31  C   UNL     1     -36.896  41.502 -58.966  1.00  0.00     0.009 A 
ENDBRANCH   1  26
TORSDOF 5
ENDMDL
MODEL 8
REMARK VINA RESULT:      -7.1      2.638      3.651
REMARK  5 active torsions:
REMARK  status: ('A' for Active; 'I' for Inactive)
REMARK    1  A    between atoms: C_4  and  C_5 
REMARK    2  A    between atoms: C_10  and  C_11 
REMARK       I    between atoms: C_11  and  N_12 
REMARK    3  A    between atoms: N_12  and  C_13 
REMARK    4  A    between atoms: C_13  and  C_14 
REMARK    5  A    between atoms: C_22  and  C_23 
ROOT
HETATM    1  C   UNL     1     -40.659  55.310 -50.963  1.00  0.00     0.118 C 
HETATM    2  N   UNL     1     -40.851  56.497 -51.791  1.00  0.00    -0.365 N 
HETATM    3  C   UNL     1     -42.085  56.901 -52.181  1.00  0.00     0.141 A 
HETATM    4  N   UNL     1     -43.217  56.357 -51.642  1.00  0.00    -0.238 N 
HETATM    5  N   UNL     1     -44.359  56.895 -52.102  1.00  0.00    -0.163 NA
HETATM    6  C   UNL     1     -43.945  57.795 -53.031  1.00  0.00     0.165 A 
HETATM    7  C   UNL     1     -42.528  57.828 -53.090  1.00  0.00     0.092 A 
HETATM    8 BR   UNL     1     -41.461  58.898 -54.195  1.00  0.00    -0.044 Br
HETATM    9  C   UNL     1     -43.224  55.314 -50.632  1.00  0.00     0.221 C 
HETATM   10  C   UNL     1     -41.836  55.181 -49.977  1.00  0.00     0.066 C 
HETATM   11  H   UNL     1     -40.025  56.811 -52.302  1.00  0.00     0.162 HD
ENDROOT
BRANCH   6  12
HETATM   12  C   UNL     1     -44.927  58.548 -53.829  1.00  0.00     0.273 C 
HETATM   13  N   UNL     1     -45.109  58.020 -55.088  1.00  0.00    -0.353 N 
HETATM   14  H   UNL     1     -44.498  57.244 -55.333  1.00  0.00     0.162 HD
HETATM   15  O   UNL     1     -45.500  59.560 -53.438  1.00  0.00    -0.266 OA
BRANCH  13  16
HETATM   16  C   UNL     1     -45.852  58.679 -56.141  1.00  0.00     0.155 C 
BRANCH  16  17
HETATM   17  C   UNL     1     -45.058  58.819 -57.450  1.00  0.00     0.139 C 
HETATM   18  O   UNL     1     -45.769  58.151 -58.514  1.00  0.00    -0.384 OA
HETATM   19  C   UNL     1     -44.896  57.186 -59.115  1.00  0.00     0.168 C 
HETATM   20  C   UNL     1     -43.791  56.914 -58.122  1.00  0.00     0.029 C 
HETATM   21  C   UNL     1     -43.648  58.242 -57.423  1.00  0.00     0.035 C 
ENDBRANCH  16  17
ENDBRANCH  13  16
ENDBRANCH   6  12
BRANCH   9  22
HETATM   22  C   UNL     1     -43.757  54.023 -51.216  1.00  0.00     0.409 C 
HETATM   23  F   UNL     1     -43.867  54.033 -52.556  1.00  0.00    -0.169 F 
HETATM   24  F   UNL     1     -42.938  52.989 -50.887  1.00  0.00    -0.169 F 
HETATM   25  F   UNL     1     -44.975  53.709 -50.716  1.00  0.00    -0.169 F 
ENDBRANCH   9  22
BRANCH   1  26
HETATM   26  C   UNL     1     -40.350  54.058 -51.769  1.00  0.00    -0.035 A 
HETATM   27  C   UNL     1     -40.592  53.958 -53.149  1.00  0.00     0.009 A 
HETATM   28  C   UNL     1     -40.287  52.790 -53.852  1.00  0.00     0.001 A 
HETATM   29  C   UNL     1     -39.724  51.703 -53.191  1.00  0.00     0.000 A 
HETATM   30  C   UNL     1     -39.460  51.785 -51.828  1.00  0.00     0.001 A 
HETATM   31  C   UNL     1     -39.766  52.953 -51.124  1.00  0.00     0.009 A 
ENDBRANCH   1  26
TORSDOF 5
ENDMDL
MODEL 9
REMARK VINA RESULT:      -7.1      1.727      2.567
REMARK  5 active torsions:
REMARK  status: ('A' for Active; 'I' for Inactive)
REMARK    1  A    between atoms: C_4  and  C_5 
REMARK    2  A    between atoms: C_10  and  C_11 
REMARK       I    between atoms: C_11  and  N_12 
REMARK    3  A    between atoms: N_12  and  C_13 
REMARK    4  A    between atoms: C_13  and  C_14 
REMARK    5  A    between atoms: C_22  and  C_23 
ROOT
HETATM    1  C   UNL     1     -43.418  54.651 -52.921  1.00  0.00     0.118 C 
HETATM    2  N   UNL     1     -44.112  55.670 -53.702  1.00  0.00    -0.365 N 
HETATM    3  C   UNL     1     -43.586  56.171 -54.847  1.00  0.00     0.141 A 
HETATM    4  N   UNL     1     -42.499  55.596 -55.443  1.00  0.00    -0.238 N 
HETATM    5  N   UNL     1     -42.127  56.184 -56.592  1.00  0.00    -0.163 NA
HETATM    6  C   UNL     1     -42.982  57.231 -56.716  1.00  0.00     0.165 A 
HETATM    7  C   UNL     1     -43.913  57.237 -55.645  1.00  0.00     0.092 A 
HETATM    8 BR   UNL     1     -45.301  58.460 -55.352  1.00  0.00    -0.044 Br
HETATM    9  C   UNL     1     -41.805  54.429 -54.931  1.00  0.00     0.221 C 
HETATM   10  C   UNL     1     -42.662  53.706 -53.874  1.00  0.00     0.066 C 
HETATM   11  H   UNL     1     -44.830  56.192 -53.198  1.00  0.00     0.162 HD
ENDROOT
BRANCH   6  12
HETATM   12  C   UNL     1     -42.842  58.181 -57.832  1.00  0.00     0.273 C 
HETATM   13  N   UNL     1     -42.649  59.477 -57.408  1.00  0.00    -0.353 N 
HETATM   14  H   UNL     1     -42.707  59.626 -56.403  1.00  0.00     0.162 HD
HETATM   15  O   UNL     1     -42.926  57.869 -59.016  1.00  0.00    -0.266 OA
BRANCH  13  16
HETATM   16  C   UNL     1     -42.691  60.629 -58.284  1.00  0.00     0.155 C 
BRANCH  16  17
HETATM   17  C   UNL     1     -41.391  60.839 -59.076  1.00  0.00     0.139 C 
HETATM   18  O   UNL     1     -40.458  61.592 -58.272  1.00  0.00    -0.384 OA
HETATM   19  C   UNL     1     -40.057  62.758 -59.004  1.00  0.00     0.168 C 
HETATM   20  C   UNL     1     -41.099  62.985 -60.073  1.00  0.00     0.029 C 
HETATM   21  C   UNL     1     -41.543  61.582 -60.397  1.00  0.00     0.035 C 
ENDBRANCH  16  17
ENDBRANCH  13  16
ENDBRANCH   6  12
BRANCH   9  22
HETATM   22  C   UNL     1     -40.423  54.813 -54.445  1.00  0.00     0.409 C 
HETATM   23  F   UNL     1     -39.444  54.572 -55.335  1.00  0.00    -0.169 F 
HETATM   24  F   UNL     1     -40.383  56.139 -54.151  1.00  0.00    -0.169 F 
HETATM   25  F   UNL     1     -40.095  54.166 -53.302  1.00  0.00    -0.169 F 
ENDBRANCH   9  22
BRANCH   1  26
HETATM   26  C   UNL     1     -42.585  55.226 -51.786  1.00  0.00    -0.035 A 
HETATM   27  C   UNL     1     -41.972  54.428 -50.806  1.00  0.00     0.009 A 
HETATM   28  C   UNL     1     -41.210  54.998 -49.784  1.00  0.00     0.001 A 
HETATM   29  C   UNL     1     -41.036  56.377 -49.728  1.00  0.00     0.000 A 
HETATM   30  C   UNL     1     -41.619  57.187 -50.697  1.00  0.00     0.001 A 
HETATM   31  C   UNL     1     -42.382  56.617 -51.719  1.00  0.00     0.009 A 
ENDBRANCH   1  26
TORSDOF 5
ENDMDL
MODEL 10
REMARK VINA RESULT:      -7.0     16.442     18.826
REMARK  5 active torsions:
REMARK  status: ('A' for Active; 'I' for Inactive)
REMARK    1  A    between atoms: C_4  and  C_5 
REMARK    2  A    between atoms: C_10  and  C_11 
REMARK       I    between atoms: C_11  and  N_12 
REMARK    3  A    between atoms: N_12  and  C_13 
REMARK    4  A    between atoms: C_13  and  C_14 
REMARK    5  A    between atoms: C_22  and  C_23 
ROOT
HETATM    1  C   UNL     1     -36.301  42.254 -53.541  1.00  0.00     0.118 C 
HETATM    2  N   UNL     1     -37.645  41.995 -53.033  1.00  0.00    -0.365 N 
HETATM    3  C   UNL     1     -37.935  40.878 -52.322  1.00  0.00     0.141 A 
HETATM    4  N   UNL     1     -36.948  40.054 -51.856  1.00  0.00    -0.238 N 
HETATM    5  N   UNL     1     -37.397  39.014 -51.133  1.00  0.00    -0.163 NA
HETATM    6  C   UNL     1     -38.748  39.139 -51.183  1.00  0.00     0.165 A 
HETATM    7  C   UNL     1     -39.109  40.303 -51.908  1.00  0.00     0.092 A 
HETATM    8 BR   UNL     1     -40.838  40.932 -52.260  1.00  0.00    -0.044 Br
HETATM    9  C   UNL     1     -35.530  40.271 -52.070  1.00  0.00     0.221 C 
HETATM   10  C   UNL     1     -35.264  41.716 -52.537  1.00  0.00     0.066 C 
HETATM   11  H   UNL     1     -38.392  42.518 -53.490  1.00  0.00     0.162 HD
ENDROOT
BRANCH   6  12
HETATM   12  C   UNL     1     -39.614  38.124 -50.562  1.00  0.00     0.273 C 
HETATM   13  N   UNL     1     -40.082  38.506 -49.325  1.00  0.00    -0.353 N 
HETATM   14  H   UNL     1     -39.715  39.385 -48.967  1.00  0.00     0.162 HD
HETATM   15  O   UNL     1     -39.868  37.034 -51.066  1.00  0.00    -0.266 OA
BRANCH  13  16
HETATM   16  C   UNL     1     -40.775  37.620 -48.413  1.00  0.00     0.155 C 
BRANCH  16  17
HETATM   17  C   UNL     1     -41.864  38.326 -47.589  1.00  0.00     0.139 C 
HETATM   18  O   UNL     1     -41.528  39.723 -47.450  1.00  0.00    -0.384 OA
HETATM   19  C   UNL     1     -41.496  40.051 -46.055  1.00  0.00     0.168 C 
HETATM   20  C   UNL     1     -41.345  38.751 -45.301  1.00  0.00     0.029 C 
HETATM   21  C   UNL     1     -42.080  37.776 -46.185  1.00  0.00     0.035 C 
ENDBRANCH  16  17
ENDBRANCH  13  16
ENDBRANCH   6  12
BRANCH   9  22
HETATM   22  C   UNL     1     -34.971  39.212 -52.997  1.00  0.00     0.409 C 
HETATM   23  F   UNL     1     -35.857  38.752 -53.898  1.00  0.00    -0.169 F 
HETATM   24  F   UNL     1     -33.914  39.709 -53.691  1.00  0.00    -0.169 F 
HETATM   25  F   UNL     1     -34.501  38.143 -52.313  1.00  0.00    -0.169 F 
ENDBRANCH   9  22
BRANCH   1  26
HETATM   26  C   UNL     1     -36.105  41.800 -54.979  1.00  0.00    -0.035 A 
HETATM   27  C   UNL     1     -37.096  41.125 -55.711  1.00  0.00     0.009 A 
HETATM   28  C   UNL     1     -36.875  40.732 -57.033  1.00  0.00     0.001 A 
HETATM   29  C   UNL     1     -35.662  41.015 -57.653  1.00  0.00     0.000 A 
HETATM   30  C   UNL     1     -34.672  41.697 -56.954  1.00  0.00     0.001 A 
HETATM   31  C   UNL     1     -34.892  42.090 -55.632  1.00  0.00     0.009 A 
ENDBRANCH   1  26
TORSDOF 5
ENDMDL
