MODEL 1
REMARK VINA RESULT:      -8.4      0.000      0.000
REMARK  12 active torsions:
REMARK  status: ('A' for Active; 'I' for Inactive)
REMARK    1  A    between atoms: C_2  and  N_3 
REMARK    2  A    between atoms: N_3  and  C_5 
REMARK    3  A    between atoms: N_3  and  C_39 
REMARK    4  A    between atoms: C_5  and  C_6 
REMARK    5  A    between atoms: N_7  and  C_8 
REMARK    6  A    between atoms: C_12  and  N_13 
REMARK    7  A    between atoms: C_16  and  C_17 
REMARK       I    between atoms: C_17  and  N_18 
REMARK    8  A    between atoms: N_18  and  N_19 
REMARK    9  A    between atoms: C_20  and  C_21 
REMARK   10  A    between atoms: C_22  and  O_23 
REMARK   11  A    between atoms: O_23  and  C_24 
REMARK   12  A    between atoms: C_24  and  C_25 
ROOT
HETATM    1  C   UNL     1     -42.664  56.859 -59.294  1.00  0.00     0.294 C 
HETATM    2  N   UNL     1     -42.490  55.856 -58.359  1.00  0.00    -0.242 N 
HETATM    3  O   UNL     1     -42.043  56.840 -60.352  1.00  0.00    -0.264 OA
HETATM    4  H   UNL     1     -41.943  55.053 -58.660  1.00  0.00     0.192 HD
ENDROOT
BRANCH   1   5
HETATM    5  C   UNL     1     -43.605  57.923 -58.974  1.00  0.00     0.176 C 
HETATM    6  C   UNL     1     -44.995  57.929 -59.032  1.00  0.00     0.102 C 
HETATM    7  N   UNL     1     -45.332  59.252 -58.734  1.00  0.00    -0.191 N 
HETATM    8  N   UNL     1     -44.220  59.890 -58.285  1.00  0.00    -0.058 NA
HETATM    9  N   UNL     1     -43.173  59.105 -58.450  1.00  0.00    -0.124 NA
BRANCH   6  10
HETATM   10  C   UNL     1     -45.930  56.835 -59.378  1.00  0.00     0.296 C 
BRANCH  10  11
HETATM   11  N   UNL     1     -46.004  56.480 -60.869  1.00  0.00    -0.066 N 
HETATM   12  H   UNL     1     -45.526  57.271 -61.322  1.00  0.00     0.280 HD
BRANCH  11  13
HETATM   13  C   UNL     1     -47.407  56.446 -61.435  1.00  0.00     0.231 C 
HETATM   14  C   UNL     1     -47.963  57.855 -61.550  1.00  0.00     0.034 C 
ENDBRANCH  11  13
BRANCH  11  15
HETATM   15  C   UNL     1     -45.167  55.265 -61.227  1.00  0.00     0.231 C 
HETATM   16  C   UNL     1     -45.095  54.286 -60.068  1.00  0.00     0.034 C 
ENDBRANCH  11  15
ENDBRANCH  10  11
ENDBRANCH   6  10
BRANCH   7  17
HETATM   17  C   UNL     1     -46.577  59.921 -58.803  1.00  0.00     0.229 A 
HETATM   18  N   UNL     1     -47.495  59.749 -57.852  1.00  0.00    -0.081 NA
HETATM   19  O   UNL     1     -48.565  60.543 -58.270  1.00  0.00    -0.103 OA
HETATM   20  N   UNL     1     -48.264  61.209 -59.450  1.00  0.00    -0.083 NA
HETATM   21  C   UNL     1     -47.036  60.817 -59.786  1.00  0.00     0.201 A 
BRANCH  21  22
HETATM   22  N   UNL     1     -46.368  61.250 -60.868  1.00  0.00    -0.379 N 
HETATM   23  H   UNL     1     -45.403  61.556 -60.776  1.00  0.00     0.158 HD
HETATM   24  H   UNL     1     -46.839  61.607 -61.698  1.00  0.00     0.158 HD
ENDBRANCH  21  22
ENDBRANCH   7  17
ENDBRANCH   1   5
BRANCH   2  25
HETATM   25  N   UNL     1     -42.974  55.921 -57.088  1.00  0.00    -0.183 NA
HETATM   26  C   UNL     1     -42.336  55.202 -56.220  1.00  0.00     0.153 C 
BRANCH  26  27
HETATM   27  C   UNL     1     -42.699  55.233 -54.794  1.00  0.00     0.018 A 
HETATM   28  C   UNL     1     -42.339  54.211 -53.903  1.00  0.00     0.081 A 
HETATM   29  C   UNL     1     -42.643  54.335 -52.546  1.00  0.00     0.039 A 
HETATM   30  C   UNL     1     -43.357  55.445 -52.090  1.00  0.00     0.026 A 
HETATM   31  C   UNL     1     -43.755  56.434 -52.990  1.00  0.00     0.035 A 
HETATM   32 CL   UNL     1     -44.644  57.793 -52.426  1.00  0.00    -0.084 Cl
HETATM   33  C   UNL     1     -43.431  56.336 -54.342  1.00  0.00     0.039 A 
BRANCH  28  34
HETATM   34  O   UNL     1     -41.705  53.057 -54.297  1.00  0.00    -0.346 OA
BRANCH  34  35
HETATM   35  C   UNL     1     -40.325  53.096 -53.897  1.00  0.00     0.219 C 
BRANCH  35  36
HETATM   36  C   UNL     1     -40.013  51.876 -53.072  1.00  0.00     0.026 A 
HETATM   37  C   UNL     1     -39.846  51.924 -51.680  1.00  0.00     0.045 A 
HETATM   38 CL   UNL     1     -39.942  53.406 -50.801  1.00  0.00    -0.084 Cl
HETATM   39  C   UNL     1     -39.595  50.756 -50.949  1.00  0.00     0.024 A 
HETATM   40  C   UNL     1     -39.509  49.523 -51.595  1.00  0.00     0.005 A 
HETATM   41  C   UNL     1     -39.654  49.463 -52.977  1.00  0.00     0.043 A 
HETATM   42  C   UNL     1     -39.889  50.632 -53.698  1.00  0.00     0.126 A 
HETATM   43  F   UNL     1     -39.971  50.543 -55.034  1.00  0.00    -0.205 F 
ENDBRANCH  35  36
ENDBRANCH  34  35
ENDBRANCH  28  34
ENDBRANCH  26  27
ENDBRANCH   2  25
TORSDOF 12
ENDMDL
MODEL 2
REMARK VINA RESULT:      -8.2      1.488      2.228
REMARK  12 active torsions:
REMARK  status: ('A' for Active; 'I' for Inactive)
REMARK    1  A    between atoms: C_2  and  N_3 
REMARK    2  A    between atoms: N_3  and  C_5 
REMARK    3  A    between atoms: N_3  and  C_39 
REMARK    4  A    between atoms: C_5  and  C_6 
REMARK    5  A    between atoms: N_7  and  C_8 
REMARK    6  A    between atoms: C_12  and  N_13 
REMARK    7  A    between atoms: C_16  and  C_17 
REMARK       I    between atoms: C_17  and  N_18 
REMARK    8  A    between atoms: N_18  and  N_19 
REMARK    9  A    between atoms: C_20  and  C_21 
REMARK   10  A    between atoms: C_22  and  O_23 
REMARK   11  A    between atoms: O_23  and  C_24 
REMARK   12  A    between atoms: C_24  and  C_25 
ROOT
HETATM    1  C   UNL     1     -42.432  56.581 -59.253  1.00  0.00     0.294 C 
HETATM    2  N   UNL     1     -42.855  55.520 -58.473  1.00  0.00    -0.242 N 
HETATM    3  O   UNL     1     -41.890  56.383 -60.336  1.00  0.00    -0.264 OA
HETATM    4  H   UNL     1     -42.819  54.602 -58.910  1.00  0.00     0.192 HD
ENDROOT
BRANCH   1   5
HETATM    5  C   UNL     1     -42.658  57.926 -58.741  1.00  0.00     0.176 C 
HETATM    6  C   UNL     1     -43.776  58.745 -58.854  1.00  0.00     0.102 C 
HETATM    7  N   UNL     1     -43.362  59.949 -58.280  1.00  0.00    -0.191 N 
HETATM    8  N   UNL     1     -42.175  59.743 -57.651  1.00  0.00    -0.058 NA
HETATM    9  N   UNL     1     -41.734  58.536 -57.945  1.00  0.00    -0.124 NA
BRANCH   6  10
HETATM   10  C   UNL     1     -45.090  58.469 -59.478  1.00  0.00     0.296 C 
BRANCH  10  11
HETATM   11  N   UNL     1     -45.858  57.275 -58.895  1.00  0.00    -0.066 N 
HETATM   12  H   UNL     1     -45.200  56.887 -58.206  1.00  0.00     0.280 HD
BRANCH  11  13
HETATM   13  C   UNL     1     -46.139  56.167 -59.888  1.00  0.00     0.231 C 
HETATM   14  C   UNL     1     -47.344  56.520 -60.743  1.00  0.00     0.034 C 
ENDBRANCH  11  13
BRANCH  11  15
HETATM   15  C   UNL     1     -47.069  57.694 -58.081  1.00  0.00     0.231 C 
HETATM   16  C   UNL     1     -47.283  59.197 -58.149  1.00  0.00     0.034 C 
ENDBRANCH  11  15
ENDBRANCH  10  11
ENDBRANCH   6  10
BRANCH   7  17
HETATM   17  C   UNL     1     -43.991  61.217 -58.248  1.00  0.00     0.229 A 
HETATM   18  N   UNL     1     -44.585  61.709 -59.336  1.00  0.00    -0.081 NA
HETATM   19  O   UNL     1     -45.064  62.954 -58.923  1.00  0.00    -0.103 OA
HETATM   20  N   UNL     1     -44.782  63.180 -57.583  1.00  0.00    -0.083 NA
HETATM   21  C   UNL     1     -44.109  62.109 -57.166  1.00  0.00     0.201 A 
BRANCH  21  22
HETATM   22  N   UNL     1     -43.664  61.930 -55.912  1.00  0.00    -0.379 N 
HETATM   23  H   UNL     1     -42.901  62.503 -55.561  1.00  0.00     0.158 HD
HETATM   24  H   UNL     1     -43.798  61.058 -55.401  1.00  0.00     0.158 HD
ENDBRANCH  21  22
ENDBRANCH   7  17
ENDBRANCH   1   5
BRANCH   2  25
HETATM   25  N   UNL     1     -43.262  55.652 -57.181  1.00  0.00    -0.183 NA
HETATM   26  C   UNL     1     -42.503  55.077 -56.304  1.00  0.00     0.153 C 
BRANCH  26  27
HETATM   27  C   UNL     1     -42.778  55.199 -54.864  1.00  0.00     0.018 A 
HETATM   28  C   UNL     1     -42.303  54.271 -53.925  1.00  0.00     0.081 A 
HETATM   29  C   UNL     1     -42.529  54.485 -52.563  1.00  0.00     0.039 A 
HETATM   30  C   UNL     1     -43.277  55.587 -52.145  1.00  0.00     0.026 A 
HETATM   31  C   UNL     1     -43.788  56.479 -53.088  1.00  0.00     0.035 A 
HETATM   32 CL   UNL     1     -44.719  57.828 -52.570  1.00  0.00    -0.084 Cl
HETATM   33  C   UNL     1     -43.544  56.293 -54.448  1.00  0.00     0.039 A 
BRANCH  28  34
HETATM   34  O   UNL     1     -41.628  53.127 -54.273  1.00  0.00    -0.346 OA
BRANCH  34  35
HETATM   35  C   UNL     1     -40.283  53.179 -53.768  1.00  0.00     0.219 C 
BRANCH  35  36
HETATM   36  C   UNL     1     -39.999  51.929 -52.980  1.00  0.00     0.026 A 
HETATM   37  C   UNL     1     -39.865  51.926 -51.584  1.00  0.00     0.045 A 
HETATM   38 CL   UNL     1     -39.972  53.378 -50.655  1.00  0.00    -0.084 Cl
HETATM   39  C   UNL     1     -39.640  50.731 -50.889  1.00  0.00     0.024 A 
HETATM   40  C   UNL     1     -39.547  49.522 -51.575  1.00  0.00     0.005 A 
HETATM   41  C   UNL     1     -39.659  49.511 -52.961  1.00  0.00     0.043 A 
HETATM   42  C   UNL     1     -39.869  50.706 -53.646  1.00  0.00     0.126 A 
HETATM   43  F   UNL     1     -39.919  50.665 -54.986  1.00  0.00    -0.205 F 
ENDBRANCH  35  36
ENDBRANCH  34  35
ENDBRANCH  28  34
ENDBRANCH  26  27
ENDBRANCH   2  25
TORSDOF 12
ENDMDL
MODEL 3
REMARK VINA RESULT:      -8.1      2.607      3.962
REMARK  12 active torsions:
REMARK  status: ('A' for Active; 'I' for Inactive)
REMARK    1  A    between atoms: C_2  and  N_3 
REMARK    2  A    between atoms: N_3  and  C_5 
REMARK    3  A    between atoms: N_3  and  C_39 
REMARK    4  A    between atoms: C_5  and  C_6 
REMARK    5  A    between atoms: N_7  and  C_8 
REMARK    6  A    between atoms: C_12  and  N_13 
REMARK    7  A    between atoms: C_16  and  C_17 
REMARK       I    between atoms: C_17  and  N_18 
REMARK    8  A    between atoms: N_18  and  N_19 
REMARK    9  A    between atoms: C_20  and  C_21 
REMARK   10  A    between atoms: C_22  and  O_23 
REMARK   11  A    between atoms: O_23  and  C_24 
REMARK   12  A    between atoms: C_24  and  C_25 
ROOT
HETATM    1  C   UNL     1     -46.045  58.055 -57.487  1.00  0.00     0.294 C 
HETATM    2  N   UNL     1     -46.144  57.866 -56.121  1.00  0.00    -0.242 N 
HETATM    3  O   UNL     1     -46.698  57.363 -58.262  1.00  0.00    -0.264 OA
HETATM    4  H   UNL     1     -46.879  57.236 -55.809  1.00  0.00     0.192 HD
ENDROOT
BRANCH   1   5
HETATM    5  C   UNL     1     -45.147  59.099 -57.960  1.00  0.00     0.176 C 
HETATM    6  C   UNL     1     -43.763  59.083 -58.105  1.00  0.00     0.102 C 
HETATM    7  N   UNL     1     -43.456  60.396 -58.472  1.00  0.00    -0.191 N 
HETATM    8  N   UNL     1     -44.613  61.044 -58.767  1.00  0.00    -0.058 NA
HETATM    9  N   UNL     1     -45.635  60.279 -58.437  1.00  0.00    -0.124 NA
BRANCH   6  10
HETATM   10  C   UNL     1     -42.802  57.981 -57.878  1.00  0.00     0.296 C 
BRANCH  10  11
HETATM   11  N   UNL     1     -42.831  56.857 -58.921  1.00  0.00    -0.066 N 
HETATM   12  H   UNL     1     -41.834  56.666 -59.088  1.00  0.00     0.280 HD
BRANCH  11  13
HETATM   13  C   UNL     1     -43.419  57.258 -60.257  1.00  0.00     0.231 C 
HETATM   14  C   UNL     1     -44.495  56.272 -60.677  1.00  0.00     0.034 C 
ENDBRANCH  11  13
BRANCH  11  15
HETATM   15  C   UNL     1     -43.387  55.556 -58.370  1.00  0.00     0.231 C 
HETATM   16  C   UNL     1     -43.032  55.384 -56.903  1.00  0.00     0.034 C 
ENDBRANCH  11  15
ENDBRANCH  10  11
ENDBRANCH   6  10
BRANCH   7  17
HETATM   17  C   UNL     1     -42.206  61.047 -58.597  1.00  0.00     0.229 A 
HETATM   18  N   UNL     1     -41.256  60.878 -57.676  1.00  0.00    -0.081 NA
HETATM   19  O   UNL     1     -40.202  61.674 -58.131  1.00  0.00    -0.103 OA
HETATM   20  N   UNL     1     -40.518  62.283 -59.337  1.00  0.00    -0.083 NA
HETATM   21  C   UNL     1     -41.763  61.904 -59.622  1.00  0.00     0.201 A 
BRANCH  21  22
HETATM   22  N   UNL     1     -42.437  62.268 -60.725  1.00  0.00    -0.379 N 
HETATM   23  H   UNL     1     -41.958  62.300 -61.622  1.00  0.00     0.158 HD
HETATM   24  H   UNL     1     -43.288  62.828 -60.689  1.00  0.00     0.158 HD
ENDBRANCH  21  22
ENDBRANCH   7  17
ENDBRANCH   1   5
BRANCH   2  25
HETATM   25  N   UNL     1     -45.301  58.439 -55.220  1.00  0.00    -0.183 NA
HETATM   26  C   UNL     1     -44.721  57.614 -54.407  1.00  0.00     0.153 C 
BRANCH  26  27
HETATM   27  C   UNL     1     -43.727  58.083 -53.429  1.00  0.00     0.018 A 
HETATM   28  C   UNL     1     -42.602  57.323 -53.076  1.00  0.00     0.081 A 
HETATM   29  C   UNL     1     -41.651  57.856 -52.203  1.00  0.00     0.039 A 
HETATM   30  C   UNL     1     -41.853  59.117 -51.638  1.00  0.00     0.026 A 
HETATM   31  C   UNL     1     -42.998  59.847 -51.955  1.00  0.00     0.035 A 
HETATM   32 CL   UNL     1     -43.249  61.393 -51.248  1.00  0.00    -0.084 Cl
HETATM   33  C   UNL     1     -43.939  59.338 -52.849  1.00  0.00     0.039 A 
BRANCH  28  34
HETATM   34  O   UNL     1     -42.382  56.047 -53.534  1.00  0.00    -0.346 OA
BRANCH  34  35
HETATM   35  C   UNL     1     -40.981  55.856 -53.799  1.00  0.00     0.219 C 
BRANCH  35  36
HETATM   36  C   UNL     1     -40.609  54.429 -53.500  1.00  0.00     0.026 A 
HETATM   37  C   UNL     1     -40.555  53.916 -52.196  1.00  0.00     0.045 A 
HETATM   38 CL   UNL     1     -40.871  54.902 -50.814  1.00  0.00    -0.084 Cl
HETATM   39  C   UNL     1     -40.241  52.570 -51.969  1.00  0.00     0.024 A 
HETATM   40  C   UNL     1     -39.978  51.716 -53.039  1.00  0.00     0.005 A 
HETATM   41  C   UNL     1     -40.009  52.215 -54.336  1.00  0.00     0.043 A 
HETATM   42  C   UNL     1     -40.309  53.558 -54.552  1.00  0.00     0.126 A 
HETATM   43  F   UNL     1     -40.277  54.017 -55.813  1.00  0.00    -0.205 F 
ENDBRANCH  35  36
ENDBRANCH  34  35
ENDBRANCH  28  34
ENDBRANCH  26  27
ENDBRANCH   2  25
TORSDOF 12
ENDMDL
MODEL 4
REMARK VINA RESULT:      -8.1      2.113      2.997
REMARK  12 active torsions:
REMARK  status: ('A' for Active; 'I' for Inactive)
REMARK    1  A    between atoms: C_2  and  N_3 
REMARK    2  A    between atoms: N_3  and  C_5 
REMARK    3  A    between atoms: N_3  and  C_39 
REMARK    4  A    between atoms: C_5  and  C_6 
REMARK    5  A    between atoms: N_7  and  C_8 
REMARK    6  A    between atoms: C_12  and  N_13 
REMARK    7  A    between atoms: C_16  and  C_17 
REMARK       I    between atoms: C_17  and  N_18 
REMARK    8  A    between atoms: N_18  and  N_19 
REMARK    9  A    between atoms: C_20  and  C_21 
REMARK   10  A    between atoms: C_22  and  O_23 
REMARK   11  A    between atoms: O_23  and  C_24 
REMARK   12  A    between atoms: C_24  and  C_25 
ROOT
HETATM    1  C   UNL     1     -43.743  55.050 -58.836  1.00  0.00     0.294 C 
HETATM    2  N   UNL     1     -43.624  54.843 -57.474  1.00  0.00    -0.242 N 
HETATM    3  O   UNL     1     -44.272  54.206 -59.553  1.00  0.00    -0.264 OA
HETATM    4  H   UNL     1     -44.119  54.037 -57.100  1.00  0.00     0.192 HD
ENDROOT
BRANCH   1   5
HETATM    5  C   UNL     1     -43.222  56.298 -59.376  1.00  0.00     0.176 C 
HETATM    6  C   UNL     1     -43.628  57.608 -59.139  1.00  0.00     0.102 C 
HETATM    7  N   UNL     1     -42.849  58.359 -60.024  1.00  0.00    -0.191 N 
HETATM    8  N   UNL     1     -41.885  57.553 -60.541  1.00  0.00    -0.058 NA
HETATM    9  N   UNL     1     -42.118  56.309 -60.175  1.00  0.00    -0.124 NA
BRANCH   6  10
HETATM   10  C   UNL     1     -44.671  58.123 -58.224  1.00  0.00     0.296 C 
BRANCH  10  11
HETATM   11  N   UNL     1     -46.031  58.413 -58.872  1.00  0.00    -0.066 N 
HETATM   12  H   UNL     1     -45.790  58.577 -59.859  1.00  0.00     0.280 HD
BRANCH  11  13
HETATM   13  C   UNL     1     -46.701  59.677 -58.379  1.00  0.00     0.231 C 
HETATM   14  C   UNL     1     -47.620  60.239 -59.450  1.00  0.00     0.034 C 
ENDBRANCH  11  13
BRANCH  11  15
HETATM   15  C   UNL     1     -46.944  57.200 -58.892  1.00  0.00     0.231 C 
HETATM   16  C   UNL     1     -46.985  56.566 -60.272  1.00  0.00     0.034 C 
ENDBRANCH  11  15
ENDBRANCH  10  11
ENDBRANCH   6  10
BRANCH   7  17
HETATM   17  C   UNL     1     -42.920  59.728 -60.375  1.00  0.00     0.229 A 
HETATM   18  N   UNL     1     -41.999  60.589 -59.943  1.00  0.00    -0.081 NA
HETATM   19  O   UNL     1     -42.409  61.814 -60.473  1.00  0.00    -0.103 OA
HETATM   20  N   UNL     1     -43.552  61.668 -61.246  1.00  0.00    -0.083 NA
HETATM   21  C   UNL     1     -43.875  60.378 -61.179  1.00  0.00     0.201 A 
BRANCH  21  22
HETATM   22  N   UNL     1     -44.922  59.821 -61.810  1.00  0.00    -0.379 N 
HETATM   23  H   UNL     1     -45.366  58.995 -61.417  1.00  0.00     0.158 HD
HETATM   24  H   UNL     1     -45.097  59.953 -62.805  1.00  0.00     0.158 HD
ENDBRANCH  21  22
ENDBRANCH   7  17
ENDBRANCH   1   5
BRANCH   2  25
HETATM   25  N   UNL     1     -42.866  55.625 -56.658  1.00  0.00    -0.183 NA
HETATM   26  C   UNL     1     -43.350  55.812 -55.472  1.00  0.00     0.153 C 
BRANCH  26  27
HETATM   27  C   UNL     1     -42.603  56.574 -54.458  1.00  0.00     0.018 A 
HETATM   28  C   UNL     1     -41.836  55.950 -53.463  1.00  0.00     0.081 A 
HETATM   29  C   UNL     1     -41.085  56.727 -52.577  1.00  0.00     0.039 A 
HETATM   30  C   UNL     1     -41.146  58.120 -52.648  1.00  0.00     0.026 A 
HETATM   31  C   UNL     1     -41.949  58.733 -53.610  1.00  0.00     0.035 A 
HETATM   32 CL   UNL     1     -42.031  60.448 -53.685  1.00  0.00    -0.084 Cl
HETATM   33  C   UNL     1     -42.680  57.968 -54.517  1.00  0.00     0.039 A 
BRANCH  28  34
HETATM   34  O   UNL     1     -41.793  54.588 -53.288  1.00  0.00    -0.346 OA
BRANCH  34  35
HETATM   35  C   UNL     1     -40.613  54.227 -52.549  1.00  0.00     0.219 C 
BRANCH  35  36
HETATM   36  C   UNL     1     -40.267  52.791 -52.838  1.00  0.00     0.026 A 
HETATM   37  C   UNL     1     -40.095  51.834 -51.828  1.00  0.00     0.045 A 
HETATM   38 CL   UNL     1     -40.225  52.241 -50.155  1.00  0.00    -0.084 Cl
HETATM   39  C   UNL     1     -39.812  50.500 -52.146  1.00  0.00     0.024 A 
HETATM   40  C   UNL     1     -39.697  50.101 -53.477  1.00  0.00     0.005 A 
HETATM   41  C   UNL     1     -39.845  51.042 -54.489  1.00  0.00     0.043 A 
HETATM   42  C   UNL     1     -40.114  52.370 -54.163  1.00  0.00     0.126 A 
HETATM   43  F   UNL     1     -40.199  53.261 -55.163  1.00  0.00    -0.205 F 
ENDBRANCH  35  36
ENDBRANCH  34  35
ENDBRANCH  28  34
ENDBRANCH  26  27
ENDBRANCH   2  25
TORSDOF 12
ENDMDL
MODEL 5
REMARK VINA RESULT:      -8.1      1.637      3.115
REMARK  12 active torsions:
REMARK  status: ('A' for Active; 'I' for Inactive)
REMARK    1  A    between atoms: C_2  and  N_3 
REMARK    2  A    between atoms: N_3  and  C_5 
REMARK    3  A    between atoms: N_3  and  C_39 
REMARK    4  A    between atoms: C_5  and  C_6 
REMARK    5  A    between atoms: N_7  and  C_8 
REMARK    6  A    between atoms: C_12  and  N_13 
REMARK    7  A    between atoms: C_16  and  C_17 
REMARK       I    between atoms: C_17  and  N_18 
REMARK    8  A    between atoms: N_18  and  N_19 
REMARK    9  A    between atoms: C_20  and  C_21 
REMARK   10  A    between atoms: C_22  and  O_23 
REMARK   11  A    between atoms: O_23  and  C_24 
REMARK   12  A    between atoms: C_24  and  C_25 
ROOT
HETATM    1  C   UNL     1     -42.847  56.362 -59.406  1.00  0.00     0.294 C 
HETATM    2  N   UNL     1     -42.503  56.042 -58.105  1.00  0.00    -0.242 N 
HETATM    3  O   UNL     1     -42.045  56.203 -60.321  1.00  0.00    -0.264 OA
HETATM    4  H   UNL     1     -41.623  55.547 -57.984  1.00  0.00     0.192 HD
ENDROOT
BRANCH   1   5
HETATM    5  C   UNL     1     -44.185  56.886 -59.639  1.00  0.00     0.176 C 
HETATM    6  C   UNL     1     -44.655  58.194 -59.563  1.00  0.00     0.102 C 
HETATM    7  N   UNL     1     -46.031  58.062 -59.765  1.00  0.00    -0.191 N 
HETATM    8  N   UNL     1     -46.287  56.795 -60.184  1.00  0.00    -0.058 NA
HETATM    9  N   UNL     1     -45.186  56.076 -60.087  1.00  0.00    -0.124 NA
BRANCH   6  10
HETATM   10  C   UNL     1     -43.919  59.446 -59.279  1.00  0.00     0.296 C 
BRANCH  10  11
HETATM   11  N   UNL     1     -43.534  59.665 -57.810  1.00  0.00    -0.066 N 
HETATM   12  H   UNL     1     -43.802  58.778 -57.363  1.00  0.00     0.280 HD
BRANCH  11  13
HETATM   13  C   UNL     1     -44.323  60.752 -57.112  1.00  0.00     0.231 C 
HETATM   14  C   UNL     1     -44.927  61.702 -58.132  1.00  0.00     0.034 C 
ENDBRANCH  11  13
BRANCH  11  15
HETATM   15  C   UNL     1     -42.033  59.766 -57.604  1.00  0.00     0.231 C 
HETATM   16  C   UNL     1     -41.420  60.806 -58.525  1.00  0.00     0.034 C 
ENDBRANCH  11  15
ENDBRANCH  10  11
ENDBRANCH   6  10
BRANCH   7  17
HETATM   17  C   UNL     1     -47.074  59.009 -59.634  1.00  0.00     0.229 A 
HETATM   18  N   UNL     1     -47.584  59.612 -60.707  1.00  0.00    -0.081 NA
HETATM   19  O   UNL     1     -48.556  60.467 -60.183  1.00  0.00    -0.103 OA
HETATM   20  N   UNL     1     -48.643  60.342 -58.804  1.00  0.00    -0.083 NA
HETATM   21  C   UNL     1     -47.718  59.446 -58.461  1.00  0.00     0.201 A 
BRANCH  21  22
HETATM   22  N   UNL     1     -47.490  59.029 -57.204  1.00  0.00    -0.379 N 
HETATM   23  H   UNL     1     -46.904  58.215 -57.042  1.00  0.00     0.158 HD
HETATM   24  H   UNL     1     -48.113  59.254 -56.430  1.00  0.00     0.158 HD
ENDBRANCH  21  22
ENDBRANCH   7  17
ENDBRANCH   1   5
BRANCH   2  25
HETATM   25  N   UNL     1     -43.252  56.390 -57.023  1.00  0.00    -0.183 NA
HETATM   26  C   UNL     1     -42.617  56.391 -55.893  1.00  0.00     0.153 C 
BRANCH  26  27
HETATM   27  C   UNL     1     -43.279  56.818 -54.651  1.00  0.00     0.018 A 
HETATM   28  C   UNL     1     -43.219  56.065 -53.469  1.00  0.00     0.081 A 
HETATM   29  C   UNL     1     -43.801  56.562 -52.300  1.00  0.00     0.039 A 
HETATM   30  C   UNL     1     -44.489  57.776 -52.325  1.00  0.00     0.026 A 
HETATM   31  C   UNL     1     -44.587  58.496 -53.516  1.00  0.00     0.035 A 
HETATM   32 CL   UNL     1     -45.447  59.984 -53.546  1.00  0.00    -0.084 Cl
HETATM   33  C   UNL     1     -43.986  58.025 -54.682  1.00  0.00     0.039 A 
BRANCH  28  34
HETATM   34  O   UNL     1     -42.626  54.829 -53.393  1.00  0.00    -0.346 OA
BRANCH  34  35
HETATM   35  C   UNL     1     -41.297  54.956 -52.859  1.00  0.00     0.219 C 
BRANCH  35  36
HETATM   36  C   UNL     1     -40.635  53.605 -52.846  1.00  0.00     0.026 A 
HETATM   37  C   UNL     1     -40.211  52.978 -51.666  1.00  0.00     0.045 A 
HETATM   38 CL   UNL     1     -40.376  53.733 -50.122  1.00  0.00    -0.084 Cl
HETATM   39  C   UNL     1     -39.635  51.702 -51.700  1.00  0.00     0.024 A 
HETATM   40  C   UNL     1     -39.474  51.032 -52.912  1.00  0.00     0.005 A 
HETATM   41  C   UNL     1     -39.872  51.648 -54.093  1.00  0.00     0.043 A 
HETATM   42  C   UNL     1     -40.432  52.923 -54.051  1.00  0.00     0.126 A 
HETATM   43  F   UNL     1     -40.756  53.509 -55.214  1.00  0.00    -0.205 F 
ENDBRANCH  35  36
ENDBRANCH  34  35
ENDBRANCH  28  34
ENDBRANCH  26  27
ENDBRANCH   2  25
TORSDOF 12
ENDMDL
MODEL 6
REMARK VINA RESULT:      -8.1      4.500      6.811
REMARK  12 active torsions:
REMARK  status: ('A' for Active; 'I' for Inactive)
REMARK    1  A    between atoms: C_2  and  N_3 
REMARK    2  A    between atoms: N_3  and  C_5 
REMARK    3  A    between atoms: N_3  and  C_39 
REMARK    4  A    between atoms: C_5  and  C_6 
REMARK    5  A    between atoms: N_7  and  C_8 
REMARK    6  A    between atoms: C_12  and  N_13 
REMARK    7  A    between atoms: C_16  and  C_17 
REMARK       I    between atoms: C_17  and  N_18 
REMARK    8  A    between atoms: N_18  and  N_19 
REMARK    9  A    between atoms: C_20  and  C_21 
REMARK   10  A    between atoms: C_22  and  O_23 
REMARK   11  A    between atoms: O_23  and  C_24 
REMARK   12  A    between atoms: C_24  and  C_25 
ROOT
HETATM    1  C   UNL     1     -45.149  58.679 -50.772  1.00  0.00     0.294 C 
HETATM    2  N   UNL     1     -44.500  57.497 -51.076  1.00  0.00    -0.242 N 
HETATM    3  O   UNL     1     -45.927  58.738 -49.824  1.00  0.00    -0.264 OA
HETATM    4  H   UNL     1     -44.596  56.746 -50.397  1.00  0.00     0.192 HD
ENDROOT
BRANCH   1   5
HETATM    5  C   UNL     1     -44.871  59.836 -51.610  1.00  0.00     0.176 C 
HETATM    6  C   UNL     1     -43.745  60.653 -51.656  1.00  0.00     0.102 C 
HETATM    7  N   UNL     1     -44.105  61.661 -52.554  1.00  0.00    -0.191 N 
HETATM    8  N   UNL     1     -45.259  61.296 -53.172  1.00  0.00    -0.058 NA
HETATM    9  N   UNL     1     -45.738  60.214 -52.592  1.00  0.00    -0.124 NA
BRANCH   6  10
HETATM   10  C   UNL     1     -42.473  60.550 -50.905  1.00  0.00     0.296 C 
BRANCH  10  11
HETATM   11  N   UNL     1     -41.295  59.953 -51.686  1.00  0.00    -0.066 N 
HETATM   12  H   UNL     1     -40.634  60.739 -51.750  1.00  0.00     0.280 HD
BRANCH  11  13
HETATM   13  C   UNL     1     -41.625  59.554 -53.108  1.00  0.00     0.231 C 
HETATM   14  C   UNL     1     -40.698  58.445 -53.574  1.00  0.00     0.034 C 
ENDBRANCH  11  13
BRANCH  11  15
HETATM   15  C   UNL     1     -40.552  58.884 -50.904  1.00  0.00     0.231 C 
HETATM   16  C   UNL     1     -39.236  59.415 -50.361  1.00  0.00     0.034 C 
ENDBRANCH  11  15
ENDBRANCH  10  11
ENDBRANCH   6  10
BRANCH   7  17
HETATM   17  C   UNL     1     -43.452  62.871 -52.887  1.00  0.00     0.229 A 
HETATM   18  N   UNL     1     -43.083  63.729 -51.935  1.00  0.00    -0.081 NA
HETATM   19  O   UNL     1     -42.499  64.782 -52.641  1.00  0.00    -0.103 OA
HETATM   20  N   UNL     1     -42.492  64.530 -54.005  1.00  0.00    -0.083 NA
HETATM   21  C   UNL     1     -43.092  63.350 -54.160  1.00  0.00     0.201 A 
BRANCH  21  22
HETATM   22  N   UNL     1     -43.274  62.737 -55.341  1.00  0.00    -0.379 N 
HETATM   23  H   UNL     1     -44.120  62.198 -55.505  1.00  0.00     0.158 HD
HETATM   24  H   UNL     1     -42.500  62.493 -55.958  1.00  0.00     0.158 HD
ENDBRANCH  21  22
ENDBRANCH   7  17
ENDBRANCH   1   5
BRANCH   2  25
HETATM   25  N   UNL     1     -43.799  57.299 -52.226  1.00  0.00    -0.183 NA
HETATM   26  C   UNL     1     -44.478  56.788 -53.203  1.00  0.00     0.153 C 
BRANCH  26  27
HETATM   27  C   UNL     1     -43.871  56.589 -54.528  1.00  0.00     0.018 A 
HETATM   28  C   UNL     1     -42.991  55.531 -54.802  1.00  0.00     0.081 A 
HETATM   29  C   UNL     1     -42.509  55.348 -56.100  1.00  0.00     0.039 A 
HETATM   30  C   UNL     1     -42.856  56.251 -57.106  1.00  0.00     0.026 A 
HETATM   31  C   UNL     1     -43.692  57.330 -56.816  1.00  0.00     0.035 A 
HETATM   32 CL   UNL     1     -44.106  58.447 -58.054  1.00  0.00    -0.084 Cl
HETATM   33  C   UNL     1     -44.203  57.506 -55.531  1.00  0.00     0.039 A 
BRANCH  28  34
HETATM   34  O   UNL     1     -42.549  54.653 -53.843  1.00  0.00    -0.346 OA
BRANCH  34  35
HETATM   35  C   UNL     1     -41.122  54.760 -53.702  1.00  0.00     0.219 C 
BRANCH  35  36
HETATM   36  C   UNL     1     -40.623  53.638 -52.832  1.00  0.00     0.026 A 
HETATM   37  C   UNL     1     -40.611  53.711 -51.432  1.00  0.00     0.045 A 
HETATM   38 CL   UNL     1     -41.131  55.124 -50.587  1.00  0.00    -0.084 Cl
HETATM   39  C   UNL     1     -40.174  52.625 -50.663  1.00  0.00     0.024 A 
HETATM   40  C   UNL     1     -39.743  51.451 -51.279  1.00  0.00     0.005 A 
HETATM   41  C   UNL     1     -39.731  51.371 -52.667  1.00  0.00     0.043 A 
HETATM   42  C   UNL     1     -40.156  52.460 -53.424  1.00  0.00     0.126 A 
HETATM   43  F   UNL     1     -40.081  52.367 -54.761  1.00  0.00    -0.205 F 
ENDBRANCH  35  36
ENDBRANCH  34  35
ENDBRANCH  28  34
ENDBRANCH  26  27
ENDBRANCH   2  25
TORSDOF 12
ENDMDL
MODEL 7
REMARK VINA RESULT:      -8.0      1.910      3.362
REMARK  12 active torsions:
REMARK  status: ('A' for Active; 'I' for Inactive)
REMARK    1  A    between atoms: C_2  and  N_3 
REMARK    2  A    between atoms: N_3  and  C_5 
REMARK    3  A    between atoms: N_3  and  C_39 
REMARK    4  A    between atoms: C_5  and  C_6 
REMARK    5  A    between atoms: N_7  and  C_8 
REMARK    6  A    between atoms: C_12  and  N_13 
REMARK    7  A    between atoms: C_16  and  C_17 
REMARK       I    between atoms: C_17  and  N_18 
REMARK    8  A    between atoms: N_18  and  N_19 
REMARK    9  A    between atoms: C_20  and  C_21 
REMARK   10  A    between atoms: C_22  and  O_23 
REMARK   11  A    between atoms: O_23  and  C_24 
REMARK   12  A    between atoms: C_24  and  C_25 
ROOT
HETATM    1  C   UNL     1     -43.335  56.158 -59.050  1.00  0.00     0.294 C 
HETATM    2  N   UNL     1     -42.933  55.490 -57.907  1.00  0.00    -0.242 N 
HETATM    3  O   UNL     1     -43.022  55.738 -60.160  1.00  0.00    -0.264 OA
HETATM    4  H   UNL     1     -42.501  54.581 -58.049  1.00  0.00     0.192 HD
ENDROOT
BRANCH   1   5
HETATM    5  C   UNL     1     -44.136  57.361 -58.881  1.00  0.00     0.176 C 
HETATM    6  C   UNL     1     -43.744  58.696 -58.857  1.00  0.00     0.102 C 
HETATM    7  N   UNL     1     -44.921  59.379 -58.539  1.00  0.00    -0.191 N 
HETATM    8  N   UNL     1     -45.962  58.512 -58.631  1.00  0.00    -0.058 NA
HETATM    9  N   UNL     1     -45.496  57.292 -58.812  1.00  0.00    -0.124 NA
BRANCH   6  10
HETATM   10  C   UNL     1     -42.403  59.290 -59.056  1.00  0.00     0.296 C 
BRANCH  10  11
HETATM   11  N   UNL     1     -41.694  59.758 -57.778  1.00  0.00    -0.066 N 
HETATM   12  H   UNL     1     -40.736  59.403 -57.899  1.00  0.00     0.280 HD
BRANCH  11  13
HETATM   13  C   UNL     1     -42.224  59.135 -56.505  1.00  0.00     0.231 C 
HETATM   14  C   UNL     1     -42.435  60.201 -55.444  1.00  0.00     0.034 C 
ENDBRANCH  11  13
BRANCH  11  15
HETATM   15  C   UNL     1     -41.543  61.267 -57.708  1.00  0.00     0.231 C 
HETATM   16  C   UNL     1     -40.917  61.817 -58.979  1.00  0.00     0.034 C 
ENDBRANCH  11  15
ENDBRANCH  10  11
ENDBRANCH   6  10
BRANCH   7  17
HETATM   17  C   UNL     1     -45.133  60.738 -58.205  1.00  0.00     0.229 A 
HETATM   18  N   UNL     1     -44.828  61.706 -59.069  1.00  0.00    -0.081 NA
HETATM   19  O   UNL     1     -45.156  62.880 -58.389  1.00  0.00    -0.103 OA
HETATM   20  N   UNL     1     -45.687  62.602 -57.137  1.00  0.00    -0.083 NA
HETATM   21  C   UNL     1     -45.664  61.276 -57.017  1.00  0.00     0.201 A 
BRANCH  21  22
HETATM   22  N   UNL     1     -46.110  60.599 -55.947  1.00  0.00    -0.379 N 
HETATM   23  H   UNL     1     -45.871  59.617 -55.835  1.00  0.00     0.158 HD
HETATM   24  H   UNL     1     -46.930  60.890 -55.416  1.00  0.00     0.158 HD
ENDBRANCH  21  22
ENDBRANCH   7  17
ENDBRANCH   1   5
BRANCH   2  25
HETATM   25  N   UNL     1     -43.055  56.006 -56.653  1.00  0.00    -0.183 NA
HETATM   26  C   UNL     1     -43.094  55.130 -55.700  1.00  0.00     0.153 C 
BRANCH  26  27
HETATM   27  C   UNL     1     -43.148  55.544 -54.290  1.00  0.00     0.018 A 
HETATM   28  C   UNL     1     -42.542  54.803 -53.264  1.00  0.00     0.081 A 
HETATM   29  C   UNL     1     -42.559  55.289 -51.954  1.00  0.00     0.039 A 
HETATM   30  C   UNL     1     -43.230  56.479 -51.661  1.00  0.00     0.026 A 
HETATM   31  C   UNL     1     -43.872  57.185 -52.678  1.00  0.00     0.035 A 
HETATM   32 CL   UNL     1     -44.707  58.641 -52.310  1.00  0.00    -0.084 Cl
HETATM   33  C   UNL     1     -43.837  56.725 -53.994  1.00  0.00     0.039 A 
BRANCH  28  34
HETATM   34  O   UNL     1     -41.934  53.589 -53.470  1.00  0.00    -0.346 OA
BRANCH  34  35
HETATM   35  C   UNL     1     -40.600  53.613 -52.934  1.00  0.00     0.219 C 
BRANCH  35  36
HETATM   36  C   UNL     1     -40.197  52.217 -52.544  1.00  0.00     0.026 A 
HETATM   37  C   UNL     1     -40.042  51.817 -51.209  1.00  0.00     0.045 A 
HETATM   38 CL   UNL     1     -40.261  52.916 -49.896  1.00  0.00    -0.084 Cl
HETATM   39  C   UNL     1     -39.703  50.495 -50.893  1.00  0.00     0.024 A 
HETATM   40  C   UNL     1     -39.515  49.553 -51.903  1.00  0.00     0.005 A 
HETATM   41  C   UNL     1     -39.646  49.939 -53.232  1.00  0.00     0.043 A 
HETATM   42  C   UNL     1     -39.970  51.259 -53.538  1.00  0.00     0.126 A 
HETATM   43  F   UNL     1     -40.036  51.609 -54.832  1.00  0.00    -0.205 F 
ENDBRANCH  35  36
ENDBRANCH  34  35
ENDBRANCH  28  34
ENDBRANCH  26  27
ENDBRANCH   2  25
TORSDOF 12
ENDMDL
MODEL 8
REMARK VINA RESULT:      -7.7      2.533      4.216
REMARK  12 active torsions:
REMARK  status: ('A' for Active; 'I' for Inactive)
REMARK    1  A    between atoms: C_2  and  N_3 
REMARK    2  A    between atoms: N_3  and  C_5 
REMARK    3  A    between atoms: N_3  and  C_39 
REMARK    4  A    between atoms: C_5  and  C_6 
REMARK    5  A    between atoms: N_7  and  C_8 
REMARK    6  A    between atoms: C_12  and  N_13 
REMARK    7  A    between atoms: C_16  and  C_17 
REMARK       I    between atoms: C_17  and  N_18 
REMARK    8  A    between atoms: N_18  and  N_19 
REMARK    9  A    between atoms: C_20  and  C_21 
REMARK   10  A    between atoms: C_22  and  O_23 
REMARK   11  A    between atoms: O_23  and  C_24 
REMARK   12  A    between atoms: C_24  and  C_25 
ROOT
HETATM    1  C   UNL     1     -41.654  59.958 -57.306  1.00  0.00     0.294 C 
HETATM    2  N   UNL     1     -41.842  60.271 -55.972  1.00  0.00    -0.242 N 
HETATM    3  O   UNL     1     -40.973  60.681 -58.026  1.00  0.00    -0.264 OA
HETATM    4  H   UNL     1     -41.278  61.034 -55.607  1.00  0.00     0.192 HD
ENDROOT
BRANCH   1   5
HETATM    5  C   UNL     1     -42.288  58.748 -57.810  1.00  0.00     0.176 C 
HETATM    6  C   UNL     1     -42.845  58.490 -59.059  1.00  0.00     0.102 C 
HETATM    7  N   UNL     1     -43.406  57.218 -58.912  1.00  0.00    -0.191 N 
HETATM    8  N   UNL     1     -42.971  56.687 -57.740  1.00  0.00    -0.058 NA
HETATM    9  N   UNL     1     -42.319  57.609 -57.061  1.00  0.00    -0.124 NA
BRANCH   6  10
HETATM   10  C   UNL     1     -42.905  59.349 -60.262  1.00  0.00     0.296 C 
BRANCH  10  11
HETATM   11  N   UNL     1     -43.574  60.716 -60.063  1.00  0.00    -0.066 N 
HETATM   12  H   UNL     1     -43.158  61.054 -59.185  1.00  0.00     0.280 HD
BRANCH  11  13
HETATM   13  C   UNL     1     -45.069  60.653 -59.833  1.00  0.00     0.231 C 
HETATM   14  C   UNL     1     -45.753  59.964 -61.001  1.00  0.00     0.034 C 
ENDBRANCH  11  13
BRANCH  11  15
HETATM   15  C   UNL     1     -43.154  61.734 -61.108  1.00  0.00     0.231 C 
HETATM   16  C   UNL     1     -42.259  61.105 -62.162  1.00  0.00     0.034 C 
ENDBRANCH  11  15
ENDBRANCH  10  11
ENDBRANCH   6  10
BRANCH   7  17
HETATM   17  C   UNL     1     -44.255  56.484 -59.774  1.00  0.00     0.229 A 
HETATM   18  N   UNL     1     -43.751  55.777 -60.785  1.00  0.00    -0.081 NA
HETATM   19  O   UNL     1     -44.874  55.220 -61.399  1.00  0.00    -0.103 OA
HETATM   20  N   UNL     1     -46.038  55.570 -60.728  1.00  0.00    -0.083 NA
HETATM   21  C   UNL     1     -45.657  56.361 -59.727  1.00  0.00     0.201 A 
BRANCH  21  22
HETATM   22  N   UNL     1     -46.491  56.904 -58.825  1.00  0.00    -0.379 N 
HETATM   23  H   UNL     1     -46.777  57.875 -58.923  1.00  0.00     0.158 HD
HETATM   24  H   UNL     1     -46.597  56.533 -57.882  1.00  0.00     0.158 HD
ENDBRANCH  21  22
ENDBRANCH   7  17
ENDBRANCH   1   5
BRANCH   2  25
HETATM   25  N   UNL     1     -42.750  59.644 -55.174  1.00  0.00    -0.183 NA
HETATM   26  C   UNL     1     -42.339  59.385 -53.973  1.00  0.00     0.153 C 
BRANCH  26  27
HETATM   27  C   UNL     1     -43.237  58.779 -52.977  1.00  0.00     0.018 A 
HETATM   28  C   UNL     1     -43.208  57.409 -52.674  1.00  0.00     0.081 A 
HETATM   29  C   UNL     1     -44.030  56.906 -51.663  1.00  0.00     0.039 A 
HETATM   30  C   UNL     1     -44.918  57.755 -50.999  1.00  0.00     0.026 A 
HETATM   31  C   UNL     1     -44.975  59.106 -51.340  1.00  0.00     0.035 A 
HETATM   32 CL   UNL     1     -46.079  60.145 -50.529  1.00  0.00    -0.084 Cl
HETATM   33  C   UNL     1     -44.139  59.626 -52.327  1.00  0.00     0.039 A 
BRANCH  28  34
HETATM   34  O   UNL     1     -42.416  56.507 -53.341  1.00  0.00    -0.346 OA
BRANCH  34  35
HETATM   35  C   UNL     1     -43.007  55.198 -53.278  1.00  0.00     0.219 C 
BRANCH  35  36
HETATM   36  C   UNL     1     -41.916  54.162 -53.236  1.00  0.00     0.026 A 
HETATM   37  C   UNL     1     -41.354  53.700 -52.037  1.00  0.00     0.045 A 
HETATM   38 CL   UNL     1     -41.843  54.321 -50.502  1.00  0.00    -0.084 Cl
HETATM   39  C   UNL     1     -40.368  52.706 -52.046  1.00  0.00     0.024 A 
HETATM   40  C   UNL     1     -39.928  52.157 -53.249  1.00  0.00     0.005 A 
HETATM   41  C   UNL     1     -40.462  52.618 -54.447  1.00  0.00     0.043 A 
HETATM   42  C   UNL     1     -41.433  53.617 -54.430  1.00  0.00     0.126 A 
HETATM   43  F   UNL     1     -41.888  54.075 -55.607  1.00  0.00    -0.205 F 
ENDBRANCH  35  36
ENDBRANCH  34  35
ENDBRANCH  28  34
ENDBRANCH  26  27
ENDBRANCH   2  25
TORSDOF 12
ENDMDL
MODEL 9
REMARK VINA RESULT:      -7.7      2.123      3.323
REMARK  12 active torsions:
REMARK  status: ('A' for Active; 'I' for Inactive)
REMARK    1  A    between atoms: C_2  and  N_3 
REMARK    2  A    between atoms: N_3  and  C_5 
REMARK    3  A    between atoms: N_3  and  C_39 
REMARK    4  A    between atoms: C_5  and  C_6 
REMARK    5  A    between atoms: N_7  and  C_8 
REMARK    6  A    between atoms: C_12  and  N_13 
REMARK    7  A    between atoms: C_16  and  C_17 
REMARK       I    between atoms: C_17  and  N_18 
REMARK    8  A    between atoms: N_18  and  N_19 
REMARK    9  A    between atoms: C_20  and  C_21 
REMARK   10  A    between atoms: C_22  and  O_23 
REMARK   11  A    between atoms: O_23  and  C_24 
REMARK   12  A    between atoms: C_24  and  C_25 
ROOT
HETATM    1  C   UNL     1     -42.884  56.478 -59.423  1.00  0.00     0.294 C 
HETATM    2  N   UNL     1     -42.449  56.459 -58.110  1.00  0.00    -0.242 N 
HETATM    3  O   UNL     1     -42.121  56.185 -60.337  1.00  0.00    -0.264 OA
HETATM    4  H   UNL     1     -41.529  56.058 -57.950  1.00  0.00     0.192 HD
ENDROOT
BRANCH   1   5
HETATM    5  C   UNL     1     -44.269  56.853 -59.668  1.00  0.00     0.176 C 
HETATM    6  C   UNL     1     -44.802  58.070 -60.082  1.00  0.00     0.102 C 
HETATM    7  N   UNL     1     -46.183  57.864 -60.019  1.00  0.00    -0.191 N 
HETATM    8  N   UNL     1     -46.413  56.538 -59.831  1.00  0.00    -0.058 NA
HETATM    9  N   UNL     1     -45.269  55.929 -59.594  1.00  0.00    -0.124 NA
BRANCH   6  10
HETATM   10  C   UNL     1     -44.112  59.326 -60.453  1.00  0.00     0.296 C 
BRANCH  10  11
HETATM   11  N   UNL     1     -43.695  60.220 -59.277  1.00  0.00    -0.066 N 
HETATM   12  H   UNL     1     -43.839  59.613 -58.459  1.00  0.00     0.280 HD
BRANCH  11  13
HETATM   13  C   UNL     1     -44.578  61.432 -59.070  1.00  0.00     0.231 C 
HETATM   14  C   UNL     1     -45.254  61.820 -60.374  1.00  0.00     0.034 C 
ENDBRANCH  11  13
BRANCH  11  15
HETATM   15  C   UNL     1     -42.210  60.532 -59.272  1.00  0.00     0.231 C 
HETATM   16  C   UNL     1     -41.673  60.674 -60.686  1.00  0.00     0.034 C 
ENDBRANCH  11  15
ENDBRANCH  10  11
ENDBRANCH   6  10
BRANCH   7  17
HETATM   17  C   UNL     1     -47.255  58.777 -60.155  1.00  0.00     0.229 A 
HETATM   18  N   UNL     1     -47.705  59.460 -59.102  1.00  0.00    -0.081 NA
HETATM   19  O   UNL     1     -48.751  60.226 -59.620  1.00  0.00    -0.103 OA
HETATM   20  N   UNL     1     -48.895  60.020 -60.985  1.00  0.00    -0.083 NA
HETATM   21  C   UNL     1     -47.976  59.115 -61.316  1.00  0.00     0.201 A 
BRANCH  21  22
HETATM   22  N   UNL     1     -47.775  58.653 -62.561  1.00  0.00    -0.379 N 
HETATM   23  H   UNL     1     -48.319  59.030 -63.333  1.00  0.00     0.158 HD
HETATM   24  H   UNL     1     -47.369  57.737 -62.748  1.00  0.00     0.158 HD
ENDBRANCH  21  22
ENDBRANCH   7  17
ENDBRANCH   1   5
BRANCH   2  25
HETATM   25  N   UNL     1     -43.166  56.974 -57.073  1.00  0.00    -0.183 NA
HETATM   26  C   UNL     1     -42.846  56.518 -55.904  1.00  0.00     0.153 C 
BRANCH  26  27
HETATM   27  C   UNL     1     -43.484  57.039 -54.685  1.00  0.00     0.018 A 
HETATM   28  C   UNL     1     -43.406  56.375 -53.452  1.00  0.00     0.081 A 
HETATM   29  C   UNL     1     -43.964  56.959 -52.313  1.00  0.00     0.039 A 
HETATM   30  C   UNL     1     -44.648  58.172 -52.416  1.00  0.00     0.026 A 
HETATM   31  C   UNL     1     -44.764  58.803 -53.654  1.00  0.00     0.035 A 
HETATM   32 CL   UNL     1     -45.618  60.289 -53.779  1.00  0.00    -0.084 Cl
HETATM   33  C   UNL     1     -44.185  58.244 -54.793  1.00  0.00     0.039 A 
BRANCH  28  34
HETATM   34  O   UNL     1     -42.816  55.144 -53.296  1.00  0.00    -0.346 OA
BRANCH  34  35
HETATM   35  C   UNL     1     -41.475  55.303 -52.801  1.00  0.00     0.219 C 
BRANCH  35  36
HETATM   36  C   UNL     1     -40.828  53.951 -52.677  1.00  0.00     0.026 A 
HETATM   37  C   UNL     1     -40.296  53.260 -53.776  1.00  0.00     0.045 A 
HETATM   38 CL   UNL     1     -40.382  53.893 -55.379  1.00  0.00    -0.084 Cl
HETATM   39  C   UNL     1     -39.667  52.020 -53.605  1.00  0.00     0.024 A 
HETATM   40  C   UNL     1     -39.559  51.451 -52.337  1.00  0.00     0.005 A 
HETATM   41  C   UNL     1     -40.098  52.115 -51.241  1.00  0.00     0.043 A 
HETATM   42  C   UNL     1     -40.734  53.342 -51.421  1.00  0.00     0.126 A 
HETATM   43  F   UNL     1     -41.289  53.928 -50.350  1.00  0.00    -0.205 F 
ENDBRANCH  35  36
ENDBRANCH  34  35
ENDBRANCH  28  34
ENDBRANCH  26  27
ENDBRANCH   2  25
TORSDOF 12
ENDMDL
MODEL 10
REMARK VINA RESULT:      -7.7      4.041      6.157
REMARK  12 active torsions:
REMARK  status: ('A' for Active; 'I' for Inactive)
REMARK    1  A    between atoms: C_2  and  N_3 
REMARK    2  A    between atoms: N_3  and  C_5 
REMARK    3  A    between atoms: N_3  and  C_39 
REMARK    4  A    between atoms: C_5  and  C_6 
REMARK    5  A    between atoms: N_7  and  C_8 
REMARK    6  A    between atoms: C_12  and  N_13 
REMARK    7  A    between atoms: C_16  and  C_17 
REMARK       I    between atoms: C_17  and  N_18 
REMARK    8  A    between atoms: N_18  and  N_19 
REMARK    9  A    between atoms: C_20  and  C_21 
REMARK   10  A    between atoms: C_22  and  O_23 
REMARK   11  A    between atoms: O_23  and  C_24 
REMARK   12  A    between atoms: C_24  and  C_25 
ROOT
HETATM    1  C   UNL     1     -41.617  59.150 -50.814  1.00  0.00     0.294 C 
HETATM    2  N   UNL     1     -41.794  57.780 -50.737  1.00  0.00    -0.242 N 
HETATM    3  O   UNL     1     -41.264  59.789 -49.827  1.00  0.00    -0.264 OA
HETATM    4  H   UNL     1     -41.482  57.336 -49.878  1.00  0.00     0.192 HD
ENDROOT
BRANCH   1   5
HETATM    5  C   UNL     1     -41.861  59.791 -52.098  1.00  0.00     0.176 C 
HETATM    6  C   UNL     1     -42.858  60.687 -52.470  1.00  0.00     0.102 C 
HETATM    7  N   UNL     1     -42.658  60.850 -53.843  1.00  0.00    -0.191 N 
HETATM    8  N   UNL     1     -41.468  60.285 -54.177  1.00  0.00    -0.058 NA
HETATM    9  N   UNL     1     -40.995  59.625 -53.138  1.00  0.00    -0.124 NA
BRANCH   6  10
HETATM   10  C   UNL     1     -43.930  61.300 -51.654  1.00  0.00     0.296 C 
BRANCH  10  11
HETATM   11  N   UNL     1     -45.066  60.354 -51.242  1.00  0.00    -0.066 N 
HETATM   12  H   UNL     1     -44.636  59.423 -51.322  1.00  0.00     0.280 HD
BRANCH  11  13
HETATM   13  C   UNL     1     -46.254  60.360 -52.179  1.00  0.00     0.231 C 
HETATM   14  C   UNL     1     -46.674  61.786 -52.490  1.00  0.00     0.034 C 
ENDBRANCH  11  13
BRANCH  11  15
HETATM   15  C   UNL     1     -45.437  60.484 -49.775  1.00  0.00     0.231 C 
HETATM   16  C   UNL     1     -44.425  61.333 -49.025  1.00  0.00     0.034 C 
ENDBRANCH  11  15
ENDBRANCH  10  11
ENDBRANCH   6  10
BRANCH   7  17
HETATM   17  C   UNL     1     -43.451  61.503 -54.816  1.00  0.00     0.229 A 
HETATM   18  N   UNL     1     -43.705  62.809 -54.723  1.00  0.00    -0.081 NA
HETATM   19  O   UNL     1     -44.512  63.074 -55.830  1.00  0.00    -0.103 OA
HETATM   20  N   UNL     1     -44.706  61.933 -56.595  1.00  0.00    -0.083 NA
HETATM   21  C   UNL     1     -44.057  60.956 -55.963  1.00  0.00     0.201 A 
BRANCH  21  22
HETATM   22  N   UNL     1     -43.986  59.686 -56.393  1.00  0.00    -0.379 N 
HETATM   23  H   UNL     1     -43.270  59.067 -56.021  1.00  0.00     0.158 HD
HETATM   24  H   UNL     1     -44.370  59.387 -57.288  1.00  0.00     0.158 HD
ENDBRANCH  21  22
ENDBRANCH   7  17
ENDBRANCH   1   5
BRANCH   2  25
HETATM   25  N   UNL     1     -42.386  57.044 -51.718  1.00  0.00    -0.183 NA
HETATM   26  C   UNL     1     -41.586  56.617 -52.643  1.00  0.00     0.153 C 
BRANCH  26  27
HETATM   27  C   UNL     1     -42.071  55.746 -53.724  1.00  0.00     0.018 A 
HETATM   28  C   UNL     1     -42.228  54.361 -53.562  1.00  0.00     0.081 A 
HETATM   29  C   UNL     1     -42.769  53.598 -54.600  1.00  0.00     0.039 A 
HETATM   30  C   UNL     1     -43.095  54.206 -55.814  1.00  0.00     0.026 A 
HETATM   31  C   UNL     1     -42.891  55.575 -55.985  1.00  0.00     0.035 A 
HETATM   32 CL   UNL     1     -43.282  56.316 -57.486  1.00  0.00    -0.084 Cl
HETATM   33  C   UNL     1     -42.379  56.351 -54.946  1.00  0.00     0.039 A 
BRANCH  28  34
HETATM   34  O   UNL     1     -41.855  53.689 -52.424  1.00  0.00    -0.346 OA
BRANCH  34  35
HETATM   35  C   UNL     1     -40.425  53.549 -52.384  1.00  0.00     0.219 C 
BRANCH  35  36
HETATM   36  C   UNL     1     -40.064  52.095 -52.531  1.00  0.00     0.026 A 
HETATM   37  C   UNL     1     -39.987  51.219 -51.439  1.00  0.00     0.045 A 
HETATM   38 CL   UNL     1     -40.258  51.754 -49.819  1.00  0.00    -0.084 Cl
HETATM   39  C   UNL     1     -39.686  49.864 -51.628  1.00  0.00     0.024 A 
HETATM   40  C   UNL     1     -39.459  49.363 -52.909  1.00  0.00     0.005 A 
HETATM   41  C   UNL     1     -39.514  50.224 -54.000  1.00  0.00     0.043 A 
HETATM   42  C   UNL     1     -39.800  51.573 -53.801  1.00  0.00     0.126 A 
HETATM   43  F   UNL     1     -39.793  52.384 -54.870  1.00  0.00    -0.205 F 
ENDBRANCH  35  36
ENDBRANCH  34  35
ENDBRANCH  28  34
ENDBRANCH  26  27
ENDBRANCH   2  25
TORSDOF 12
ENDMDL
