MODEL 1
REMARK VINA RESULT:      -8.6      0.000      0.000
REMARK  5 active torsions:
REMARK  status: ('A' for Active; 'I' for Inactive)
REMARK    1  A    between atoms: C_7  and  C_8 
REMARK    2  A    between atoms: N_9  and  N_10 
REMARK       I    between atoms: N_10  and  C_11 
REMARK    3  A    between atoms: C_11  and  C_12 
REMARK    4  A    between atoms: C_12  and  N_13 
REMARK    5  A    between atoms: N_13  and  C_14 
ROOT
HETATM    1  N   UNL     1     -41.178  55.595 -55.522  1.00  0.00    -0.246 N 
HETATM    2  C   UNL     1     -42.393  55.580 -56.207  1.00  0.00     0.255 C 
HETATM    3  O   UNL     1     -43.201  54.654 -56.216  1.00  0.00    -0.270 OA
HETATM    4  H   UNL     1     -40.727  56.492 -55.366  1.00  0.00     0.192 HD
ENDROOT
BRANCH   1   5
HETATM    5  N   UNL     1     -40.689  54.589 -54.720  1.00  0.00    -0.184 NA
HETATM    6  C   UNL     1     -41.090  54.526 -53.489  1.00  0.00     0.153 C 
BRANCH   6   7
HETATM    7  C   UNL     1     -40.585  53.499 -52.593  1.00  0.00     0.018 A 
HETATM    8  C   UNL     1     -40.305  53.613 -51.238  1.00  0.00     0.018 A 
HETATM    9  C   UNL     1     -40.432  54.761 -50.301  1.00  0.00     0.069 C 
HETATM   10  N   UNL     1     -39.838  52.395 -50.805  1.00  0.00    -0.358 N 
HETATM   11  H   UNL     1     -39.557  52.186 -49.857  1.00  0.00     0.166 HD
HETATM   12  C   UNL     1     -39.804  51.490 -51.837  1.00  0.00     0.043 A 
HETATM   13  C   UNL     1     -40.271  52.149 -52.973  1.00  0.00     0.004 A 
HETATM   14  C   UNL     1     -39.400  50.149 -51.848  1.00  0.00     0.030 A 
HETATM   15  C   UNL     1     -40.345  51.425 -54.183  1.00  0.00     0.014 A 
HETATM   16  C   UNL     1     -39.948  50.082 -54.212  1.00  0.00     0.001 A 
HETATM   17  C   UNL     1     -39.481  49.457 -53.060  1.00  0.00     0.002 A 
ENDBRANCH   6   7
ENDBRANCH   1   5
BRANCH   2  18
HETATM   18  C   UNL     1     -42.634  56.867 -57.003  1.00  0.00     0.224 C 
BRANCH  18  19
HETATM   19  N   UNL     1     -42.458  56.646 -58.440  1.00  0.00    -0.380 N 
HETATM   20  H   UNL     1     -41.665  56.054 -58.692  1.00  0.00     0.160 HD
BRANCH  19  21
HETATM   21  C   UNL     1     -43.587  56.355 -59.225  1.00  0.00     0.050 A 
HETATM   22  C   UNL     1     -44.496  57.375 -59.583  1.00  0.00     0.060 A 
HETATM   23 CL   UNL     1     -44.172  59.024 -59.163  1.00  0.00    -0.082 Cl
HETATM   24  C   UNL     1     -45.660  57.098 -60.307  1.00  0.00     0.026 A 
HETATM   25  C   UNL     1     -45.954  55.787 -60.673  1.00  0.00     0.002 A 
HETATM   26  C   UNL     1     -45.089  54.761 -60.308  1.00  0.00     0.002 A 
HETATM   27  C   UNL     1     -43.924  55.041 -59.586  1.00  0.00     0.031 A 
ENDBRANCH  19  21
ENDBRANCH  18  19
ENDBRANCH   2  18
TORSDOF 5
ENDMDL
MODEL 2
REMARK VINA RESULT:      -8.5      1.910      2.422
REMARK  5 active torsions:
REMARK  status: ('A' for Active; 'I' for Inactive)
REMARK    1  A    between atoms: C_7  and  C_8 
REMARK    2  A    between atoms: N_9  and  N_10 
REMARK       I    between atoms: N_10  and  C_11 
REMARK    3  A    between atoms: C_11  and  C_12 
REMARK    4  A    between atoms: C_12  and  N_13 
REMARK    5  A    between atoms: N_13  and  C_14 
ROOT
HETATM    1  N   UNL     1     -43.151  55.572 -54.768  1.00  0.00    -0.246 N 
HETATM    2  C   UNL     1     -43.900  56.700 -54.432  1.00  0.00     0.255 C 
HETATM    3  O   UNL     1     -44.250  57.017 -53.297  1.00  0.00    -0.270 OA
HETATM    4  H   UNL     1     -42.697  55.553 -55.677  1.00  0.00     0.192 HD
ENDROOT
BRANCH   1   5
HETATM    5  N   UNL     1     -42.654  54.639 -53.887  1.00  0.00    -0.184 NA
HETATM    6  C   UNL     1     -41.387  54.651 -53.618  1.00  0.00     0.153 C 
BRANCH   6   7
HETATM    7  C   UNL     1     -40.809  53.670 -52.714  1.00  0.00     0.018 A 
HETATM    8  C   UNL     1     -40.513  53.824 -51.365  1.00  0.00     0.018 A 
HETATM    9  C   UNL     1     -40.690  54.979 -50.446  1.00  0.00     0.069 C 
HETATM   10  N   UNL     1     -39.970  52.643 -50.921  1.00  0.00    -0.358 N 
HETATM   11  H   UNL     1     -39.662  52.466 -49.975  1.00  0.00     0.166 HD
HETATM   12  C   UNL     1     -39.902  51.723 -51.938  1.00  0.00     0.043 A 
HETATM   13  C   UNL     1     -40.424  52.334 -53.076  1.00  0.00     0.004 A 
HETATM   14  C   UNL     1     -39.422  50.407 -51.934  1.00  0.00     0.030 A 
HETATM   15  C   UNL     1     -40.477  51.585 -54.272  1.00  0.00     0.014 A 
HETATM   16  C   UNL     1     -40.003  50.268 -54.286  1.00  0.00     0.001 A 
HETATM   17  C   UNL     1     -39.482  49.691 -53.133  1.00  0.00     0.002 A 
ENDBRANCH   6   7
ENDBRANCH   1   5
BRANCH   2  18
HETATM   18  C   UNL     1     -44.287  57.535 -55.656  1.00  0.00     0.224 C 
BRANCH  18  19
HETATM   19  N   UNL     1     -44.280  56.727 -56.878  1.00  0.00    -0.380 N 
HETATM   20  H   UNL     1     -45.197  56.404 -57.187  1.00  0.00     0.160 HD
BRANCH  19  21
HETATM   21  C   UNL     1     -43.488  57.144 -57.961  1.00  0.00     0.050 A 
HETATM   22  C   UNL     1     -43.285  56.295 -59.072  1.00  0.00     0.060 A 
HETATM   23 CL   UNL     1     -44.106  54.773 -59.173  1.00  0.00    -0.082 Cl
HETATM   24  C   UNL     1     -42.450  56.662 -60.131  1.00  0.00     0.026 A 
HETATM   25  C   UNL     1     -41.778  57.881 -60.095  1.00  0.00     0.002 A 
HETATM   26  C   UNL     1     -41.938  58.723 -58.999  1.00  0.00     0.002 A 
HETATM   27  C   UNL     1     -42.778  58.354 -57.942  1.00  0.00     0.031 A 
ENDBRANCH  19  21
ENDBRANCH  18  19
ENDBRANCH   2  18
TORSDOF 5
ENDMDL
MODEL 3
REMARK VINA RESULT:      -8.1      2.326      8.394
REMARK  5 active torsions:
REMARK  status: ('A' for Active; 'I' for Inactive)
REMARK    1  A    between atoms: C_7  and  C_8 
REMARK    2  A    between atoms: N_9  and  N_10 
REMARK       I    between atoms: N_10  and  C_11 
REMARK    3  A    between atoms: C_11  and  C_12 
REMARK    4  A    between atoms: C_12  and  N_13 
REMARK    5  A    between atoms: N_13  and  C_14 
ROOT
HETATM    1  N   UNL     1     -42.712  54.645 -53.849  1.00  0.00    -0.246 N 
HETATM    2  C   UNL     1     -42.196  55.096 -52.633  1.00  0.00     0.255 C 
HETATM    3  O   UNL     1     -42.066  56.272 -52.301  1.00  0.00    -0.270 OA
HETATM    4  H   UNL     1     -43.021  53.679 -53.909  1.00  0.00     0.192 HD
ENDROOT
BRANCH   1   5
HETATM    5  N   UNL     1     -43.186  55.437 -54.870  1.00  0.00    -0.184 NA
HETATM    6  C   UNL     1     -42.459  55.583 -55.932  1.00  0.00     0.153 C 
BRANCH   6   7
HETATM    7  C   UNL     1     -42.903  56.429 -57.028  1.00  0.00     0.018 A 
HETATM    8  C   UNL     1     -42.834  57.814 -57.116  1.00  0.00     0.018 A 
HETATM    9  C   UNL     1     -42.303  58.834 -56.174  1.00  0.00     0.069 C 
HETATM   10  N   UNL     1     -43.381  58.181 -58.322  1.00  0.00    -0.358 N 
HETATM   11  H   UNL     1     -43.463  59.131 -58.656  1.00  0.00     0.166 HD
HETATM   12  C   UNL     1     -43.805  57.079 -59.022  1.00  0.00     0.043 A 
HETATM   13  C   UNL     1     -43.516  55.962 -58.240  1.00  0.00     0.004 A 
HETATM   14  C   UNL     1     -44.417  56.989 -60.280  1.00  0.00     0.030 A 
HETATM   15  C   UNL     1     -43.848  54.687 -58.747  1.00  0.00     0.014 A 
HETATM   16  C   UNL     1     -44.458  54.578 -60.002  1.00  0.00     0.001 A 
HETATM   17  C   UNL     1     -44.739  55.714 -60.754  1.00  0.00     0.002 A 
ENDBRANCH   6   7
ENDBRANCH   1   5
BRANCH   2  18
HETATM   18  C   UNL     1     -41.764  53.947 -51.716  1.00  0.00     0.224 C 
BRANCH  18  19
HETATM   19  N   UNL     1     -40.361  53.589 -51.934  1.00  0.00    -0.380 N 
HETATM   20  H   UNL     1     -39.696  54.053 -51.314  1.00  0.00     0.160 HD
BRANCH  19  21
HETATM   21  C   UNL     1     -40.029  52.238 -52.128  1.00  0.00     0.050 A 
HETATM   22  C   UNL     1     -39.957  51.694 -53.430  1.00  0.00     0.060 A 
HETATM   23 CL   UNL     1     -40.159  52.713 -54.816  1.00  0.00    -0.082 Cl
HETATM   24  C   UNL     1     -39.693  50.338 -53.644  1.00  0.00     0.026 A 
HETATM   25  C   UNL     1     -39.515  49.486 -52.557  1.00  0.00     0.002 A 
HETATM   26  C   UNL     1     -39.609  49.990 -51.264  1.00  0.00     0.002 A 
HETATM   27  C   UNL     1     -39.871  51.349 -51.053  1.00  0.00     0.031 A 
ENDBRANCH  19  21
ENDBRANCH  18  19
ENDBRANCH   2  18
TORSDOF 5
ENDMDL
MODEL 4
REMARK VINA RESULT:      -8.1      1.977      2.383
REMARK  5 active torsions:
REMARK  status: ('A' for Active; 'I' for Inactive)
REMARK    1  A    between atoms: C_7  and  C_8 
REMARK    2  A    between atoms: N_9  and  N_10 
REMARK       I    between atoms: N_10  and  C_11 
REMARK    3  A    between atoms: C_11  and  C_12 
REMARK    4  A    between atoms: C_12  and  N_13 
REMARK    5  A    between atoms: N_13  and  C_14 
ROOT
HETATM    1  N   UNL     1     -43.777  56.572 -55.550  1.00  0.00    -0.246 N 
HETATM    2  C   UNL     1     -44.644  57.657 -55.418  1.00  0.00     0.255 C 
HETATM    3  O   UNL     1     -45.115  58.075 -54.362  1.00  0.00    -0.270 OA
HETATM    4  H   UNL     1     -43.248  56.484 -56.412  1.00  0.00     0.192 HD
ENDROOT
BRANCH   1   5
HETATM    5  N   UNL     1     -43.280  55.804 -54.521  1.00  0.00    -0.184 NA
HETATM    6  C   UNL     1     -42.020  55.894 -54.232  1.00  0.00     0.153 C 
BRANCH   6   7
HETATM    7  C   UNL     1     -41.440  55.085 -53.171  1.00  0.00     0.018 A 
HETATM    8  C   UNL     1     -41.313  55.409 -51.826  1.00  0.00     0.018 A 
HETATM    9  C   UNL     1     -41.714  56.621 -51.065  1.00  0.00     0.069 C 
HETATM   10  N   UNL     1     -40.696  54.352 -51.201  1.00  0.00    -0.358 N 
HETATM   11  H   UNL     1     -40.476  54.310 -50.216  1.00  0.00     0.166 HD
HETATM   12  C   UNL     1     -40.417  53.349 -52.097  1.00  0.00     0.043 A 
HETATM   13  C   UNL     1     -40.876  53.775 -53.342  1.00  0.00     0.004 A 
HETATM   14  C   UNL     1     -39.800  52.107 -51.898  1.00  0.00     0.030 A 
HETATM   15  C   UNL     1     -40.715  52.909 -54.445  1.00  0.00     0.014 A 
HETATM   16  C   UNL     1     -40.103  51.663 -54.265  1.00  0.00     0.001 A 
HETATM   17  C   UNL     1     -39.651  51.272 -53.009  1.00  0.00     0.002 A 
ENDBRANCH   6   7
ENDBRANCH   1   5
BRANCH   2  18
HETATM   18  C   UNL     1     -44.995  58.295 -56.765  1.00  0.00     0.224 C 
BRANCH  18  19
HETATM   19  N   UNL     1     -44.250  57.672 -57.861  1.00  0.00    -0.380 N 
HETATM   20  H   UNL     1     -43.428  57.138 -57.576  1.00  0.00     0.160 HD
BRANCH  19  21
HETATM   21  C   UNL     1     -44.964  57.014 -58.878  1.00  0.00     0.050 A 
HETATM   22  C   UNL     1     -44.295  56.187 -59.807  1.00  0.00     0.060 A 
HETATM   23 CL   UNL     1     -42.600  55.872 -59.638  1.00  0.00    -0.082 Cl
HETATM   24  C   UNL     1     -44.975  55.576 -60.865  1.00  0.00     0.026 A 
HETATM   25  C   UNL     1     -46.340  55.794 -61.032  1.00  0.00     0.002 A 
HETATM   26  C   UNL     1     -47.016  56.628 -60.147  1.00  0.00     0.002 A 
HETATM   27  C   UNL     1     -46.334  57.236 -59.088  1.00  0.00     0.031 A 
ENDBRANCH  19  21
ENDBRANCH  18  19
ENDBRANCH   2  18
TORSDOF 5
ENDMDL
MODEL 5
REMARK VINA RESULT:      -8.0      1.364      2.956
REMARK  5 active torsions:
REMARK  status: ('A' for Active; 'I' for Inactive)
REMARK    1  A    between atoms: C_7  and  C_8 
REMARK    2  A    between atoms: N_9  and  N_10 
REMARK       I    between atoms: N_10  and  C_11 
REMARK    3  A    between atoms: C_11  and  C_12 
REMARK    4  A    between atoms: C_12  and  N_13 
REMARK    5  A    between atoms: N_13  and  C_14 
ROOT
HETATM    1  N   UNL     1     -41.760  55.480 -55.913  1.00  0.00    -0.246 N 
HETATM    2  C   UNL     1     -42.673  56.529 -56.029  1.00  0.00     0.255 C 
HETATM    3  O   UNL     1     -43.531  56.828 -55.201  1.00  0.00    -0.270 OA
HETATM    4  H   UNL     1     -40.940  55.491 -56.512  1.00  0.00     0.192 HD
ENDROOT
BRANCH   1   5
HETATM    5  N   UNL     1     -41.647  54.621 -54.844  1.00  0.00    -0.184 NA
HETATM    6  C   UNL     1     -40.707  54.829 -53.976  1.00  0.00     0.153 C 
BRANCH   6   7
HETATM    7  C   UNL     1     -40.529  53.936 -52.843  1.00  0.00     0.018 A 
HETATM    8  C   UNL     1     -40.167  52.595 -52.864  1.00  0.00     0.018 A 
HETATM    9  C   UNL     1     -39.850  51.680 -53.992  1.00  0.00     0.069 C 
HETATM   10  N   UNL     1     -40.132  52.152 -51.564  1.00  0.00    -0.358 N 
HETATM   11  H   UNL     1     -39.896  51.213 -51.277  1.00  0.00     0.166 HD
HETATM   12  C   UNL     1     -40.460  53.164 -50.695  1.00  0.00     0.043 A 
HETATM   13  C   UNL     1     -40.711  54.298 -51.465  1.00  0.00     0.004 A 
HETATM   14  C   UNL     1     -40.552  53.158 -49.297  1.00  0.00     0.030 A 
HETATM   15  C   UNL     1     -41.064  55.493 -50.800  1.00  0.00     0.014 A 
HETATM   16  C   UNL     1     -41.158  55.506 -49.403  1.00  0.00     0.001 A 
HETATM   17  C   UNL     1     -40.907  54.354 -48.665  1.00  0.00     0.002 A 
ENDBRANCH   6   7
ENDBRANCH   1   5
BRANCH   2  18
HETATM   18  C   UNL     1     -42.523  57.295 -57.347  1.00  0.00     0.224 C 
BRANCH  18  19
HETATM   19  N   UNL     1     -43.825  57.706 -57.876  1.00  0.00    -0.380 N 
HETATM   20  H   UNL     1     -43.910  58.700 -58.091  1.00  0.00     0.160 HD
BRANCH  19  21
HETATM   21  C   UNL     1     -44.436  56.912 -58.862  1.00  0.00     0.050 A 
HETATM   22  C   UNL     1     -45.789  57.117 -59.214  1.00  0.00     0.060 A 
HETATM   23 CL   UNL     1     -46.684  58.430 -58.523  1.00  0.00    -0.082 Cl
HETATM   24  C   UNL     1     -46.436  56.298 -60.143  1.00  0.00     0.026 A 
HETATM   25  C   UNL     1     -45.751  55.237 -60.730  1.00  0.00     0.002 A 
HETATM   26  C   UNL     1     -44.426  54.997 -60.379  1.00  0.00     0.002 A 
HETATM   27  C   UNL     1     -43.780  55.820 -59.450  1.00  0.00     0.031 A 
ENDBRANCH  19  21
ENDBRANCH  18  19
ENDBRANCH   2  18
TORSDOF 5
ENDMDL
MODEL 6
REMARK VINA RESULT:      -7.9      4.892      6.396
REMARK  5 active torsions:
REMARK  status: ('A' for Active; 'I' for Inactive)
REMARK    1  A    between atoms: C_7  and  C_8 
REMARK    2  A    between atoms: N_9  and  N_10 
REMARK       I    between atoms: N_10  and  C_11 
REMARK    3  A    between atoms: C_11  and  C_12 
REMARK    4  A    between atoms: C_12  and  N_13 
REMARK    5  A    between atoms: N_13  and  C_14 
ROOT
HETATM    1  N   UNL     1     -41.771  57.829 -52.619  1.00  0.00    -0.246 N 
HETATM    2  C   UNL     1     -41.159  58.971 -53.136  1.00  0.00     0.255 C 
HETATM    3  O   UNL     1     -39.947  59.167 -53.207  1.00  0.00    -0.270 OA
HETATM    4  H   UNL     1     -42.744  57.660 -52.853  1.00  0.00     0.192 HD
ENDROOT
BRANCH   1   5
HETATM    5  N   UNL     1     -41.125  56.718 -52.126  1.00  0.00    -0.184 NA
HETATM    6  C   UNL     1     -41.713  55.567 -52.215  1.00  0.00     0.153 C 
BRANCH   6   7
HETATM    7  C   UNL     1     -41.085  54.367 -51.687  1.00  0.00     0.018 A 
HETATM    8  C   UNL     1     -40.786  54.074 -50.362  1.00  0.00     0.018 A 
HETATM    9  C   UNL     1     -41.007  54.846 -49.111  1.00  0.00     0.069 C 
HETATM   10  N   UNL     1     -40.188  52.837 -50.334  1.00  0.00    -0.358 N 
HETATM   11  H   UNL     1     -39.865  52.368 -49.499  1.00  0.00     0.166 HD
HETATM   12  C   UNL     1     -40.086  52.314 -51.600  1.00  0.00     0.043 A 
HETATM   13  C   UNL     1     -40.644  53.247 -52.472  1.00  0.00     0.004 A 
HETATM   14  C   UNL     1     -39.548  51.095 -52.032  1.00  0.00     0.030 A 
HETATM   15  C   UNL     1     -40.672  52.940 -53.850  1.00  0.00     0.014 A 
HETATM   16  C   UNL     1     -40.141  51.725 -54.300  1.00  0.00     0.001 A 
HETATM   17  C   UNL     1     -39.586  50.819 -53.402  1.00  0.00     0.002 A 
ENDBRANCH   6   7
ENDBRANCH   1   5
BRANCH   2  18
HETATM   18  C   UNL     1     -42.172  60.019 -53.607  1.00  0.00     0.224 C 
BRANCH  18  19
HETATM   19  N   UNL     1     -43.444  59.891 -52.891  1.00  0.00    -0.380 N 
HETATM   20  H   UNL     1     -43.792  58.936 -52.796  1.00  0.00     0.160 HD
BRANCH  19  21
HETATM   21  C   UNL     1     -43.633  60.628 -51.710  1.00  0.00     0.050 A 
HETATM   22  C   UNL     1     -44.499  60.156 -50.698  1.00  0.00     0.060 A 
HETATM   23 CL   UNL     1     -45.250  58.602 -50.843  1.00  0.00    -0.082 Cl
HETATM   24  C   UNL     1     -44.754  60.904 -49.545  1.00  0.00     0.026 A 
HETATM   25  C   UNL     1     -44.163  62.154 -49.383  1.00  0.00     0.002 A 
HETATM   26  C   UNL     1     -43.328  62.654 -50.378  1.00  0.00     0.002 A 
HETATM   27  C   UNL     1     -43.074  61.903 -51.530  1.00  0.00     0.031 A 
ENDBRANCH  19  21
ENDBRANCH  18  19
ENDBRANCH   2  18
TORSDOF 5
ENDMDL
MODEL 7
REMARK VINA RESULT:      -7.8      2.855      8.915
REMARK  5 active torsions:
REMARK  status: ('A' for Active; 'I' for Inactive)
REMARK    1  A    between atoms: C_7  and  C_8 
REMARK    2  A    between atoms: N_9  and  N_10 
REMARK       I    between atoms: N_10  and  C_11 
REMARK    3  A    between atoms: C_11  and  C_12 
REMARK    4  A    between atoms: C_12  and  N_13 
REMARK    5  A    between atoms: N_13  and  C_14 
ROOT
HETATM    1  N   UNL     1     -42.013  55.738 -55.185  1.00  0.00    -0.246 N 
HETATM    2  C   UNL     1     -42.796  55.389 -54.084  1.00  0.00     0.255 C 
HETATM    3  O   UNL     1     -43.989  55.646 -53.942  1.00  0.00    -0.270 OA
HETATM    4  H   UNL     1     -41.131  55.252 -55.319  1.00  0.00     0.192 HD
ENDROOT
BRANCH   1   5
HETATM    5  N   UNL     1     -42.449  56.403 -56.309  1.00  0.00    -0.184 NA
HETATM    6  C   UNL     1     -42.676  55.719 -57.386  1.00  0.00     0.153 C 
BRANCH   6   7
HETATM    7  C   UNL     1     -43.113  56.377 -58.607  1.00  0.00     0.018 A 
HETATM    8  C   UNL     1     -43.900  55.851 -59.624  1.00  0.00     0.018 A 
HETATM    9  C   UNL     1     -44.531  54.515 -59.787  1.00  0.00     0.069 C 
HETATM   10  N   UNL     1     -44.047  56.824 -60.582  1.00  0.00    -0.358 N 
HETATM   11  H   UNL     1     -44.574  56.721 -61.438  1.00  0.00     0.166 HD
HETATM   12  C   UNL     1     -43.379  57.969 -60.223  1.00  0.00     0.043 A 
HETATM   13  C   UNL     1     -42.786  57.724 -58.986  1.00  0.00     0.004 A 
HETATM   14  C   UNL     1     -43.260  59.193 -60.894  1.00  0.00     0.030 A 
HETATM   15  C   UNL     1     -42.040  58.761 -58.385  1.00  0.00     0.014 A 
HETATM   16  C   UNL     1     -41.911  59.991 -59.040  1.00  0.00     0.001 A 
HETATM   17  C   UNL     1     -42.512  60.201 -60.277  1.00  0.00     0.002 A 
ENDBRANCH   6   7
ENDBRANCH   1   5
BRANCH   2  18
HETATM   18  C   UNL     1     -41.998  54.647 -53.008  1.00  0.00     0.224 C 
BRANCH  18  19
HETATM   19  N   UNL     1     -40.723  54.154 -53.533  1.00  0.00    -0.380 N 
HETATM   20  H   UNL     1     -39.914  54.743 -53.329  1.00  0.00     0.160 HD
BRANCH  19  21
HETATM   21  C   UNL     1     -40.414  52.790 -53.394  1.00  0.00     0.050 A 
HETATM   22  C   UNL     1     -39.875  52.295 -52.186  1.00  0.00     0.060 A 
HETATM   23 CL   UNL     1     -39.696  53.337 -50.814  1.00  0.00    -0.082 Cl
HETATM   24  C   UNL     1     -39.500  50.955 -52.046  1.00  0.00     0.026 A 
HETATM   25  C   UNL     1     -39.636  50.081 -53.121  1.00  0.00     0.002 A 
HETATM   26  C   UNL     1     -40.138  50.550 -54.331  1.00  0.00     0.002 A 
HETATM   27  C   UNL     1     -40.515  51.891 -54.467  1.00  0.00     0.031 A 
ENDBRANCH  19  21
ENDBRANCH  18  19
ENDBRANCH   2  18
TORSDOF 5
ENDMDL
MODEL 8
REMARK VINA RESULT:      -7.7      2.252      3.068
REMARK  5 active torsions:
REMARK  status: ('A' for Active; 'I' for Inactive)
REMARK    1  A    between atoms: C_7  and  C_8 
REMARK    2  A    between atoms: N_9  and  N_10 
REMARK       I    between atoms: N_10  and  C_11 
REMARK    3  A    between atoms: C_11  and  C_12 
REMARK    4  A    between atoms: C_12  and  N_13 
REMARK    5  A    between atoms: N_13  and  C_14 
ROOT
HETATM    1  N   UNL     1     -43.293  55.479 -57.009  1.00  0.00    -0.246 N 
HETATM    2  C   UNL     1     -43.197  56.590 -57.847  1.00  0.00     0.255 C 
HETATM    3  O   UNL     1     -42.474  57.567 -57.664  1.00  0.00    -0.270 OA
HETATM    4  H   UNL     1     -43.705  54.630 -57.385  1.00  0.00     0.192 HD
ENDROOT
BRANCH   1   5
HETATM    5  N   UNL     1     -42.577  55.275 -55.851  1.00  0.00    -0.184 NA
HETATM    6  C   UNL     1     -43.051  54.458 -54.964  1.00  0.00     0.153 C 
BRANCH   6   7
HETATM    7  C   UNL     1     -42.347  54.228 -53.713  1.00  0.00     0.018 A 
HETATM    8  C   UNL     1     -42.489  54.917 -52.515  1.00  0.00     0.018 A 
HETATM    9  C   UNL     1     -43.369  56.053 -52.134  1.00  0.00     0.069 C 
HETATM   10  N   UNL     1     -41.616  54.364 -51.610  1.00  0.00    -0.358 N 
HETATM   11  H   UNL     1     -41.504  54.667 -50.653  1.00  0.00     0.166 HD
HETATM   12  C   UNL     1     -40.907  53.335 -52.181  1.00  0.00     0.043 A 
HETATM   13  C   UNL     1     -41.346  53.220 -53.499  1.00  0.00     0.004 A 
HETATM   14  C   UNL     1     -39.922  52.505 -51.632  1.00  0.00     0.030 A 
HETATM   15  C   UNL     1     -40.772  52.215 -54.308  1.00  0.00     0.014 A 
HETATM   16  C   UNL     1     -39.787  51.375 -53.776  1.00  0.00     0.001 A 
HETATM   17  C   UNL     1     -39.369  51.521 -52.457  1.00  0.00     0.002 A 
ENDBRANCH   6   7
ENDBRANCH   1   5
BRANCH   2  18
HETATM   18  C   UNL     1     -44.130  56.495 -59.058  1.00  0.00     0.224 C 
BRANCH  18  19
HETATM   19  N   UNL     1     -45.526  56.720 -58.675  1.00  0.00    -0.380 N 
HETATM   20  H   UNL     1     -45.735  56.557 -57.689  1.00  0.00     0.160 HD
BRANCH  19  21
HETATM   21  C   UNL     1     -46.186  57.862 -59.160  1.00  0.00     0.050 A 
HETATM   22  C   UNL     1     -46.949  57.802 -60.347  1.00  0.00     0.060 A 
HETATM   23 CL   UNL     1     -47.185  56.292 -61.161  1.00  0.00    -0.082 Cl
HETATM   24  C   UNL     1     -47.560  58.940 -60.883  1.00  0.00     0.026 A 
HETATM   25  C   UNL     1     -47.405  60.173 -60.255  1.00  0.00     0.002 A 
HETATM   26  C   UNL     1     -46.634  60.264 -59.100  1.00  0.00     0.002 A 
HETATM   27  C   UNL     1     -46.026  59.123 -58.564  1.00  0.00     0.031 A 
ENDBRANCH  19  21
ENDBRANCH  18  19
ENDBRANCH   2  18
TORSDOF 5
ENDMDL
MODEL 9
REMARK VINA RESULT:      -7.5      5.052      6.884
REMARK  5 active torsions:
REMARK  status: ('A' for Active; 'I' for Inactive)
REMARK    1  A    between atoms: C_7  and  C_8 
REMARK    2  A    between atoms: N_9  and  N_10 
REMARK       I    between atoms: N_10  and  C_11 
REMARK    3  A    between atoms: C_11  and  C_12 
REMARK    4  A    between atoms: C_12  and  N_13 
REMARK    5  A    between atoms: N_13  and  C_14 
ROOT
HETATM    1  N   UNL     1     -41.183  57.739 -51.447  1.00  0.00    -0.246 N 
HETATM    2  C   UNL     1     -40.562  58.986 -51.535  1.00  0.00     0.255 C 
HETATM    3  O   UNL     1     -39.872  59.379 -52.472  1.00  0.00    -0.270 OA
HETATM    4  H   UNL     1     -41.933  57.624 -50.772  1.00  0.00     0.192 HD
ENDROOT
BRANCH   1   5
HETATM    5  N   UNL     1     -41.150  56.750 -52.404  1.00  0.00    -0.184 NA
HETATM    6  C   UNL     1     -41.650  55.590 -52.115  1.00  0.00     0.153 C 
BRANCH   6   7
HETATM    7  C   UNL     1     -41.616  54.504 -53.082  1.00  0.00     0.018 A 
HETATM    8  C   UNL     1     -42.308  54.411 -54.282  1.00  0.00     0.018 A 
HETATM    9  C   UNL     1     -43.255  55.345 -54.947  1.00  0.00     0.069 C 
HETATM   10  N   UNL     1     -41.980  53.207 -54.859  1.00  0.00    -0.358 N 
HETATM   11  H   UNL     1     -42.336  52.872 -55.744  1.00  0.00     0.166 HD
HETATM   12  C   UNL     1     -41.096  52.512 -54.071  1.00  0.00     0.043 A 
HETATM   13  C   UNL     1     -40.843  53.300 -52.950  1.00  0.00     0.004 A 
HETATM   14  C   UNL     1     -40.506  51.257 -54.268  1.00  0.00     0.030 A 
HETATM   15  C   UNL     1     -39.945  52.809 -51.977  1.00  0.00     0.014 A 
HETATM   16  C   UNL     1     -39.345  51.558 -52.157  1.00  0.00     0.001 A 
HETATM   17  C   UNL     1     -39.624  50.794 -53.286  1.00  0.00     0.002 A 
ENDBRANCH   6   7
ENDBRANCH   1   5
BRANCH   2  18
HETATM   18  C   UNL     1     -40.807  59.852 -50.296  1.00  0.00     0.224 C 
BRANCH  18  19
HETATM   19  N   UNL     1     -42.206  59.789 -49.868  1.00  0.00    -0.380 N 
HETATM   20  H   UNL     1     -42.346  59.599 -48.874  1.00  0.00     0.160 HD
BRANCH  19  21
HETATM   21  C   UNL     1     -43.104  60.763 -50.337  1.00  0.00     0.050 A 
HETATM   22  C   UNL     1     -44.314  60.386 -50.959  1.00  0.00     0.060 A 
HETATM   23 CL   UNL     1     -44.771  58.717 -51.047  1.00  0.00    -0.082 Cl
HETATM   24  C   UNL     1     -45.191  61.336 -51.493  1.00  0.00     0.026 A 
HETATM   25  C   UNL     1     -44.866  62.689 -51.435  1.00  0.00     0.002 A 
HETATM   26  C   UNL     1     -43.667  63.085 -50.853  1.00  0.00     0.002 A 
HETATM   27  C   UNL     1     -42.792  62.132 -50.318  1.00  0.00     0.031 A 
ENDBRANCH  19  21
ENDBRANCH  18  19
ENDBRANCH   2  18
TORSDOF 5
ENDMDL
MODEL 10
REMARK VINA RESULT:      -7.5      5.799      7.833
REMARK  5 active torsions:
REMARK  status: ('A' for Active; 'I' for Inactive)
REMARK    1  A    between atoms: C_7  and  C_8 
REMARK    2  A    between atoms: N_9  and  N_10 
REMARK       I    between atoms: N_10  and  C_11 
REMARK    3  A    between atoms: C_11  and  C_12 
REMARK    4  A    between atoms: C_12  and  N_13 
REMARK    5  A    between atoms: N_13  and  C_14 
ROOT
HETATM    1  N   UNL     1     -43.588  57.411 -50.633  1.00  0.00    -0.246 N 
HETATM    2  C   UNL     1     -43.514  58.498 -51.504  1.00  0.00     0.255 C 
HETATM    3  O   UNL     1     -42.913  58.521 -52.575  1.00  0.00    -0.270 OA
HETATM    4  H   UNL     1     -44.318  57.412 -49.927  1.00  0.00     0.192 HD
ENDROOT
BRANCH   1   5
HETATM    5  N   UNL     1     -43.024  56.172 -50.837  1.00  0.00    -0.184 NA
HETATM    6  C   UNL     1     -41.767  56.010 -50.565  1.00  0.00     0.153 C 
BRANCH   6   7
HETATM    7  C   UNL     1     -41.117  54.728 -50.787  1.00  0.00     0.018 A 
HETATM    8  C   UNL     1     -40.566  53.877 -49.839  1.00  0.00     0.018 A 
HETATM    9  C   UNL     1     -40.471  53.984 -48.359  1.00  0.00     0.069 C 
HETATM   10  N   UNL     1     -40.052  52.789 -50.503  1.00  0.00    -0.358 N 
HETATM   11  H   UNL     1     -39.590  52.006 -50.063  1.00  0.00     0.166 HD
HETATM   12  C   UNL     1     -40.251  52.906 -51.857  1.00  0.00     0.043 A 
HETATM   13  C   UNL     1     -40.921  54.109 -52.069  1.00  0.00     0.004 A 
HETATM   14  C   UNL     1     -39.892  52.041 -52.899  1.00  0.00     0.030 A 
HETATM   15  C   UNL     1     -41.257  54.463 -53.394  1.00  0.00     0.014 A 
HETATM   16  C   UNL     1     -40.908  53.610 -54.448  1.00  0.00     0.001 A 
HETATM   17  C   UNL     1     -40.234  52.418 -54.201  1.00  0.00     0.002 A 
ENDBRANCH   6   7
ENDBRANCH   1   5
BRANCH   2  18
HETATM   18  C   UNL     1     -44.262  59.726 -50.975  1.00  0.00     0.224 C 
BRANCH  18  19
HETATM   19  N   UNL     1     -43.464  60.450 -49.982  1.00  0.00    -0.380 N 
HETATM   20  H   UNL     1     -42.539  60.742 -50.301  1.00  0.00     0.160 HD
BRANCH  19  21
HETATM   21  C   UNL     1     -44.084  61.451 -49.214  1.00  0.00     0.050 A 
HETATM   22  C   UNL     1     -43.915  62.815 -49.539  1.00  0.00     0.060 A 
HETATM   23 CL   UNL     1     -43.039  63.275 -50.960  1.00  0.00    -0.082 Cl
HETATM   24  C   UNL     1     -44.467  63.829 -48.751  1.00  0.00     0.026 A 
HETATM   25  C   UNL     1     -45.187  63.503 -47.604  1.00  0.00     0.002 A 
HETATM   26  C   UNL     1     -45.344  62.168 -47.247  1.00  0.00     0.002 A 
HETATM   27  C   UNL     1     -44.792  61.155 -48.039  1.00  0.00     0.031 A 
ENDBRANCH  19  21
ENDBRANCH  18  19
ENDBRANCH   2  18
TORSDOF 5
ENDMDL
