MODEL 1
REMARK VINA RESULT:      -9.4      0.000      0.000
REMARK  4 active torsions:
REMARK  status: ('A' for Active; 'I' for Inactive)
REMARK    1  A    between atoms: C_2  and  N_3 
REMARK    2  A    between atoms: C_10  and  C_11 
REMARK    3  A    between atoms: C_11  and  C_12 
REMARK       I    between atoms: C_12  and  N_13 
REMARK    4  A    between atoms: N_13  and  C_14 
ROOT
HETATM    1  C   UNL     1     -42.674  56.801 -56.460  1.00  0.00     0.035 A 
HETATM    2  C   UNL     1     -42.488  57.307 -57.748  1.00  0.00     0.049 A 
HETATM    3  C   UNL     1     -43.370  58.263 -58.296  1.00  0.00     0.061 A 
HETATM    4  C   UNL     1     -44.458  58.719 -57.540  1.00  0.00     0.050 A 
HETATM    5  N   UNL     1     -45.349  59.743 -57.904  1.00  0.00    -0.324 N 
HETATM    6  C   UNL     1     -45.101  60.851 -58.669  1.00  0.00     0.245 C 
HETATM    7  O   UNL     1     -45.958  61.738 -58.698  1.00  0.00    -0.271 OA
HETATM    8  C   UNL     1     -43.708  61.026 -59.272  1.00  0.00     0.180 C 
HETATM    9  N   UNL     1     -43.384  59.902 -60.136  1.00  0.00    -0.334 N 
HETATM   10  C   UNL     1     -43.129  58.620 -59.719  1.00  0.00     0.256 C 
HETATM   11  O   UNL     1     -42.701  57.758 -60.482  1.00  0.00    -0.267 OA
HETATM   12  C   UNL     1     -43.609  62.253 -60.188  1.00  0.00     0.037 C 
HETATM   13  C   UNL     1     -42.661  61.801 -61.292  1.00  0.00     0.022 C 
HETATM   14  C   UNL     1     -43.039  60.341 -61.476  1.00  0.00     0.127 C 
HETATM   15  C   UNL     1     -44.699  58.128 -56.292  1.00  0.00     0.033 A 
HETATM   16  C   UNL     1     -43.811  57.191 -55.752  1.00  0.00     0.032 A 
HETATM   17  H   UNL     1     -46.217  59.832 -57.386  1.00  0.00     0.169 HD
ENDROOT
BRANCH   1  18
HETATM   18  N   UNL     1     -41.750  55.967 -55.795  1.00  0.00    -0.327 N 
HETATM   19  C   UNL     1     -41.911  54.630 -55.471  1.00  0.00     0.226 C 
HETATM   20  O   UNL     1     -42.973  54.010 -55.502  1.00  0.00    -0.273 OA
HETATM   21  H   UNL     1     -40.854  56.380 -55.558  1.00  0.00     0.169 HD
BRANCH  19  22
HETATM   22  C   UNL     1     -40.608  53.889 -55.215  1.00  0.00     0.144 C 
BRANCH  22  23
HETATM   23  C   UNL     1     -40.420  53.392 -53.819  1.00  0.00    -0.021 A 
HETATM   24  C   UNL     1     -40.096  52.060 -53.411  1.00  0.00    -0.001 A 
HETATM   25  C   UNL     1     -40.114  52.027 -52.012  1.00  0.00     0.045 A 
HETATM   26  C   UNL     1     -39.806  50.869 -54.114  1.00  0.00     0.014 A 
HETATM   27  N   UNL     1     -40.467  53.293 -51.583  1.00  0.00    -0.351 N 
HETATM   28  C   UNL     1     -39.836  50.848 -51.299  1.00  0.00     0.030 A 
HETATM   29  C   UNL     1     -40.600  54.128 -52.666  1.00  0.00     0.100 A 
HETATM   30  C   UNL     1     -39.543  49.688 -52.020  1.00  0.00     0.002 A 
HETATM   31  C   UNL     1     -39.530  49.695 -53.409  1.00  0.00     0.001 A 
BRANCH  27  32
HETATM   32  C   UNL     1     -40.728  53.691 -50.198  1.00  0.00     0.081 C 
HETATM   33  C   UNL     1     -41.908  54.662 -50.100  1.00  0.00     0.032 C 
HETATM   34  C   UNL     1     -39.478  54.262 -49.531  1.00  0.00     0.032 C 
ENDBRANCH  27  32
ENDBRANCH  22  23
ENDBRANCH  19  22
ENDBRANCH   1  18
TORSDOF 4
ENDMDL
MODEL 2
REMARK VINA RESULT:      -9.3      2.538      3.057
REMARK  4 active torsions:
REMARK  status: ('A' for Active; 'I' for Inactive)
REMARK    1  A    between atoms: C_2  and  N_3 
REMARK    2  A    between atoms: C_10  and  C_11 
REMARK    3  A    between atoms: C_11  and  C_12 
REMARK       I    between atoms: C_12  and  N_13 
REMARK    4  A    between atoms: N_13  and  C_14 
ROOT
HETATM    1  C   UNL     1     -43.050  55.972 -58.293  1.00  0.00     0.035 A 
HETATM    2  C   UNL     1     -43.421  57.208 -58.822  1.00  0.00     0.049 A 
HETATM    3  C   UNL     1     -44.474  57.323 -59.755  1.00  0.00     0.061 A 
HETATM    4  C   UNL     1     -45.167  56.177 -60.165  1.00  0.00     0.050 A 
HETATM    5  N   UNL     1     -46.302  56.145 -60.994  1.00  0.00    -0.324 N 
HETATM    6  C   UNL     1     -47.291  57.085 -61.113  1.00  0.00     0.245 C 
HETATM    7  O   UNL     1     -48.310  56.776 -61.737  1.00  0.00    -0.271 OA
HETATM    8  C   UNL     1     -47.175  58.375 -60.302  1.00  0.00     0.180 C 
HETATM    9  N   UNL     1     -45.953  59.082 -60.645  1.00  0.00    -0.334 N 
HETATM   10  C   UNL     1     -44.679  58.677 -60.332  1.00  0.00     0.256 C 
HETATM   11  O   UNL     1     -43.702  59.402 -60.506  1.00  0.00    -0.267 OA
HETATM   12  C   UNL     1     -48.296  59.374 -60.616  1.00  0.00     0.037 C 
HETATM   13  C   UNL     1     -47.606  60.729 -60.518  1.00  0.00     0.022 C 
HETATM   14  C   UNL     1     -46.226  60.440 -61.082  1.00  0.00     0.127 C 
HETATM   15  C   UNL     1     -44.719  54.927 -59.712  1.00  0.00     0.033 A 
HETATM   16  C   UNL     1     -43.683  54.826 -58.777  1.00  0.00     0.032 A 
HETATM   17  H   UNL     1     -46.579  55.257 -61.397  1.00  0.00     0.169 HD
ENDROOT
BRANCH   1  18
HETATM   18  N   UNL     1     -42.119  55.803 -57.247  1.00  0.00    -0.327 N 
HETATM   19  C   UNL     1     -42.217  54.938 -56.169  1.00  0.00     0.226 C 
HETATM   20  O   UNL     1     -43.235  54.343 -55.822  1.00  0.00    -0.273 OA
HETATM   21  H   UNL     1     -41.265  56.347 -57.306  1.00  0.00     0.169 HD
BRANCH  19  22
HETATM   22  C   UNL     1     -40.889  54.623 -55.500  1.00  0.00     0.144 C 
BRANCH  22  23
HETATM   23  C   UNL     1     -40.942  54.475 -54.014  1.00  0.00    -0.021 A 
HETATM   24  C   UNL     1     -40.491  53.361 -53.238  1.00  0.00    -0.001 A 
HETATM   25  C   UNL     1     -40.824  53.611 -51.902  1.00  0.00     0.045 A 
HETATM   26  C   UNL     1     -39.842  52.149 -53.561  1.00  0.00     0.014 A 
HETATM   27  N   UNL     1     -41.483  54.826 -51.870  1.00  0.00    -0.351 N 
HETATM   28  C   UNL     1     -40.514  52.695 -50.882  1.00  0.00     0.030 A 
HETATM   29  C   UNL     1     -41.509  55.371 -53.131  1.00  0.00     0.100 A 
HETATM   30  C   UNL     1     -39.863  51.508 -51.228  1.00  0.00     0.002 A 
HETATM   31  C   UNL     1     -39.533  51.235 -52.550  1.00  0.00     0.001 A 
BRANCH  27  32
HETATM   32  C   UNL     1     -42.122  55.428 -50.698  1.00  0.00     0.081 C 
HETATM   33  C   UNL     1     -43.595  55.752 -50.958  1.00  0.00     0.032 C 
HETATM   34  C   UNL     1     -41.357  56.658 -50.210  1.00  0.00     0.032 C 
ENDBRANCH  27  32
ENDBRANCH  22  23
ENDBRANCH  19  22
ENDBRANCH   1  18
TORSDOF 4
ENDMDL
MODEL 3
REMARK VINA RESULT:      -9.2      3.854      5.237
REMARK  4 active torsions:
REMARK  status: ('A' for Active; 'I' for Inactive)
REMARK    1  A    between atoms: C_2  and  N_3 
REMARK    2  A    between atoms: C_10  and  C_11 
REMARK    3  A    between atoms: C_11  and  C_12 
REMARK       I    between atoms: C_12  and  N_13 
REMARK    4  A    between atoms: N_13  and  C_14 
ROOT
HETATM    1  C   UNL     1     -43.030  56.580 -53.988  1.00  0.00     0.035 A 
HETATM    2  C   UNL     1     -42.675  57.619 -53.126  1.00  0.00     0.049 A 
HETATM    3  C   UNL     1     -43.543  58.707 -52.889  1.00  0.00     0.061 A 
HETATM    4  C   UNL     1     -44.788  58.754 -53.529  1.00  0.00     0.050 A 
HETATM    5  N   UNL     1     -45.799  59.706 -53.308  1.00  0.00    -0.324 N 
HETATM    6  C   UNL     1     -46.092  60.379 -52.153  1.00  0.00     0.245 C 
HETATM    7  O   UNL     1     -47.148  61.015 -52.106  1.00  0.00    -0.271 OA
HETATM    8  C   UNL     1     -45.212  60.143 -50.926  1.00  0.00     0.180 C 
HETATM    9  N   UNL     1     -43.831  60.493 -51.216  1.00  0.00    -0.334 N 
HETATM   10  C   UNL     1     -42.989  59.802 -52.052  1.00  0.00     0.256 C 
HETATM   11  O   UNL     1     -41.789  60.056 -52.125  1.00  0.00    -0.267 OA
HETATM   12  C   UNL     1     -45.593  61.041 -49.742  1.00  0.00     0.037 C 
HETATM   13  C   UNL     1     -44.255  61.357 -49.087  1.00  0.00     0.022 C 
HETATM   14  C   UNL     1     -43.322  61.478 -50.278  1.00  0.00     0.127 C 
HETATM   15  C   UNL     1     -45.092  57.763 -54.474  1.00  0.00     0.033 A 
HETATM   16  C   UNL     1     -44.231  56.682 -54.691  1.00  0.00     0.032 A 
HETATM   17  H   UNL     1     -46.556  59.768 -53.981  1.00  0.00     0.169 HD
ENDROOT
BRANCH   1  18
HETATM   18  N   UNL     1     -42.284  55.393 -54.149  1.00  0.00    -0.327 N 
HETATM   19  C   UNL     1     -41.783  54.874 -55.331  1.00  0.00     0.226 C 
HETATM   20  O   UNL     1     -42.100  55.235 -56.462  1.00  0.00    -0.273 OA
HETATM   21  H   UNL     1     -42.057  54.881 -53.303  1.00  0.00     0.169 HD
BRANCH  19  22
HETATM   22  C   UNL     1     -40.639  53.889 -55.143  1.00  0.00     0.144 C 
BRANCH  22  23
HETATM   23  C   UNL     1     -40.442  53.397 -53.746  1.00  0.00    -0.021 A 
HETATM   24  C   UNL     1     -40.125  52.065 -53.334  1.00  0.00    -0.001 A 
HETATM   25  C   UNL     1     -40.131  52.039 -51.935  1.00  0.00     0.045 A 
HETATM   26  C   UNL     1     -39.849  50.869 -54.034  1.00  0.00     0.014 A 
HETATM   27  N   UNL     1     -40.471  53.310 -51.509  1.00  0.00    -0.351 N 
HETATM   28  C   UNL     1     -39.856  50.862 -51.218  1.00  0.00     0.030 A 
HETATM   29  C   UNL     1     -40.608  54.140 -52.596  1.00  0.00     0.100 A 
HETATM   30  C   UNL     1     -39.577  49.696 -51.936  1.00  0.00     0.002 A 
HETATM   31  C   UNL     1     -39.576  49.696 -53.325  1.00  0.00     0.001 A 
BRANCH  27  32
HETATM   32  C   UNL     1     -40.718  53.717 -50.124  1.00  0.00     0.081 C 
HETATM   33  C   UNL     1     -41.876  54.713 -50.023  1.00  0.00     0.032 C 
HETATM   34  C   UNL     1     -39.453  54.262 -49.464  1.00  0.00     0.032 C 
ENDBRANCH  27  32
ENDBRANCH  22  23
ENDBRANCH  19  22
ENDBRANCH   1  18
TORSDOF 4
ENDMDL
MODEL 4
REMARK VINA RESULT:      -9.2      1.707      2.213
REMARK  4 active torsions:
REMARK  status: ('A' for Active; 'I' for Inactive)
REMARK    1  A    between atoms: C_2  and  N_3 
REMARK    2  A    between atoms: C_10  and  C_11 
REMARK    3  A    between atoms: C_11  and  C_12 
REMARK       I    between atoms: C_12  and  N_13 
REMARK    4  A    between atoms: N_13  and  C_14 
ROOT
HETATM    1  C   UNL     1     -43.125  56.173 -57.807  1.00  0.00     0.035 A 
HETATM    2  C   UNL     1     -42.756  57.509 -57.644  1.00  0.00     0.049 A 
HETATM    3  C   UNL     1     -42.841  58.431 -58.709  1.00  0.00     0.061 A 
HETATM    4  C   UNL     1     -43.304  58.006 -59.961  1.00  0.00     0.050 A 
HETATM    5  N   UNL     1     -43.550  58.825 -61.076  1.00  0.00    -0.324 N 
HETATM    6  C   UNL     1     -43.958  60.132 -61.096  1.00  0.00     0.245 C 
HETATM    7  O   UNL     1     -44.321  60.608 -62.174  1.00  0.00    -0.271 OA
HETATM    8  C   UNL     1     -44.141  60.860 -59.765  1.00  0.00     0.180 C 
HETATM    9  N   UNL     1     -42.893  60.875 -59.019  1.00  0.00    -0.334 N 
HETATM   10  C   UNL     1     -42.298  59.787 -58.433  1.00  0.00     0.256 C 
HETATM   11  O   UNL     1     -41.334  59.897 -57.679  1.00  0.00    -0.267 OA
HETATM   12  C   UNL     1     -44.497  62.341 -59.944  1.00  0.00     0.037 C 
HETATM   13  C   UNL     1     -43.780  63.025 -58.788  1.00  0.00     0.022 C 
HETATM   14  C   UNL     1     -42.492  62.229 -58.678  1.00  0.00     0.127 C 
HETATM   15  C   UNL     1     -43.570  56.641 -60.146  1.00  0.00     0.033 A 
HETATM   16  C   UNL     1     -43.495  55.739 -59.080  1.00  0.00     0.032 A 
HETATM   17  H   UNL     1     -43.667  58.382 -61.981  1.00  0.00     0.169 HD
ENDROOT
BRANCH   1  18
HETATM   18  N   UNL     1     -43.214  55.240 -56.753  1.00  0.00    -0.327 N 
HETATM   19  C   UNL     1     -42.406  55.165 -55.630  1.00  0.00     0.226 C 
HETATM   20  O   UNL     1     -41.337  55.753 -55.479  1.00  0.00    -0.273 OA
HETATM   21  H   UNL     1     -43.975  54.571 -56.801  1.00  0.00     0.169 HD
BRANCH  19  22
HETATM   22  C   UNL     1     -43.023  54.404 -54.467  1.00  0.00     0.144 C 
BRANCH  22  23
HETATM   23  C   UNL     1     -42.066  53.980 -53.401  1.00  0.00    -0.021 A 
HETATM   24  C   UNL     1     -41.176  52.861 -53.433  1.00  0.00    -0.001 A 
HETATM   25  C   UNL     1     -40.540  52.789 -52.188  1.00  0.00     0.045 A 
HETATM   26  C   UNL     1     -40.868  51.888 -54.410  1.00  0.00     0.014 A 
HETATM   27  N   UNL     1     -41.050  53.814 -51.414  1.00  0.00    -0.351 N 
HETATM   28  C   UNL     1     -39.598  51.786 -51.899  1.00  0.00     0.030 A 
HETATM   29  C   UNL     1     -41.929  54.563 -52.158  1.00  0.00     0.100 A 
HETATM   30  C   UNL     1     -39.306  50.842 -52.887  1.00  0.00     0.002 A 
HETATM   31  C   UNL     1     -39.933  50.890 -54.127  1.00  0.00     0.001 A 
BRANCH  27  32
HETATM   32  C   UNL     1     -40.763  54.048 -49.997  1.00  0.00     0.081 C 
HETATM   33  C   UNL     1     -41.671  55.129 -49.404  1.00  0.00     0.032 C 
HETATM   34  C   UNL     1     -39.287  54.370 -49.767  1.00  0.00     0.032 C 
ENDBRANCH  27  32
ENDBRANCH  22  23
ENDBRANCH  19  22
ENDBRANCH   1  18
TORSDOF 4
ENDMDL
MODEL 5
REMARK VINA RESULT:      -9.1      1.696      3.279
REMARK  4 active torsions:
REMARK  status: ('A' for Active; 'I' for Inactive)
REMARK    1  A    between atoms: C_2  and  N_3 
REMARK    2  A    between atoms: C_10  and  C_11 
REMARK    3  A    between atoms: C_11  and  C_12 
REMARK       I    between atoms: C_12  and  N_13 
REMARK    4  A    between atoms: N_13  and  C_14 
ROOT
HETATM    1  C   UNL     1     -43.129  56.243 -57.643  1.00  0.00     0.035 A 
HETATM    2  C   UNL     1     -42.760  57.583 -57.515  1.00  0.00     0.049 A 
HETATM    3  C   UNL     1     -42.842  58.476 -58.606  1.00  0.00     0.061 A 
HETATM    4  C   UNL     1     -43.301  58.016 -59.846  1.00  0.00     0.050 A 
HETATM    5  N   UNL     1     -43.544  58.805 -60.985  1.00  0.00    -0.324 N 
HETATM    6  C   UNL     1     -43.952  60.111 -61.041  1.00  0.00     0.245 C 
HETATM    7  O   UNL     1     -44.311  60.558 -62.133  1.00  0.00    -0.271 OA
HETATM    8  C   UNL     1     -44.137  60.875 -59.731  1.00  0.00     0.180 C 
HETATM    9  N   UNL     1     -42.891  60.910 -58.983  1.00  0.00    -0.334 N 
HETATM   10  C   UNL     1     -42.298  59.838 -58.365  1.00  0.00     0.256 C 
HETATM   11  O   UNL     1     -41.335  59.967 -57.613  1.00  0.00    -0.267 OA
HETATM   12  C   UNL     1     -44.492  62.351 -59.952  1.00  0.00     0.037 C 
HETATM   13  C   UNL     1     -43.777  63.066 -58.813  1.00  0.00     0.022 C 
HETATM   14  C   UNL     1     -42.490  62.272 -58.678  1.00  0.00     0.127 C 
HETATM   15  C   UNL     1     -43.568  56.648 -59.996  1.00  0.00     0.033 A 
HETATM   16  C   UNL     1     -43.497  55.774 -58.905  1.00  0.00     0.032 A 
HETATM   17  H   UNL     1     -43.659  58.337 -61.878  1.00  0.00     0.169 HD
ENDROOT
BRANCH   1  18
HETATM   18  N   UNL     1     -43.221  55.339 -56.564  1.00  0.00    -0.327 N 
HETATM   19  C   UNL     1     -42.343  55.213 -55.500  1.00  0.00     0.226 C 
HETATM   20  O   UNL     1     -41.219  55.706 -55.439  1.00  0.00    -0.273 OA
HETATM   21  H   UNL     1     -44.038  54.739 -56.543  1.00  0.00     0.169 HD
BRANCH  19  22
HETATM   22  C   UNL     1     -42.937  54.528 -54.279  1.00  0.00     0.144 C 
BRANCH  22  23
HETATM   23  C   UNL     1     -41.954  53.837 -53.392  1.00  0.00    -0.021 A 
HETATM   24  C   UNL     1     -41.446  54.299 -52.137  1.00  0.00    -0.001 A 
HETATM   25  C   UNL     1     -40.480  53.383 -51.706  1.00  0.00     0.045 A 
HETATM   26  C   UNL     1     -41.713  55.432 -51.336  1.00  0.00     0.014 A 
HETATM   27  N   UNL     1     -40.382  52.409 -52.683  1.00  0.00    -0.351 N 
HETATM   28  C   UNL     1     -39.787  53.557 -50.495  1.00  0.00     0.030 A 
HETATM   29  C   UNL     1     -41.304  52.653 -53.673  1.00  0.00     0.100 A 
HETATM   30  C   UNL     1     -40.078  54.681 -49.719  1.00  0.00     0.002 A 
HETATM   31  C   UNL     1     -41.026  55.609 -50.132  1.00  0.00     0.001 A 
BRANCH  27  32
HETATM   32  C   UNL     1     -39.410  51.315 -52.714  1.00  0.00     0.081 C 
HETATM   33  C   UNL     1     -39.518  50.496 -54.003  1.00  0.00     0.032 C 
HETATM   34  C   UNL     1     -39.522  50.426 -51.476  1.00  0.00     0.032 C 
ENDBRANCH  27  32
ENDBRANCH  22  23
ENDBRANCH  19  22
ENDBRANCH   1  18
TORSDOF 4
ENDMDL
MODEL 6
REMARK VINA RESULT:      -9.1      2.580      4.377
REMARK  4 active torsions:
REMARK  status: ('A' for Active; 'I' for Inactive)
REMARK    1  A    between atoms: C_2  and  N_3 
REMARK    2  A    between atoms: C_10  and  C_11 
REMARK    3  A    between atoms: C_11  and  C_12 
REMARK       I    between atoms: C_12  and  N_13 
REMARK    4  A    between atoms: N_13  and  C_14 
ROOT
HETATM    1  C   UNL     1     -43.661  57.334 -51.551  1.00  0.00     0.035 A 
HETATM    2  C   UNL     1     -43.579  57.393 -52.943  1.00  0.00     0.049 A 
HETATM    3  C   UNL     1     -44.358  58.304 -53.688  1.00  0.00     0.061 A 
HETATM    4  C   UNL     1     -45.235  59.172 -53.024  1.00  0.00     0.050 A 
HETATM    5  N   UNL     1     -45.986  60.203 -53.615  1.00  0.00    -0.324 N 
HETATM    6  C   UNL     1     -45.668  60.965 -54.708  1.00  0.00     0.245 C 
HETATM    7  O   UNL     1     -46.360  61.959 -54.941  1.00  0.00    -0.271 OA
HETATM    8  C   UNL     1     -44.366  60.669 -55.451  1.00  0.00     0.180 C 
HETATM    9  N   UNL     1     -44.361  59.301 -55.941  1.00  0.00    -0.334 N 
HETATM   10  C   UNL     1     -44.267  58.173 -55.165  1.00  0.00     0.256 C 
HETATM   11  O   UNL     1     -44.101  57.057 -55.652  1.00  0.00    -0.267 OA
HETATM   12  C   UNL     1     -44.195  61.527 -56.711  1.00  0.00     0.037 C 
HETATM   13  C   UNL     1     -43.503  60.590 -57.692  1.00  0.00     0.022 C 
HETATM   14  C   UNL     1     -44.141  59.249 -57.376  1.00  0.00     0.127 C 
HETATM   15  C   UNL     1     -45.391  59.034 -51.638  1.00  0.00     0.033 A 
HETATM   16  C   UNL     1     -44.605  58.136 -50.908  1.00  0.00     0.032 A 
HETATM   17  H   UNL     1     -46.743  60.614 -53.080  1.00  0.00     0.169 HD
ENDROOT
BRANCH   1  18
HETATM   18  N   UNL     1     -42.805  56.563 -50.737  1.00  0.00    -0.327 N 
HETATM   19  C   UNL     1     -42.898  55.206 -50.474  1.00  0.00     0.226 C 
HETATM   20  O   UNL     1     -43.871  54.496 -50.717  1.00  0.00    -0.273 OA
HETATM   21  H   UNL     1     -42.011  57.044 -50.328  1.00  0.00     0.169 HD
BRANCH  19  22
HETATM   22  C   UNL     1     -41.602  54.575 -49.989  1.00  0.00     0.144 C 
BRANCH  22  23
HETATM   23  C   UNL     1     -40.912  53.693 -50.979  1.00  0.00    -0.021 A 
HETATM   24  C   UNL     1     -40.771  53.914 -52.385  1.00  0.00    -0.001 A 
HETATM   25  C   UNL     1     -40.142  52.790 -52.931  1.00  0.00     0.045 A 
HETATM   26  C   UNL     1     -41.144  54.970 -53.247  1.00  0.00     0.014 A 
HETATM   27  N   UNL     1     -39.933  51.900 -51.894  1.00  0.00    -0.351 N 
HETATM   28  C   UNL     1     -39.861  52.697 -54.306  1.00  0.00     0.030 A 
HETATM   29  C   UNL     1     -40.348  52.463 -50.711  1.00  0.00     0.100 A 
HETATM   30  C   UNL     1     -40.232  53.761 -55.133  1.00  0.00     0.002 A 
HETATM   31  C   UNL     1     -40.867  54.882 -54.613  1.00  0.00     0.001 A 
BRANCH  27  32
HETATM   32  C   UNL     1     -39.412  50.537 -52.021  1.00  0.00     0.081 C 
HETATM   33  C   UNL     1     -39.901  49.860 -53.304  1.00  0.00     0.032 C 
HETATM   34  C   UNL     1     -39.732  49.695 -50.787  1.00  0.00     0.032 C 
ENDBRANCH  27  32
ENDBRANCH  22  23
ENDBRANCH  19  22
ENDBRANCH   1  18
TORSDOF 4
ENDMDL
MODEL 7
REMARK VINA RESULT:      -9.0      2.395      3.712
REMARK  4 active torsions:
REMARK  status: ('A' for Active; 'I' for Inactive)
REMARK    1  A    between atoms: C_2  and  N_3 
REMARK    2  A    between atoms: C_10  and  C_11 
REMARK    3  A    between atoms: C_11  and  C_12 
REMARK       I    between atoms: C_12  and  N_13 
REMARK    4  A    between atoms: N_13  and  C_14 
ROOT
HETATM    1  C   UNL     1     -42.877  56.301 -57.787  1.00  0.00     0.035 A 
HETATM    2  C   UNL     1     -43.326  57.455 -58.429  1.00  0.00     0.049 A 
HETATM    3  C   UNL     1     -44.251  57.392 -59.493  1.00  0.00     0.061 A 
HETATM    4  C   UNL     1     -44.733  56.148 -59.921  1.00  0.00     0.050 A 
HETATM    5  N   UNL     1     -45.735  55.934 -60.884  1.00  0.00    -0.324 N 
HETATM    6  C   UNL     1     -46.810  56.729 -61.181  1.00  0.00     0.245 C 
HETATM    7  O   UNL     1     -47.689  56.263 -61.911  1.00  0.00    -0.271 OA
HETATM    8  C   UNL     1     -46.966  58.054 -60.438  1.00  0.00     0.180 C 
HETATM    9  N   UNL     1     -45.807  58.903 -60.664  1.00  0.00    -0.334 N 
HETATM   10  C   UNL     1     -44.546  58.682 -60.169  1.00  0.00     0.256 C 
HETATM   11  O   UNL     1     -43.653  59.522 -60.258  1.00  0.00    -0.267 OA
HETATM   12  C   UNL     1     -48.151  58.884 -60.949  1.00  0.00     0.037 C 
HETATM   13  C   UNL     1     -47.656  60.320 -60.843  1.00  0.00     0.022 C 
HETATM   14  C   UNL     1     -46.188  60.194 -61.209  1.00  0.00     0.127 C 
HETATM   15  C   UNL     1     -44.197  54.988 -59.343  1.00  0.00     0.033 A 
HETATM   16  C   UNL     1     -43.290  55.063 -58.280  1.00  0.00     0.032 A 
HETATM   17  H   UNL     1     -45.841  55.001 -61.267  1.00  0.00     0.169 HD
ENDROOT
BRANCH   1  18
HETATM   18  N   UNL     1     -42.079  56.300 -56.623  1.00  0.00    -0.327 N 
HETATM   19  C   UNL     1     -42.071  55.350 -55.614  1.00  0.00     0.226 C 
HETATM   20  O   UNL     1     -42.918  54.474 -55.451  1.00  0.00    -0.273 OA
HETATM   21  H   UNL     1     -41.411  57.057 -56.529  1.00  0.00     0.169 HD
BRANCH  19  22
HETATM   22  C   UNL     1     -40.806  55.348 -54.771  1.00  0.00     0.144 C 
BRANCH  22  23
HETATM   23  C   UNL     1     -40.596  54.126 -53.936  1.00  0.00    -0.021 A 
HETATM   24  C   UNL     1     -40.653  54.031 -52.510  1.00  0.00    -0.001 A 
HETATM   25  C   UNL     1     -40.299  52.724 -52.157  1.00  0.00     0.045 A 
HETATM   26  C   UNL     1     -40.958  54.953 -51.485  1.00  0.00     0.014 A 
HETATM   27  N   UNL     1     -40.008  52.053 -53.330  1.00  0.00    -0.351 N 
HETATM   28  C   UNL     1     -40.257  52.310 -50.814  1.00  0.00     0.030 A 
HETATM   29  C   UNL     1     -40.236  52.879 -54.404  1.00  0.00     0.100 A 
HETATM   30  C   UNL     1     -40.573  53.240 -49.820  1.00  0.00     0.002 A 
HETATM   31  C   UNL     1     -40.918  54.546 -50.149  1.00  0.00     0.001 A 
BRANCH  27  32
HETATM   32  C   UNL     1     -39.474  50.693 -53.434  1.00  0.00     0.081 C 
HETATM   33  C   UNL     1     -40.085  49.933 -54.614  1.00  0.00     0.032 C 
HETATM   34  C   UNL     1     -39.639  49.922 -52.125  1.00  0.00     0.032 C 
ENDBRANCH  27  32
ENDBRANCH  22  23
ENDBRANCH  19  22
ENDBRANCH   1  18
TORSDOF 4
ENDMDL
MODEL 8
REMARK VINA RESULT:      -8.9      3.577      5.441
REMARK  4 active torsions:
REMARK  status: ('A' for Active; 'I' for Inactive)
REMARK    1  A    between atoms: C_2  and  N_3 
REMARK    2  A    between atoms: C_10  and  C_11 
REMARK    3  A    between atoms: C_11  and  C_12 
REMARK       I    between atoms: C_12  and  N_13 
REMARK    4  A    between atoms: N_13  and  C_14 
ROOT
HETATM    1  C   UNL     1     -41.228  57.446 -50.592  1.00  0.00     0.035 A 
HETATM    2  C   UNL     1     -42.272  57.529 -51.514  1.00  0.00     0.049 A 
HETATM    3  C   UNL     1     -42.834  58.771 -51.879  1.00  0.00     0.061 A 
HETATM    4  C   UNL     1     -42.341  59.951 -51.307  1.00  0.00     0.050 A 
HETATM    5  N   UNL     1     -42.719  61.261 -51.652  1.00  0.00    -0.324 N 
HETATM    6  C   UNL     1     -43.130  61.732 -52.870  1.00  0.00     0.245 C 
HETATM    7  O   UNL     1     -43.214  62.954 -53.020  1.00  0.00    -0.271 OA
HETATM    8  C   UNL     1     -43.261  60.745 -54.029  1.00  0.00     0.180 C 
HETATM    9  N   UNL     1     -44.213  59.697 -53.699  1.00  0.00    -0.334 N 
HETATM   10  C   UNL     1     -44.021  58.705 -52.771  1.00  0.00     0.256 C 
HETATM   11  O   UNL     1     -44.794  57.757 -52.659  1.00  0.00    -0.267 OA
HETATM   12  C   UNL     1     -43.830  61.393 -55.298  1.00  0.00     0.037 C 
HETATM   13  C   UNL     1     -44.688  60.293 -55.909  1.00  0.00     0.022 C 
HETATM   14  C   UNL     1     -45.276  59.612 -54.685  1.00  0.00     0.127 C 
HETATM   15  C   UNL     1     -41.366  59.852 -50.304  1.00  0.00     0.033 A 
HETATM   16  C   UNL     1     -40.807  58.616 -49.960  1.00  0.00     0.032 A 
HETATM   17  H   UNL     1     -42.462  62.016 -51.025  1.00  0.00     0.169 HD
ENDROOT
BRANCH   1  18
HETATM   18  N   UNL     1     -40.518  56.262 -50.302  1.00  0.00    -0.327 N 
HETATM   19  C   UNL     1     -40.998  55.136 -49.652  1.00  0.00     0.226 C 
HETATM   20  O   UNL     1     -42.048  55.072 -49.017  1.00  0.00    -0.273 OA
HETATM   21  H   UNL     1     -39.562  56.211 -50.637  1.00  0.00     0.169 HD
BRANCH  19  22
HETATM   22  C   UNL     1     -40.192  53.874 -49.914  1.00  0.00     0.144 C 
BRANCH  22  23
HETATM   23  C   UNL     1     -40.375  53.269 -51.268  1.00  0.00    -0.021 A 
HETATM   24  C   UNL     1     -40.060  51.932 -51.668  1.00  0.00    -0.001 A 
HETATM   25  C   UNL     1     -40.302  51.832 -53.043  1.00  0.00     0.045 A 
HETATM   26  C   UNL     1     -39.569  50.800 -50.980  1.00  0.00     0.014 A 
HETATM   27  N   UNL     1     -40.724  53.077 -53.471  1.00  0.00    -0.351 N 
HETATM   28  C   UNL     1     -40.085  50.633 -53.744  1.00  0.00     0.030 A 
HETATM   29  C   UNL     1     -40.817  53.928 -52.396  1.00  0.00     0.100 A 
HETATM   30  C   UNL     1     -39.609  49.526 -53.036  1.00  0.00     0.002 A 
HETATM   31  C   UNL     1     -39.352  49.606 -51.673  1.00  0.00     0.001 A 
BRANCH  27  32
HETATM   32  C   UNL     1     -40.975  53.471 -54.858  1.00  0.00     0.081 C 
HETATM   33  C   UNL     1     -39.959  54.508 -55.346  1.00  0.00     0.032 C 
HETATM   34  C   UNL     1     -42.410  53.957 -55.055  1.00  0.00     0.032 C 
ENDBRANCH  27  32
ENDBRANCH  22  23
ENDBRANCH  19  22
ENDBRANCH   1  18
TORSDOF 4
ENDMDL
MODEL 9
REMARK VINA RESULT:      -8.8      1.978      3.061
REMARK  4 active torsions:
REMARK  status: ('A' for Active; 'I' for Inactive)
REMARK    1  A    between atoms: C_2  and  N_3 
REMARK    2  A    between atoms: C_10  and  C_11 
REMARK    3  A    between atoms: C_11  and  C_12 
REMARK       I    between atoms: C_12  and  N_13 
REMARK    4  A    between atoms: N_13  and  C_14 
ROOT
HETATM    1  C   UNL     1     -43.672  56.651 -58.091  1.00  0.00     0.035 A 
HETATM    2  C   UNL     1     -44.621  57.633 -57.805  1.00  0.00     0.049 A 
HETATM    3  C   UNL     1     -44.923  58.656 -58.729  1.00  0.00     0.061 A 
HETATM    4  C   UNL     1     -44.260  58.695 -59.962  1.00  0.00     0.050 A 
HETATM    5  N   UNL     1     -44.531  59.578 -61.022  1.00  0.00    -0.324 N 
HETATM    6  C   UNL     1     -45.729  60.143 -61.370  1.00  0.00     0.245 C 
HETATM    7  O   UNL     1     -45.802  60.722 -62.456  1.00  0.00    -0.271 OA
HETATM    8  C   UNL     1     -46.954  59.850 -60.504  1.00  0.00     0.180 C 
HETATM    9  N   UNL     1     -46.724  60.287 -59.136  1.00  0.00    -0.334 N 
HETATM   10  C   UNL     1     -45.857  59.706 -58.245  1.00  0.00     0.256 C 
HETATM   11  O   UNL     1     -45.832  60.020 -57.058  1.00  0.00    -0.267 OA
HETATM   12  C   UNL     1     -48.196  60.632 -60.951  1.00  0.00     0.037 C 
HETATM   13  C   UNL     1     -48.905  60.957 -59.643  1.00  0.00     0.022 C 
HETATM   14  C   UNL     1     -47.749  61.216 -58.693  1.00  0.00     0.127 C 
HETATM   15  C   UNL     1     -43.233  57.770 -60.199  1.00  0.00     0.033 A 
HETATM   16  C   UNL     1     -42.951  56.752 -59.282  1.00  0.00     0.032 A 
HETATM   17  H   UNL     1     -43.849  59.659 -61.768  1.00  0.00     0.169 HD
ENDROOT
BRANCH   1  18
HETATM   18  N   UNL     1     -43.435  55.517 -57.286  1.00  0.00    -0.327 N 
HETATM   19  C   UNL     1     -42.581  55.426 -56.198  1.00  0.00     0.226 C 
HETATM   20  O   UNL     1     -41.718  56.247 -55.897  1.00  0.00    -0.273 OA
HETATM   21  H   UNL     1     -43.974  54.685 -57.501  1.00  0.00     0.169 HD
BRANCH  19  22
HETATM   22  C   UNL     1     -42.894  54.274 -55.256  1.00  0.00     0.144 C 
BRANCH  22  23
HETATM   23  C   UNL     1     -42.037  54.198 -54.034  1.00  0.00    -0.021 A 
HETATM   24  C   UNL     1     -41.150  53.139 -53.663  1.00  0.00    -0.001 A 
HETATM   25  C   UNL     1     -40.628  53.443 -52.401  1.00  0.00     0.045 A 
HETATM   26  C   UNL     1     -40.759  51.933 -54.287  1.00  0.00     0.014 A 
HETATM   27  N   UNL     1     -41.202  54.636 -52.004  1.00  0.00    -0.351 N 
HETATM   28  C   UNL     1     -39.718  52.588 -51.754  1.00  0.00     0.030 A 
HETATM   29  C   UNL     1     -42.009  55.117 -53.006  1.00  0.00     0.100 A 
HETATM   30  C   UNL     1     -39.342  51.407 -52.399  1.00  0.00     0.002 A 
HETATM   31  C   UNL     1     -39.856  51.080 -53.648  1.00  0.00     0.001 A 
BRANCH  27  32
HETATM   32  C   UNL     1     -41.042  55.275 -50.696  1.00  0.00     0.081 C 
HETATM   33  C   UNL     1     -41.876  54.578 -49.618  1.00  0.00     0.032 C 
HETATM   34  C   UNL     1     -41.347  56.771 -50.758  1.00  0.00     0.032 C 
ENDBRANCH  27  32
ENDBRANCH  22  23
ENDBRANCH  19  22
ENDBRANCH   1  18
TORSDOF 4
ENDMDL
MODEL 10
REMARK VINA RESULT:      -8.7      2.182      3.949
REMARK  4 active torsions:
REMARK  status: ('A' for Active; 'I' for Inactive)
REMARK    1  A    between atoms: C_2  and  N_3 
REMARK    2  A    between atoms: C_10  and  C_11 
REMARK    3  A    between atoms: C_11  and  C_12 
REMARK       I    between atoms: C_12  and  N_13 
REMARK    4  A    between atoms: N_13  and  C_14 
ROOT
HETATM    1  C   UNL     1     -42.917  56.709 -57.489  1.00  0.00     0.035 A 
HETATM    2  C   UNL     1     -42.595  58.058 -57.332  1.00  0.00     0.049 A 
HETATM    3  C   UNL     1     -42.233  58.861 -58.435  1.00  0.00     0.061 A 
HETATM    4  C   UNL     1     -42.191  58.301 -59.718  1.00  0.00     0.050 A 
HETATM    5  N   UNL     1     -41.960  58.994 -60.918  1.00  0.00    -0.324 N 
HETATM    6  C   UNL     1     -42.286  60.288 -61.227  1.00  0.00     0.245 C 
HETATM    7  O   UNL     1     -42.189  60.644 -62.404  1.00  0.00    -0.271 OA
HETATM    8  C   UNL     1     -42.943  61.152 -60.151  1.00  0.00     0.180 C 
HETATM    9  N   UNL     1     -42.079  61.258 -58.987  1.00  0.00    -0.334 N 
HETATM   10  C   UNL     1     -41.793  60.243 -58.109  1.00  0.00     0.256 C 
HETATM   11  O   UNL     1     -41.191  60.440 -57.056  1.00  0.00    -0.267 OA
HETATM   12  C   UNL     1     -43.153  62.603 -60.604  1.00  0.00     0.037 C 
HETATM   13  C   UNL     1     -42.915  63.412 -59.336  1.00  0.00     0.022 C 
HETATM   14  C   UNL     1     -41.796  62.643 -58.656  1.00  0.00     0.127 C 
HETATM   15  C   UNL     1     -42.410  56.922 -59.853  1.00  0.00     0.033 A 
HETATM   16  C   UNL     1     -42.782  56.139 -58.755  1.00  0.00     0.032 A 
HETATM   17  H   UNL     1     -41.734  58.457 -61.749  1.00  0.00     0.169 HD
ENDROOT
BRANCH   1  18
HETATM   18  N   UNL     1     -43.436  55.892 -56.463  1.00  0.00    -0.327 N 
HETATM   19  C   UNL     1     -42.737  54.995 -55.672  1.00  0.00     0.226 C 
HETATM   20  O   UNL     1     -41.596  54.592 -55.888  1.00  0.00    -0.273 OA
HETATM   21  H   UNL     1     -44.423  55.998 -56.253  1.00  0.00     0.169 HD
BRANCH  19  22
HETATM   22  C   UNL     1     -43.433  54.639 -54.368  1.00  0.00     0.144 C 
BRANCH  22  23
HETATM   23  C   UNL     1     -42.620  54.851 -53.132  1.00  0.00    -0.021 A 
HETATM   24  C   UNL     1     -42.333  56.095 -52.488  1.00  0.00    -0.001 A 
HETATM   25  C   UNL     1     -41.462  55.833 -51.425  1.00  0.00     0.045 A 
HETATM   26  C   UNL     1     -42.727  57.430 -52.729  1.00  0.00     0.014 A 
HETATM   27  N   UNL     1     -41.203  54.474 -51.441  1.00  0.00    -0.351 N 
HETATM   28  C   UNL     1     -40.987  56.859 -50.590  1.00  0.00     0.030 A 
HETATM   29  C   UNL     1     -41.939  53.875 -52.434  1.00  0.00     0.100 A 
HETATM   30  C   UNL     1     -41.400  58.169 -50.846  1.00  0.00     0.002 A 
HETATM   31  C   UNL     1     -42.257  58.454 -51.903  1.00  0.00     0.001 A 
BRANCH  27  32
HETATM   32  C   UNL     1     -40.246  53.770 -50.584  1.00  0.00     0.081 C 
HETATM   33  C   UNL     1     -39.851  52.413 -51.172  1.00  0.00     0.032 C 
HETATM   34  C   UNL     1     -40.767  53.630 -49.155  1.00  0.00     0.032 C 
ENDBRANCH  27  32
ENDBRANCH  22  23
ENDBRANCH  19  22
ENDBRANCH   1  18
TORSDOF 4
ENDMDL
