MODEL 1
REMARK VINA RESULT:      -7.9      0.000      0.000
REMARK  9 active torsions:
REMARK  status: ('A' for Active; 'I' for Inactive)
REMARK    1  A    between atoms: C_2  and  C_3 
REMARK    2  A    between atoms: C_4  and  O_5 
REMARK    3  A    between atoms: C_6  and  C_7 
REMARK    4  A    between atoms: C_12  and  C_13 
REMARK    5  A    between atoms: C_13  and  C_14 
REMARK    6  A    between atoms: C_14  and  N_15 
REMARK    7  A    between atoms: N_20  and  C_21 
REMARK    8  A    between atoms: C_21  and  C_22 
REMARK    9  A    between atoms: C_22  and  N_23 
ROOT
HETATM    1  N   UNL     1     -43.420  56.564 -52.260  1.00  0.00    -0.174 N 
HETATM    2  C   UNL     1     -43.132  55.399 -51.583  1.00  0.00     0.681 A 
HETATM    3  N   UNL     1     -43.821  54.262 -51.719  1.00  0.00    -0.234 N 
HETATM    4  H   UNL     1     -43.643  53.428 -51.184  1.00  0.00     0.174 HD
HETATM    5  H   UNL     1     -44.767  54.332 -52.114  1.00  0.00     0.174 HD
HETATM    6  N   UNL     1     -42.014  55.515 -50.735  1.00  0.00    -0.180 N 
HETATM    7  C   UNL     1     -41.667  56.907 -50.807  1.00  0.00     0.079 A 
HETATM    8  C   UNL     1     -42.514  57.531 -51.744  1.00  0.00     0.079 A 
HETATM    9  C   UNL     1     -40.707  57.637 -50.136  1.00  0.00     0.032 A 
HETATM   10  C   UNL     1     -40.585  58.998 -50.443  1.00  0.00     0.002 A 
HETATM   11  C   UNL     1     -41.419  59.607 -51.395  1.00  0.00     0.002 A 
HETATM   12  C   UNL     1     -42.403  58.871 -52.057  1.00  0.00     0.032 A 
ENDROOT
BRANCH   1  13
HETATM   13  C   UNL     1     -44.373  56.782 -53.360  1.00  0.00     0.231 C 
BRANCH  13  14
HETATM   14  C   UNL     1     -43.907  56.305 -54.717  1.00  0.00     0.178 C 
HETATM   15  O   UNL     1     -43.646  55.119 -54.919  1.00  0.00    -0.290 OA
BRANCH  14  16
HETATM   16  C   UNL     1     -43.733  57.332 -55.788  1.00  0.00     0.013 A 
HETATM   17  C   UNL     1     -43.882  58.689 -55.492  1.00  0.00     0.026 A 
HETATM   18  C   UNL     1     -43.800  59.672 -56.490  1.00  0.00    -0.016 A 
HETATM   19  C   UNL     1     -43.572  59.222 -57.816  1.00  0.00     0.079 A 
HETATM   20  C   UNL     1     -43.379  57.857 -58.159  1.00  0.00    -0.016 A 
HETATM   21  C   UNL     1     -43.451  56.927 -57.097  1.00  0.00     0.026 A 
BRANCH  18  22
HETATM   22  C   UNL     1     -43.988  61.173 -56.129  1.00  0.00    -0.021 C 
HETATM   23  C   UNL     1     -43.891  61.340 -54.599  1.00  0.00     0.019 C 
HETATM   24  C   UNL     1     -42.905  62.096 -56.750  1.00  0.00     0.019 C 
HETATM   25  C   UNL     1     -45.339  61.732 -56.635  1.00  0.00     0.019 C 
ENDBRANCH  18  22
BRANCH  19  26
HETATM   26  O   UNL     1     -43.596  60.189 -58.779  1.00  0.00    -0.360 OA
HETATM   27  H   UNL     1     -42.820  60.762 -58.693  1.00  0.00     0.217 HD
ENDBRANCH  19  26
BRANCH  20  28
HETATM   28  C   UNL     1     -43.122  57.360 -59.610  1.00  0.00    -0.021 C 
HETATM   29  C   UNL     1     -44.356  57.655 -60.490  1.00  0.00     0.019 C 
HETATM   30  C   UNL     1     -42.778  55.853 -59.655  1.00  0.00     0.019 C 
HETATM   31  C   UNL     1     -41.926  58.069 -60.305  1.00  0.00     0.019 C 
ENDBRANCH  20  28
ENDBRANCH  14  16
ENDBRANCH  13  14
ENDBRANCH   1  13
BRANCH   6  32
HETATM   32  C   UNL     1     -41.373  54.393 -50.026  1.00  0.00     0.175 C 
BRANCH  32  33
HETATM   33  C   UNL     1     -40.088  53.814 -50.659  1.00  0.00     0.255 C 
BRANCH  33  34
HETATM   34  N   UNL     1     -40.300  52.881 -51.834  1.00  0.00    -0.070 N 
HETATM   35  H   UNL     1     -41.206  52.428 -51.635  1.00  0.00     0.279 HD
HETATM   36  C   UNL     1     -40.496  53.564 -53.172  1.00  0.00     0.235 C 
HETATM   37  C   UNL     1     -41.008  52.546 -54.182  1.00  0.00     0.028 C 
HETATM   38  C   UNL     1     -40.090  51.332 -54.284  1.00  0.00     0.003 C 
HETATM   39  C   UNL     1     -39.831  50.707 -52.916  1.00  0.00     0.028 C 
HETATM   40  C   UNL     1     -39.315  51.732 -51.915  1.00  0.00     0.235 C 
ENDBRANCH  33  34
ENDBRANCH  32  33
ENDBRANCH   6  32
TORSDOF 9
ENDMDL
MODEL 2
REMARK VINA RESULT:      -7.9      3.462      8.503
REMARK  9 active torsions:
REMARK  status: ('A' for Active; 'I' for Inactive)
REMARK    1  A    between atoms: C_2  and  C_3 
REMARK    2  A    between atoms: C_4  and  O_5 
REMARK    3  A    between atoms: C_6  and  C_7 
REMARK    4  A    between atoms: C_12  and  C_13 
REMARK    5  A    between atoms: C_13  and  C_14 
REMARK    6  A    between atoms: C_14  and  N_15 
REMARK    7  A    between atoms: N_20  and  C_21 
REMARK    8  A    between atoms: C_21  and  C_22 
REMARK    9  A    between atoms: C_22  and  N_23 
ROOT
HETATM    1  N   UNL     1     -42.517  57.277 -53.593  1.00  0.00    -0.174 N 
HETATM    2  C   UNL     1     -43.822  57.439 -53.180  1.00  0.00     0.681 A 
HETATM    3  N   UNL     1     -44.881  56.952 -53.832  1.00  0.00    -0.234 N 
HETATM    4  H   UNL     1     -45.836  57.118 -53.559  1.00  0.00     0.174 HD
HETATM    5  H   UNL     1     -44.748  56.702 -54.820  1.00  0.00     0.174 HD
HETATM    6  N   UNL     1     -43.934  58.161 -51.976  1.00  0.00    -0.180 N 
HETATM    7  C   UNL     1     -42.590  58.582 -51.698  1.00  0.00     0.079 A 
HETATM    8  C   UNL     1     -41.736  58.030 -52.673  1.00  0.00     0.079 A 
HETATM    9  C   UNL     1     -42.081  59.384 -50.697  1.00  0.00     0.032 A 
HETATM   10  C   UNL     1     -40.697  59.600 -50.668  1.00  0.00     0.002 A 
HETATM   11  C   UNL     1     -39.851  59.026 -51.632  1.00  0.00     0.002 A 
HETATM   12  C   UNL     1     -40.371  58.232 -52.655  1.00  0.00     0.032 A 
ENDROOT
BRANCH   1  13
HETATM   13  C   UNL     1     -41.989  56.432 -54.676  1.00  0.00     0.231 C 
BRANCH  13  14
HETATM   14  C   UNL     1     -42.358  54.969 -54.587  1.00  0.00     0.178 C 
HETATM   15  O   UNL     1     -43.301  54.510 -55.231  1.00  0.00    -0.290 OA
BRANCH  14  16
HETATM   16  C   UNL     1     -41.565  54.111 -53.655  1.00  0.00     0.013 A 
HETATM   17  C   UNL     1     -41.120  52.851 -54.066  1.00  0.00     0.026 A 
HETATM   18  C   UNL     1     -40.439  51.991 -53.191  1.00  0.00    -0.016 A 
HETATM   19  C   UNL     1     -40.237  52.454 -51.866  1.00  0.00     0.079 A 
HETATM   20  C   UNL     1     -40.640  53.740 -51.413  1.00  0.00    -0.016 A 
HETATM   21  C   UNL     1     -41.297  54.559 -52.358  1.00  0.00     0.026 A 
BRANCH  18  22
HETATM   22  C   UNL     1     -39.973  50.589 -53.675  1.00  0.00    -0.021 C 
HETATM   23  C   UNL     1     -41.043  49.999 -54.616  1.00  0.00     0.019 C 
HETATM   24  C   UNL     1     -38.643  50.625 -54.476  1.00  0.00     0.019 C 
HETATM   25  C   UNL     1     -39.714  49.620 -52.498  1.00  0.00     0.019 C 
ENDBRANCH  18  22
BRANCH  19  26
HETATM   26  O   UNL     1     -39.661  51.560 -51.010  1.00  0.00    -0.360 OA
HETATM   27  H   UNL     1     -39.097  52.024 -50.375  1.00  0.00     0.217 HD
ENDBRANCH  19  26
BRANCH  20  28
HETATM   28  C   UNL     1     -40.413  54.254 -49.963  1.00  0.00    -0.021 C 
HETATM   29  C   UNL     1     -41.143  55.601 -49.765  1.00  0.00     0.019 C 
HETATM   30  C   UNL     1     -38.910  54.403 -49.629  1.00  0.00     0.019 C 
HETATM   31  C   UNL     1     -40.977  53.301 -48.872  1.00  0.00     0.019 C 
ENDBRANCH  20  28
ENDBRANCH  14  16
ENDBRANCH  13  14
ENDBRANCH   1  13
BRANCH   6  32
HETATM   32  C   UNL     1     -45.182  58.336 -51.211  1.00  0.00     0.175 C 
BRANCH  32  33
HETATM   33  C   UNL     1     -45.828  59.738 -51.247  1.00  0.00     0.255 C 
BRANCH  33  34
HETATM   34  N   UNL     1     -45.193  60.776 -50.343  1.00  0.00    -0.070 N 
HETATM   35  H   UNL     1     -44.198  60.504 -50.307  1.00  0.00     0.279 HD
HETATM   36  C   UNL     1     -45.188  62.189 -50.889  1.00  0.00     0.235 C 
HETATM   37  C   UNL     1     -44.255  63.047 -50.044  1.00  0.00     0.028 C 
HETATM   38  C   UNL     1     -44.624  63.003 -48.564  1.00  0.00     0.003 C 
HETATM   39  C   UNL     1     -44.713  61.569 -48.050  1.00  0.00     0.028 C 
HETATM   40  C   UNL     1     -45.650  60.721 -48.900  1.00  0.00     0.235 C 
ENDBRANCH  33  34
ENDBRANCH  32  33
ENDBRANCH   6  32
TORSDOF 9
ENDMDL
MODEL 3
REMARK VINA RESULT:      -7.8      0.131      3.051
REMARK  9 active torsions:
REMARK  status: ('A' for Active; 'I' for Inactive)
REMARK    1  A    between atoms: C_2  and  C_3 
REMARK    2  A    between atoms: C_4  and  O_5 
REMARK    3  A    between atoms: C_6  and  C_7 
REMARK    4  A    between atoms: C_12  and  C_13 
REMARK    5  A    between atoms: C_13  and  C_14 
REMARK    6  A    between atoms: C_14  and  N_15 
REMARK    7  A    between atoms: N_20  and  C_21 
REMARK    8  A    between atoms: C_21  and  C_22 
REMARK    9  A    between atoms: C_22  and  N_23 
ROOT
HETATM    1  N   UNL     1     -43.427  56.578 -52.227  1.00  0.00    -0.174 N 
HETATM    2  C   UNL     1     -43.135  55.413 -51.552  1.00  0.00     0.681 A 
HETATM    3  N   UNL     1     -43.831  54.279 -51.676  1.00  0.00    -0.234 N 
HETATM    4  H   UNL     1     -43.650  53.446 -51.141  1.00  0.00     0.174 HD
HETATM    5  H   UNL     1     -44.783  54.354 -52.058  1.00  0.00     0.174 HD
HETATM    6  N   UNL     1     -42.005  55.525 -50.720  1.00  0.00    -0.180 N 
HETATM    7  C   UNL     1     -41.652  56.915 -50.801  1.00  0.00     0.079 A 
HETATM    8  C   UNL     1     -42.508  57.542 -51.727  1.00  0.00     0.079 A 
HETATM    9  C   UNL     1     -40.678  57.641 -50.146  1.00  0.00     0.032 A 
HETATM   10  C   UNL     1     -40.554  59.002 -50.457  1.00  0.00     0.002 A 
HETATM   11  C   UNL     1     -41.398  59.613 -51.398  1.00  0.00     0.002 A 
HETATM   12  C   UNL     1     -42.394  58.880 -52.045  1.00  0.00     0.032 A 
ENDROOT
BRANCH   1  13
HETATM   13  C   UNL     1     -44.394  56.798 -53.315  1.00  0.00     0.231 C 
BRANCH  13  14
HETATM   14  C   UNL     1     -43.951  56.313 -54.676  1.00  0.00     0.178 C 
HETATM   15  O   UNL     1     -43.610  55.144 -54.855  1.00  0.00    -0.290 OA
BRANCH  14  16
HETATM   16  C   UNL     1     -43.901  57.313 -55.785  1.00  0.00     0.013 A 
HETATM   17  C   UNL     1     -43.612  56.903 -57.089  1.00  0.00     0.026 A 
HETATM   18  C   UNL     1     -43.483  57.826 -58.138  1.00  0.00    -0.016 A 
HETATM   19  C   UNL     1     -43.646  59.197 -57.809  1.00  0.00     0.079 A 
HETATM   20  C   UNL     1     -43.975  59.657 -56.506  1.00  0.00    -0.016 A 
HETATM   21  C   UNL     1     -44.113  58.667 -55.507  1.00  0.00     0.026 A 
BRANCH  18  22
HETATM   22  C   UNL     1     -43.143  57.338 -59.574  1.00  0.00    -0.021 C 
HETATM   23  C   UNL     1     -44.295  57.725 -60.524  1.00  0.00     0.019 C 
HETATM   24  C   UNL     1     -41.852  57.978 -60.153  1.00  0.00     0.019 C 
HETATM   25  C   UNL     1     -42.903  55.811 -59.633  1.00  0.00     0.019 C 
ENDBRANCH  18  22
BRANCH  19  26
HETATM   26  O   UNL     1     -43.417  60.078 -58.826  1.00  0.00    -0.360 OA
HETATM   27  H   UNL     1     -44.112  60.752 -58.844  1.00  0.00     0.217 HD
ENDBRANCH  19  26
BRANCH  20  28
HETATM   28  C   UNL     1     -44.162  61.158 -56.143  1.00  0.00    -0.021 C 
HETATM   29  C   UNL     1     -45.445  61.702 -56.808  1.00  0.00     0.019 C 
HETATM   30  C   UNL     1     -42.940  62.011 -56.557  1.00  0.00     0.019 C 
HETATM   31  C   UNL     1     -44.333  61.411 -54.619  1.00  0.00     0.019 C 
ENDBRANCH  20  28
ENDBRANCH  14  16
ENDBRANCH  13  14
ENDBRANCH   1  13
BRANCH   6  32
HETATM   32  C   UNL     1     -41.359  54.401 -50.018  1.00  0.00     0.175 C 
BRANCH  32  33
HETATM   33  C   UNL     1     -40.079  53.824 -50.660  1.00  0.00     0.255 C 
BRANCH  33  34
HETATM   34  N   UNL     1     -40.298  52.890 -51.834  1.00  0.00    -0.070 N 
HETATM   35  H   UNL     1     -41.205  52.440 -51.631  1.00  0.00     0.279 HD
HETATM   36  C   UNL     1     -40.497  53.573 -53.171  1.00  0.00     0.235 C 
HETATM   37  C   UNL     1     -41.017  52.556 -54.178  1.00  0.00     0.028 C 
HETATM   38  C   UNL     1     -40.102  51.339 -54.284  1.00  0.00     0.003 C 
HETATM   39  C   UNL     1     -39.840  50.714 -52.916  1.00  0.00     0.028 C 
HETATM   40  C   UNL     1     -39.317  51.739 -51.918  1.00  0.00     0.235 C 
ENDBRANCH  33  34
ENDBRANCH  32  33
ENDBRANCH   6  32
TORSDOF 9
ENDMDL
MODEL 4
REMARK VINA RESULT:      -7.7      1.866      3.661
REMARK  9 active torsions:
REMARK  status: ('A' for Active; 'I' for Inactive)
REMARK    1  A    between atoms: C_2  and  C_3 
REMARK    2  A    between atoms: C_4  and  O_5 
REMARK    3  A    between atoms: C_6  and  C_7 
REMARK    4  A    between atoms: C_12  and  C_13 
REMARK    5  A    between atoms: C_13  and  C_14 
REMARK    6  A    between atoms: C_14  and  N_15 
REMARK    7  A    between atoms: N_20  and  C_21 
REMARK    8  A    between atoms: C_21  and  C_22 
REMARK    9  A    between atoms: C_22  and  N_23 
ROOT
HETATM    1  N   UNL     1     -44.206  58.093 -53.521  1.00  0.00    -0.174 N 
HETATM    2  C   UNL     1     -44.011  56.732 -53.611  1.00  0.00     0.681 A 
HETATM    3  N   UNL     1     -44.761  55.913 -54.355  1.00  0.00    -0.234 N 
HETATM    4  H   UNL     1     -44.651  54.913 -54.376  1.00  0.00     0.174 HD
HETATM    5  H   UNL     1     -45.688  56.257 -54.638  1.00  0.00     0.174 HD
HETATM    6  N   UNL     1     -42.917  56.279 -52.848  1.00  0.00    -0.180 N 
HETATM    7  C   UNL     1     -42.486  57.448 -52.134  1.00  0.00     0.079 A 
HETATM    8  C   UNL     1     -43.262  58.544 -52.558  1.00  0.00     0.079 A 
HETATM    9  C   UNL     1     -41.507  57.613 -51.175  1.00  0.00     0.032 A 
HETATM   10  C   UNL     1     -41.293  58.903 -50.670  1.00  0.00     0.002 A 
HETATM   11  C   UNL     1     -42.057  59.994 -51.116  1.00  0.00     0.002 A 
HETATM   12  C   UNL     1     -43.060  59.820 -52.071  1.00  0.00     0.032 A 
ENDROOT
BRANCH   1  13
HETATM   13  C   UNL     1     -45.106  58.951 -54.307  1.00  0.00     0.231 C 
BRANCH  13  14
HETATM   14  C   UNL     1     -44.471  59.626 -55.501  1.00  0.00     0.178 C 
HETATM   15  O   UNL     1     -43.811  60.656 -55.373  1.00  0.00    -0.290 OA
BRANCH  14  16
HETATM   16  C   UNL     1     -44.710  59.021 -56.846  1.00  0.00     0.013 A 
HETATM   17  C   UNL     1     -44.075  57.828 -57.204  1.00  0.00     0.026 A 
HETATM   18  C   UNL     1     -44.219  57.275 -58.485  1.00  0.00    -0.016 A 
HETATM   19  C   UNL     1     -45.029  57.990 -59.405  1.00  0.00     0.079 A 
HETATM   20  C   UNL     1     -45.722  59.186 -59.076  1.00  0.00    -0.016 A 
HETATM   21  C   UNL     1     -45.548  59.669 -57.759  1.00  0.00     0.026 A 
BRANCH  18  22
HETATM   22  C   UNL     1     -43.485  55.956 -58.857  1.00  0.00    -0.021 C 
HETATM   23  C   UNL     1     -42.957  55.293 -57.569  1.00  0.00     0.019 C 
HETATM   24  C   UNL     1     -44.402  54.916 -59.554  1.00  0.00     0.019 C 
HETATM   25  C   UNL     1     -42.316  56.194 -59.843  1.00  0.00     0.019 C 
ENDBRANCH  18  22
BRANCH  19  26
HETATM   26  O   UNL     1     -45.071  57.483 -60.672  1.00  0.00    -0.360 OA
HETATM   27  H   UNL     1     -44.325  56.883 -60.814  1.00  0.00     0.217 HD
ENDBRANCH  19  26
BRANCH  20  28
HETATM   28  C   UNL     1     -46.616  59.969 -60.079  1.00  0.00    -0.021 C 
HETATM   29  C   UNL     1     -47.277  61.169 -59.365  1.00  0.00     0.019 C 
HETATM   30  C   UNL     1     -47.695  59.066 -60.721  1.00  0.00     0.019 C 
HETATM   31  C   UNL     1     -45.826  60.570 -61.275  1.00  0.00     0.019 C 
ENDBRANCH  20  28
ENDBRANCH  14  16
ENDBRANCH  13  14
ENDBRANCH   1  13
BRANCH   6  32
HETATM   32  C   UNL     1     -42.368  54.912 -52.889  1.00  0.00     0.175 C 
BRANCH  32  33
HETATM   33  C   UNL     1     -40.960  54.747 -53.504  1.00  0.00     0.255 C 
BRANCH  33  34
HETATM   34  N   UNL     1     -40.350  53.364 -53.382  1.00  0.00    -0.070 N 
HETATM   35  H   UNL     1     -39.386  53.484 -53.728  1.00  0.00     0.279 HD
HETATM   36  C   UNL     1     -40.192  52.853 -51.966  1.00  0.00     0.235 C 
HETATM   37  C   UNL     1     -39.293  51.624 -51.976  1.00  0.00     0.028 C 
HETATM   38  C   UNL     1     -39.813  50.545 -52.923  1.00  0.00     0.003 C 
HETATM   39  C   UNL     1     -40.051  51.097 -54.326  1.00  0.00     0.028 C 
HETATM   40  C   UNL     1     -40.954  52.324 -54.303  1.00  0.00     0.235 C 
ENDBRANCH  33  34
ENDBRANCH  32  33
ENDBRANCH   6  32
TORSDOF 9
ENDMDL
MODEL 5
REMARK VINA RESULT:      -7.7      2.954      9.646
REMARK  9 active torsions:
REMARK  status: ('A' for Active; 'I' for Inactive)
REMARK    1  A    between atoms: C_2  and  C_3 
REMARK    2  A    between atoms: C_4  and  O_5 
REMARK    3  A    between atoms: C_6  and  C_7 
REMARK    4  A    between atoms: C_12  and  C_13 
REMARK    5  A    between atoms: C_13  and  C_14 
REMARK    6  A    between atoms: C_14  and  N_15 
REMARK    7  A    between atoms: N_20  and  C_21 
REMARK    8  A    between atoms: C_21  and  C_22 
REMARK    9  A    between atoms: C_22  and  N_23 
ROOT
HETATM    1  N   UNL     1     -42.859  56.069 -57.121  1.00  0.00    -0.174 N 
HETATM    2  C   UNL     1     -42.955  57.434 -56.962  1.00  0.00     0.681 A 
HETATM    3  N   UNL     1     -42.448  58.107 -55.925  1.00  0.00    -0.234 N 
HETATM    4  H   UNL     1     -42.566  59.096 -55.783  1.00  0.00     0.174 HD
HETATM    5  H   UNL     1     -42.237  57.567 -55.076  1.00  0.00     0.174 HD
HETATM    6  N   UNL     1     -43.631  58.068 -58.023  1.00  0.00    -0.180 N 
HETATM    7  C   UNL     1     -44.096  56.979 -58.836  1.00  0.00     0.079 A 
HETATM    8  C   UNL     1     -43.612  55.773 -58.291  1.00  0.00     0.079 A 
HETATM    9  C   UNL     1     -44.884  56.967 -59.969  1.00  0.00     0.032 A 
HETATM   10  C   UNL     1     -45.154  55.730 -60.568  1.00  0.00     0.002 A 
HETATM   11  C   UNL     1     -44.647  54.535 -60.030  1.00  0.00     0.002 A 
HETATM   12  C   UNL     1     -43.867  54.548 -58.873  1.00  0.00     0.032 A 
ENDROOT
BRANCH   1  13
HETATM   13  C   UNL     1     -42.073  55.101 -56.340  1.00  0.00     0.231 C 
BRANCH  13  14
HETATM   14  C   UNL     1     -42.725  54.625 -55.062  1.00  0.00     0.178 C 
HETATM   15  O   UNL     1     -43.932  54.775 -54.869  1.00  0.00    -0.290 OA
BRANCH  14  16
HETATM   16  C   UNL     1     -41.845  54.006 -54.025  1.00  0.00     0.013 A 
HETATM   17  C   UNL     1     -41.250  52.763 -54.258  1.00  0.00     0.026 A 
HETATM   18  C   UNL     1     -40.481  52.121 -53.276  1.00  0.00    -0.016 A 
HETATM   19  C   UNL     1     -40.347  52.786 -52.030  1.00  0.00     0.079 A 
HETATM   20  C   UNL     1     -40.904  54.065 -51.759  1.00  0.00    -0.016 A 
HETATM   21  C   UNL     1     -41.645  54.660 -52.805  1.00  0.00     0.026 A 
BRANCH  18  22
HETATM   22  C   UNL     1     -39.847  50.731 -53.562  1.00  0.00    -0.021 C 
HETATM   23  C   UNL     1     -40.682  50.008 -54.639  1.00  0.00     0.019 C 
HETATM   24  C   UNL     1     -38.395  50.816 -54.104  1.00  0.00     0.019 C 
HETATM   25  C   UNL     1     -39.758  49.855 -52.290  1.00  0.00     0.019 C 
ENDBRANCH  18  22
BRANCH  19  26
HETATM   26  O   UNL     1     -39.678  52.095 -51.061  1.00  0.00    -0.360 OA
HETATM   27  H   UNL     1     -38.883  51.688 -51.434  1.00  0.00     0.217 HD
ENDBRANCH  19  26
BRANCH  20  28
HETATM   28  C   UNL     1     -40.754  54.801 -50.397  1.00  0.00    -0.021 C 
HETATM   29  C   UNL     1     -41.840  54.310 -49.415  1.00  0.00     0.019 C 
HETATM   30  C   UNL     1     -40.829  56.337 -50.557  1.00  0.00     0.019 C 
HETATM   31  C   UNL     1     -39.394  54.532 -49.695  1.00  0.00     0.019 C 
ENDBRANCH  20  28
ENDBRANCH  14  16
ENDBRANCH  13  14
ENDBRANCH   1  13
BRANCH   6  32
HETATM   32  C   UNL     1     -43.730  59.526 -58.210  1.00  0.00     0.175 C 
BRANCH  32  33
HETATM   33  C   UNL     1     -43.340  60.077 -59.599  1.00  0.00     0.255 C 
BRANCH  33  34
HETATM   34  N   UNL     1     -42.273  61.154 -59.601  1.00  0.00    -0.070 N 
HETATM   35  H   UNL     1     -42.804  62.034 -59.507  1.00  0.00     0.279 HD
HETATM   36  C   UNL     1     -41.339  61.137 -58.408  1.00  0.00     0.235 C 
HETATM   37  C   UNL     1     -40.545  62.436 -58.378  1.00  0.00     0.028 C 
HETATM   38  C   UNL     1     -39.801  62.680 -59.688  1.00  0.00     0.003 C 
HETATM   39  C   UNL     1     -40.740  62.606 -60.889  1.00  0.00     0.028 C 
HETATM   40  C   UNL     1     -41.527  61.302 -60.911  1.00  0.00     0.235 C 
ENDBRANCH  33  34
ENDBRANCH  32  33
ENDBRANCH   6  32
TORSDOF 9
ENDMDL
MODEL 6
REMARK VINA RESULT:      -7.6      2.852      7.416
REMARK  9 active torsions:
REMARK  status: ('A' for Active; 'I' for Inactive)
REMARK    1  A    between atoms: C_2  and  C_3 
REMARK    2  A    between atoms: C_4  and  O_5 
REMARK    3  A    between atoms: C_6  and  C_7 
REMARK    4  A    between atoms: C_12  and  C_13 
REMARK    5  A    between atoms: C_13  and  C_14 
REMARK    6  A    between atoms: C_14  and  N_15 
REMARK    7  A    between atoms: N_20  and  C_21 
REMARK    8  A    between atoms: C_21  and  C_22 
REMARK    9  A    between atoms: C_22  and  N_23 
ROOT
HETATM    1  N   UNL     1     -44.761  58.599 -53.267  1.00  0.00    -0.174 N 
HETATM    2  C   UNL     1     -45.094  57.908 -54.412  1.00  0.00     0.681 A 
HETATM    3  N   UNL     1     -45.123  56.575 -54.503  1.00  0.00    -0.234 N 
HETATM    4  H   UNL     1     -45.312  56.073 -55.354  1.00  0.00     0.174 HD
HETATM    5  H   UNL     1     -44.602  56.047 -53.791  1.00  0.00     0.174 HD
HETATM    6  N   UNL     1     -45.424  58.752 -55.490  1.00  0.00    -0.180 N 
HETATM    7  C   UNL     1     -45.148  60.072 -54.994  1.00  0.00     0.079 A 
HETATM    8  C   UNL     1     -44.762  59.971 -53.643  1.00  0.00     0.079 A 
HETATM    9  C   UNL     1     -45.203  61.302 -55.616  1.00  0.00     0.032 A 
HETATM   10  C   UNL     1     -44.897  62.437 -54.853  1.00  0.00     0.002 A 
HETATM   11  C   UNL     1     -44.536  62.328 -53.500  1.00  0.00     0.002 A 
HETATM   12  C   UNL     1     -44.461  61.081 -52.879  1.00  0.00     0.032 A 
ENDROOT
BRANCH   1  13
HETATM   13  C   UNL     1     -44.551  58.083 -51.905  1.00  0.00     0.231 C 
BRANCH  13  14
HETATM   14  C   UNL     1     -43.106  57.972 -51.476  1.00  0.00     0.178 C 
HETATM   15  O   UNL     1     -42.519  58.925 -50.965  1.00  0.00    -0.290 OA
BRANCH  14  16
HETATM   16  C   UNL     1     -42.405  56.677 -51.735  1.00  0.00     0.013 A 
HETATM   17  C   UNL     1     -41.791  55.989 -50.685  1.00  0.00     0.026 A 
HETATM   18  C   UNL     1     -41.061  54.811 -50.907  1.00  0.00    -0.016 A 
HETATM   19  C   UNL     1     -40.963  54.361 -52.249  1.00  0.00     0.079 A 
HETATM   20  C   UNL     1     -41.599  55.009 -53.342  1.00  0.00    -0.016 A 
HETATM   21  C   UNL     1     -42.337  56.174 -53.037  1.00  0.00     0.026 A 
BRANCH  18  22
HETATM   22  C   UNL     1     -40.375  54.078 -49.720  1.00  0.00    -0.021 C 
HETATM   23  C   UNL     1     -40.936  54.632 -48.394  1.00  0.00     0.019 C 
HETATM   24  C   UNL     1     -40.632  52.547 -49.710  1.00  0.00     0.019 C 
HETATM   25  C   UNL     1     -38.836  54.233 -49.746  1.00  0.00     0.019 C 
ENDBRANCH  18  22
BRANCH  19  26
HETATM   26  O   UNL     1     -40.165  53.271 -52.449  1.00  0.00    -0.360 OA
HETATM   27  H   UNL     1     -39.886  53.229 -53.375  1.00  0.00     0.217 HD
ENDBRANCH  19  26
BRANCH  20  28
HETATM   28  C   UNL     1     -41.500  54.514 -54.814  1.00  0.00    -0.021 C 
HETATM   29  C   UNL     1     -41.925  55.645 -55.776  1.00  0.00     0.019 C 
HETATM   30  C   UNL     1     -42.356  53.250 -55.059  1.00  0.00     0.019 C 
HETATM   31  C   UNL     1     -40.059  54.115 -55.238  1.00  0.00     0.019 C 
ENDBRANCH  20  28
ENDBRANCH  14  16
ENDBRANCH  13  14
ENDBRANCH   1  13
BRANCH   6  32
HETATM   32  C   UNL     1     -45.982  58.299 -56.777  1.00  0.00     0.175 C 
BRANCH  32  33
HETATM   33  C   UNL     1     -44.998  58.188 -57.961  1.00  0.00     0.255 C 
BRANCH  33  34
HETATM   34  N   UNL     1     -45.151  56.954 -58.827  1.00  0.00    -0.070 N 
HETATM   35  H   UNL     1     -45.806  56.356 -58.300  1.00  0.00     0.279 HD
HETATM   36  C   UNL     1     -45.828  57.184 -60.162  1.00  0.00     0.235 C 
HETATM   37  C   UNL     1     -46.198  55.839 -60.773  1.00  0.00     0.028 C 
HETATM   38  C   UNL     1     -44.989  54.914 -60.892  1.00  0.00     0.003 C 
HETATM   39  C   UNL     1     -44.266  54.762 -59.557  1.00  0.00     0.028 C 
HETATM   40  C   UNL     1     -43.897  56.113 -58.957  1.00  0.00     0.235 C 
ENDBRANCH  33  34
ENDBRANCH  32  33
ENDBRANCH   6  32
TORSDOF 9
ENDMDL
MODEL 7
REMARK VINA RESULT:      -7.5      2.442      8.042
REMARK  9 active torsions:
REMARK  status: ('A' for Active; 'I' for Inactive)
REMARK    1  A    between atoms: C_2  and  C_3 
REMARK    2  A    between atoms: C_4  and  O_5 
REMARK    3  A    between atoms: C_6  and  C_7 
REMARK    4  A    between atoms: C_12  and  C_13 
REMARK    5  A    between atoms: C_13  and  C_14 
REMARK    6  A    between atoms: C_14  and  N_15 
REMARK    7  A    between atoms: N_20  and  C_21 
REMARK    8  A    between atoms: C_21  and  C_22 
REMARK    9  A    between atoms: C_22  and  N_23 
ROOT
HETATM    1  N   UNL     1     -44.190  56.613 -54.700  1.00  0.00    -0.174 N 
HETATM    2  C   UNL     1     -44.401  57.412 -55.803  1.00  0.00     0.681 A 
HETATM    3  N   UNL     1     -44.286  56.993 -57.067  1.00  0.00    -0.234 N 
HETATM    4  H   UNL     1     -44.386  57.591 -57.870  1.00  0.00     0.174 HD
HETATM    5  H   UNL     1     -43.743  56.135 -57.227  1.00  0.00     0.174 HD
HETATM    6  N   UNL     1     -44.773  58.728 -55.469  1.00  0.00    -0.180 N 
HETATM    7  C   UNL     1     -44.658  58.768 -54.037  1.00  0.00     0.079 A 
HETATM    8  C   UNL     1     -44.319  57.479 -53.580  1.00  0.00     0.079 A 
HETATM    9  C   UNL     1     -44.816  59.808 -53.145  1.00  0.00     0.032 A 
HETATM   10  C   UNL     1     -44.662  59.531 -51.780  1.00  0.00     0.002 A 
HETATM   11  C   UNL     1     -44.347  58.238 -51.332  1.00  0.00     0.002 A 
HETATM   12  C   UNL     1     -44.168  57.192 -52.238  1.00  0.00     0.032 A 
ENDROOT
BRANCH   1  13
HETATM   13  C   UNL     1     -43.983  55.158 -54.640  1.00  0.00     0.231 C 
BRANCH  13  14
HETATM   14  C   UNL     1     -42.582  54.693 -54.971  1.00  0.00     0.178 C 
HETATM   15  O   UNL     1     -42.104  54.863 -56.092  1.00  0.00    -0.290 OA
BRANCH  14  16
HETATM   16  C   UNL     1     -41.819  53.982 -53.901  1.00  0.00     0.013 A 
HETATM   17  C   UNL     1     -41.622  54.588 -52.657  1.00  0.00     0.026 A 
HETATM   18  C   UNL     1     -40.847  53.980 -51.658  1.00  0.00    -0.016 A 
HETATM   19  C   UNL     1     -40.260  52.728 -51.976  1.00  0.00     0.079 A 
HETATM   20  C   UNL     1     -40.461  52.058 -53.213  1.00  0.00    -0.016 A 
HETATM   21  C   UNL     1     -41.274  52.721 -54.160  1.00  0.00     0.026 A 
BRANCH  18  22
HETATM   22  C   UNL     1     -40.633  54.689 -50.291  1.00  0.00    -0.021 C 
HETATM   23  C   UNL     1     -40.931  56.193 -50.451  1.00  0.00     0.019 C 
HETATM   24  C   UNL     1     -41.571  54.162 -49.171  1.00  0.00     0.019 C 
HETATM   25  C   UNL     1     -39.198  54.492 -49.747  1.00  0.00     0.019 C 
ENDBRANCH  18  22
BRANCH  19  26
HETATM   26  O   UNL     1     -39.430  52.207 -51.025  1.00  0.00    -0.360 OA
HETATM   27  H   UNL     1     -39.906  52.109 -50.187  1.00  0.00     0.217 HD
ENDBRANCH  19  26
BRANCH  20  28
HETATM   28  C   UNL     1     -39.825  50.683 -53.562  1.00  0.00    -0.021 C 
HETATM   29  C   UNL     1     -38.372  50.885 -54.046  1.00  0.00     0.019 C 
HETATM   30  C   UNL     1     -40.645  49.919 -54.629  1.00  0.00     0.019 C 
HETATM   31  C   UNL     1     -39.738  49.714 -52.350  1.00  0.00     0.019 C 
ENDBRANCH  20  28
ENDBRANCH  14  16
ENDBRANCH  13  14
ENDBRANCH   1  13
BRANCH   6  32
HETATM   32  C   UNL     1     -45.228  59.747 -56.432  1.00  0.00     0.175 C 
BRANCH  32  33
HETATM   33  C   UNL     1     -44.133  60.606 -57.103  1.00  0.00     0.255 C 
BRANCH  33  34
HETATM   34  N   UNL     1     -43.619  60.089 -58.433  1.00  0.00    -0.070 N 
HETATM   35  H   UNL     1     -44.219  59.273 -58.634  1.00  0.00     0.279 HD
HETATM   36  C   UNL     1     -43.827  61.020 -59.609  1.00  0.00     0.235 C 
HETATM   37  C   UNL     1     -43.564  60.258 -60.901  1.00  0.00     0.028 C 
HETATM   38  C   UNL     1     -42.180  59.615 -60.913  1.00  0.00     0.003 C 
HETATM   39  C   UNL     1     -41.953  58.750 -59.677  1.00  0.00     0.028 C 
HETATM   40  C   UNL     1     -42.215  59.523 -58.390  1.00  0.00     0.235 C 
ENDBRANCH  33  34
ENDBRANCH  32  33
ENDBRANCH   6  32
TORSDOF 9
ENDMDL
MODEL 8
REMARK VINA RESULT:      -7.5      2.589      6.634
REMARK  9 active torsions:
REMARK  status: ('A' for Active; 'I' for Inactive)
REMARK    1  A    between atoms: C_2  and  C_3 
REMARK    2  A    between atoms: C_4  and  O_5 
REMARK    3  A    between atoms: C_6  and  C_7 
REMARK    4  A    between atoms: C_12  and  C_13 
REMARK    5  A    between atoms: C_13  and  C_14 
REMARK    6  A    between atoms: C_14  and  N_15 
REMARK    7  A    between atoms: N_20  and  C_21 
REMARK    8  A    between atoms: C_21  and  C_22 
REMARK    9  A    between atoms: C_22  and  N_23 
ROOT
HETATM    1  N   UNL     1     -44.382  57.836 -55.537  1.00  0.00    -0.174 N 
HETATM    2  C   UNL     1     -44.028  56.702 -54.839  1.00  0.00     0.681 A 
HETATM    3  N   UNL     1     -44.215  56.539 -53.526  1.00  0.00    -0.234 N 
HETATM    4  H   UNL     1     -43.905  55.734 -53.008  1.00  0.00     0.174 HD
HETATM    5  H   UNL     1     -44.357  57.389 -52.966  1.00  0.00     0.174 HD
HETATM    6  N   UNL     1     -43.457  55.706 -55.655  1.00  0.00    -0.180 N 
HETATM    7  C   UNL     1     -43.340  56.337 -56.940  1.00  0.00     0.079 A 
HETATM    8  C   UNL     1     -43.917  57.620 -56.864  1.00  0.00     0.079 A 
HETATM    9  C   UNL     1     -42.784  55.890 -58.122  1.00  0.00     0.032 A 
HETATM   10  C   UNL     1     -42.844  56.735 -59.237  1.00  0.00     0.002 A 
HETATM   11  C   UNL     1     -43.441  58.004 -59.156  1.00  0.00     0.002 A 
HETATM   12  C   UNL     1     -43.985  58.462 -57.956  1.00  0.00     0.032 A 
ENDROOT
BRANCH   1  13
HETATM   13  C   UNL     1     -45.168  58.993 -55.081  1.00  0.00     0.231 C 
BRANCH  13  14
HETATM   14  C   UNL     1     -44.357  60.216 -54.716  1.00  0.00     0.178 C 
HETATM   15  O   UNL     1     -44.135  61.102 -55.542  1.00  0.00    -0.290 OA
BRANCH  14  16
HETATM   16  C   UNL     1     -43.800  60.289 -53.332  1.00  0.00     0.013 A 
HETATM   17  C   UNL     1     -42.591  59.658 -53.027  1.00  0.00     0.026 A 
HETATM   18  C   UNL     1     -42.079  59.643 -51.721  1.00  0.00    -0.016 A 
HETATM   19  C   UNL     1     -42.854  60.287 -50.721  1.00  0.00     0.079 A 
HETATM   20  C   UNL     1     -44.070  60.971 -50.990  1.00  0.00    -0.016 A 
HETATM   21  C   UNL     1     -44.509  60.964 -52.333  1.00  0.00     0.026 A 
BRANCH  18  22
HETATM   22  C   UNL     1     -40.740  58.916 -51.411  1.00  0.00    -0.021 C 
HETATM   23  C   UNL     1     -39.974  58.689 -52.730  1.00  0.00     0.019 C 
HETATM   24  C   UNL     1     -39.799  59.729 -50.481  1.00  0.00     0.019 C 
HETATM   25  C   UNL     1     -40.959  57.565 -50.690  1.00  0.00     0.019 C 
ENDBRANCH  18  22
BRANCH  19  26
HETATM   26  O   UNL     1     -42.383  60.171 -49.445  1.00  0.00    -0.360 OA
HETATM   27  H   UNL     1     -41.427  60.022 -49.456  1.00  0.00     0.217 HD
ENDBRANCH  19  26
BRANCH  20  28
HETATM   28  C   UNL     1     -44.918  61.684 -49.899  1.00  0.00    -0.021 C 
HETATM   29  C   UNL     1     -44.117  62.861 -49.300  1.00  0.00     0.019 C 
HETATM   30  C   UNL     1     -45.360  60.711 -48.781  1.00  0.00     0.019 C 
HETATM   31  C   UNL     1     -46.237  62.301 -50.443  1.00  0.00     0.019 C 
ENDBRANCH  20  28
ENDBRANCH  14  16
ENDBRANCH  13  14
ENDBRANCH   1  13
BRANCH   6  32
HETATM   32  C   UNL     1     -43.145  54.333 -55.219  1.00  0.00     0.175 C 
BRANCH  32  33
HETATM   33  C   UNL     1     -41.650  53.959 -55.119  1.00  0.00     0.255 C 
BRANCH  33  34
HETATM   34  N   UNL     1     -41.205  53.387 -53.787  1.00  0.00    -0.070 N 
HETATM   35  H   UNL     1     -41.971  52.748 -53.520  1.00  0.00     0.279 HD
HETATM   36  C   UNL     1     -39.972  52.509 -53.844  1.00  0.00     0.235 C 
HETATM   37  C   UNL     1     -39.833  51.759 -52.525  1.00  0.00     0.028 C 
HETATM   38  C   UNL     1     -39.811  52.707 -51.329  1.00  0.00     0.003 C 
HETATM   39  C   UNL     1     -41.015  53.646 -51.335  1.00  0.00     0.028 C 
HETATM   40  C   UNL     1     -41.142  54.392 -52.656  1.00  0.00     0.235 C 
ENDBRANCH  33  34
ENDBRANCH  32  33
ENDBRANCH   6  32
TORSDOF 9
ENDMDL
MODEL 9
REMARK VINA RESULT:      -7.5      1.889      3.080
REMARK  9 active torsions:
REMARK  status: ('A' for Active; 'I' for Inactive)
REMARK    1  A    between atoms: C_2  and  C_3 
REMARK    2  A    between atoms: C_4  and  O_5 
REMARK    3  A    between atoms: C_6  and  C_7 
REMARK    4  A    between atoms: C_12  and  C_13 
REMARK    5  A    between atoms: C_13  and  C_14 
REMARK    6  A    between atoms: C_14  and  N_15 
REMARK    7  A    between atoms: N_20  and  C_21 
REMARK    8  A    between atoms: C_21  and  C_22 
REMARK    9  A    between atoms: C_22  and  N_23 
ROOT
HETATM    1  N   UNL     1     -43.935  58.359 -53.709  1.00  0.00    -0.174 N 
HETATM    2  C   UNL     1     -44.157  57.008 -53.862  1.00  0.00     0.681 A 
HETATM    3  N   UNL     1     -45.139  56.487 -54.603  1.00  0.00    -0.234 N 
HETATM    4  H   UNL     1     -45.333  55.502 -54.669  1.00  0.00     0.174 HD
HETATM    5  H   UNL     1     -45.929  57.103 -54.832  1.00  0.00     0.174 HD
HETATM    6  N   UNL     1     -43.226  56.213 -53.166  1.00  0.00    -0.180 N 
HETATM    7  C   UNL     1     -42.444  57.164 -52.425  1.00  0.00     0.079 A 
HETATM    8  C   UNL     1     -42.870  58.461 -52.772  1.00  0.00     0.079 A 
HETATM    9  C   UNL     1     -41.432  56.983 -51.505  1.00  0.00     0.032 A 
HETATM   10  C   UNL     1     -40.830  58.124 -50.959  1.00  0.00     0.002 A 
HETATM   11  C   UNL     1     -41.246  59.414 -51.328  1.00  0.00     0.002 A 
HETATM   12  C   UNL     1     -42.283  59.594 -52.245  1.00  0.00     0.032 A 
ENDROOT
BRANCH   1  13
HETATM   13  C   UNL     1     -44.562  59.484 -54.421  1.00  0.00     0.231 C 
BRANCH  13  14
HETATM   14  C   UNL     1     -43.782  60.009 -55.606  1.00  0.00     0.178 C 
HETATM   15  O   UNL     1     -42.928  60.884 -55.467  1.00  0.00    -0.290 OA
BRANCH  14  16
HETATM   16  C   UNL     1     -44.119  59.459 -56.954  1.00  0.00     0.013 A 
HETATM   17  C   UNL     1     -44.966  60.168 -57.810  1.00  0.00     0.026 A 
HETATM   18  C   UNL     1     -45.361  59.644 -59.051  1.00  0.00    -0.016 A 
HETATM   19  C   UNL     1     -44.872  58.356 -59.388  1.00  0.00     0.079 A 
HETATM   20  C   UNL     1     -43.981  57.614 -58.565  1.00  0.00    -0.016 A 
HETATM   21  C   UNL     1     -43.608  58.217 -57.343  1.00  0.00     0.026 A 
BRANCH  18  22
HETATM   22  C   UNL     1     -46.319  60.450 -59.973  1.00  0.00    -0.021 C 
HETATM   23  C   UNL     1     -46.467  61.881 -59.417  1.00  0.00     0.019 C 
HETATM   24  C   UNL     1     -45.801  60.587 -61.430  1.00  0.00     0.019 C 
HETATM   25  C   UNL     1     -47.711  59.786 -60.095  1.00  0.00     0.019 C 
ENDBRANCH  18  22
BRANCH  19  26
HETATM   26  O   UNL     1     -45.351  57.829 -60.553  1.00  0.00    -0.360 OA
HETATM   27  H   UNL     1     -46.310  57.709 -60.494  1.00  0.00     0.217 HD
ENDBRANCH  19  26
BRANCH  20  28
HETATM   28  C   UNL     1     -43.437  56.205 -58.935  1.00  0.00    -0.021 C 
HETATM   29  C   UNL     1     -42.999  55.461 -57.654  1.00  0.00     0.019 C 
HETATM   30  C   UNL     1     -42.264  56.282 -59.940  1.00  0.00     0.019 C 
HETATM   31  C   UNL     1     -44.494  55.291 -59.617  1.00  0.00     0.019 C 
ENDBRANCH  20  28
ENDBRANCH  14  16
ENDBRANCH  13  14
ENDBRANCH   1  13
BRANCH   6  32
HETATM   32  C   UNL     1     -43.110  54.748 -53.284  1.00  0.00     0.175 C 
BRANCH  32  33
HETATM   33  C   UNL     1     -41.982  54.212 -54.192  1.00  0.00     0.255 C 
BRANCH  33  34
HETATM   34  N   UNL     1     -40.923  53.377 -53.498  1.00  0.00    -0.070 N 
HETATM   35  H   UNL     1     -40.043  53.884 -53.682  1.00  0.00     0.279 HD
HETATM   36  C   UNL     1     -41.031  53.327 -51.988  1.00  0.00     0.235 C 
HETATM   37  C   UNL     1     -39.749  52.738 -51.415  1.00  0.00     0.028 C 
HETATM   38  C   UNL     1     -39.432  51.371 -52.015  1.00  0.00     0.003 C 
HETATM   39  C   UNL     1     -39.414  51.418 -53.541  1.00  0.00     0.028 C 
HETATM   40  C   UNL     1     -40.702  52.006 -54.103  1.00  0.00     0.235 C 
ENDBRANCH  33  34
ENDBRANCH  32  33
ENDBRANCH   6  32
TORSDOF 9
ENDMDL
MODEL 10
REMARK VINA RESULT:      -7.5      2.621      8.545
REMARK  9 active torsions:
REMARK  status: ('A' for Active; 'I' for Inactive)
REMARK    1  A    between atoms: C_2  and  C_3 
REMARK    2  A    between atoms: C_4  and  O_5 
REMARK    3  A    between atoms: C_6  and  C_7 
REMARK    4  A    between atoms: C_12  and  C_13 
REMARK    5  A    between atoms: C_13  and  C_14 
REMARK    6  A    between atoms: C_14  and  N_15 
REMARK    7  A    between atoms: N_20  and  C_21 
REMARK    8  A    between atoms: C_21  and  C_22 
REMARK    9  A    between atoms: C_22  and  N_23 
ROOT
HETATM    1  N   UNL     1     -44.239  56.598 -54.701  1.00  0.00    -0.174 N 
HETATM    2  C   UNL     1     -44.543  57.483 -55.712  1.00  0.00     0.681 A 
HETATM    3  N   UNL     1     -44.431  57.204 -57.014  1.00  0.00    -0.234 N 
HETATM    4  H   UNL     1     -44.602  57.870 -57.749  1.00  0.00     0.174 HD
HETATM    5  H   UNL     1     -43.826  56.414 -57.272  1.00  0.00     0.174 HD
HETATM    6  N   UNL     1     -45.009  58.725 -55.237  1.00  0.00    -0.180 N 
HETATM    7  C   UNL     1     -44.857  58.629 -53.812  1.00  0.00     0.079 A 
HETATM    8  C   UNL     1     -44.405  57.333 -53.495  1.00  0.00     0.079 A 
HETATM    9  C   UNL     1     -45.072  59.558 -52.814  1.00  0.00     0.032 A 
HETATM   10  C   UNL     1     -44.859  59.159 -51.488  1.00  0.00     0.002 A 
HETATM   11  C   UNL     1     -44.429  57.858 -51.181  1.00  0.00     0.002 A 
HETATM   12  C   UNL     1     -44.193  56.926 -52.193  1.00  0.00     0.032 A 
ENDROOT
BRANCH   1  13
HETATM   13  C   UNL     1     -43.915  55.166 -54.795  1.00  0.00     0.231 C 
BRANCH  13  14
HETATM   14  C   UNL     1     -42.467  54.852 -55.100  1.00  0.00     0.178 C 
HETATM   15  O   UNL     1     -41.975  55.125 -56.194  1.00  0.00    -0.290 OA
BRANCH  14  16
HETATM   16  C   UNL     1     -41.672  54.160 -54.041  1.00  0.00     0.013 A 
HETATM   17  C   UNL     1     -41.128  52.896 -54.285  1.00  0.00     0.026 A 
HETATM   18  C   UNL     1     -40.442  52.187 -53.287  1.00  0.00    -0.016 A 
HETATM   19  C   UNL     1     -40.337  52.808 -52.016  1.00  0.00     0.079 A 
HETATM   20  C   UNL     1     -40.842  54.106 -51.733  1.00  0.00    -0.016 A 
HETATM   21  C   UNL     1     -41.500  54.768 -52.794  1.00  0.00     0.026 A 
BRANCH  18  22
HETATM   22  C   UNL     1     -39.864  50.775 -53.586  1.00  0.00    -0.021 C 
HETATM   23  C   UNL     1     -38.444  50.924 -54.167  1.00  0.00     0.019 C 
HETATM   24  C   UNL     1     -39.740  49.881 -52.322  1.00  0.00     0.019 C 
HETATM   25  C   UNL     1     -40.753  49.973 -54.566  1.00  0.00     0.019 C 
ENDBRANCH  18  22
BRANCH  19  26
HETATM   26  O   UNL     1     -39.752  52.056 -51.038  1.00  0.00    -0.360 OA
HETATM   27  H   UNL     1     -38.795  52.201 -51.036  1.00  0.00     0.217 HD
ENDBRANCH  19  26
BRANCH  20  28
HETATM   28  C   UNL     1     -40.723  54.793 -50.343  1.00  0.00    -0.021 C 
HETATM   29  C   UNL     1     -41.815  54.249 -49.395  1.00  0.00     0.019 C 
HETATM   30  C   UNL     1     -40.821  56.333 -50.447  1.00  0.00     0.019 C 
HETATM   31  C   UNL     1     -39.368  54.522 -49.631  1.00  0.00     0.019 C 
ENDBRANCH  20  28
ENDBRANCH  14  16
ENDBRANCH  13  14
ENDBRANCH   1  13
BRANCH   6  32
HETATM   32  C   UNL     1     -45.571  59.795 -56.081  1.00  0.00     0.175 C 
BRANCH  32  33
HETATM   33  C   UNL     1     -44.648  60.995 -56.387  1.00  0.00     0.255 C 
BRANCH  33  34
HETATM   34  N   UNL     1     -43.654  60.786 -57.513  1.00  0.00    -0.070 N 
HETATM   35  H   UNL     1     -43.639  59.763 -57.649  1.00  0.00     0.279 HD
HETATM   36  C   UNL     1     -44.075  61.348 -58.855  1.00  0.00     0.235 C 
HETATM   37  C   UNL     1     -43.156  60.798 -59.937  1.00  0.00     0.028 C 
HETATM   38  C   UNL     1     -41.686  61.075 -59.633  1.00  0.00     0.003 C 
HETATM   39  C   UNL     1     -41.299  60.582 -58.241  1.00  0.00     0.028 C 
HETATM   40  C   UNL     1     -42.223  61.141 -57.167  1.00  0.00     0.235 C 
ENDBRANCH  33  34
ENDBRANCH  32  33
ENDBRANCH   6  32
TORSDOF 9
ENDMDL
