MODEL 1
REMARK VINA RESULT:      -7.3      0.000      0.000
REMARK  9 active torsions:
REMARK  status: ('A' for Active; 'I' for Inactive)
REMARK    1  A    between atoms: C_5  and  C_6 
REMARK    2  A    between atoms: C_8  and  C_9 
REMARK    3  A    between atoms: C_9  and  C_10 
REMARK       I    between atoms: C_10  and  N_11 
REMARK    4  A    between atoms: N_11  and  C_12 
REMARK    5  A    between atoms: C_12  and  C_13 
REMARK    6  A    between atoms: C_13  and  N_14 
REMARK    7  A    between atoms: C_28  and  C_29 
REMARK    8  A    between atoms: C_29  and  O_30 
REMARK    9  A    between atoms: O_30  and  C_31 
ROOT
HETATM    1  C   UNL     1     -42.853  58.134 -52.242  1.00  0.00     0.166 C 
HETATM    2  N   UNL     1     -42.432  56.648 -52.083  1.00  0.00    -0.319 N 
HETATM    3  C   UNL     1     -41.690  55.741 -52.728  1.00  0.00     0.011 C 
HETATM    4  C   UNL     1     -41.949  56.554 -50.678  1.00  0.00     0.170 C 
HETATM    5  S   UNL     1     -41.701  54.941 -50.141  1.00  0.00    -0.086 SA
HETATM    6  C   UNL     1     -40.905  54.779 -51.767  1.00  0.00     0.135 C 
HETATM    7  N   UNL     1     -41.244  57.540 -50.262  1.00  0.00    -0.229 NA
HETATM    8  C   UNL     1     -40.957  58.635 -51.170  1.00  0.00     0.048 C 
HETATM    9  C   UNL     1     -39.992  59.425 -50.280  1.00  0.00     0.071 C 
HETATM   10  C   UNL     1     -41.431  58.868 -52.488  1.00  0.00     0.069 C 
ENDROOT
BRANCH   3  11
HETATM   11  C   UNL     1     -41.171  55.747 -54.165  1.00  0.00     0.156 C 
BRANCH  11  12
HETATM   12  C   UNL     1     -42.184  55.736 -55.302  1.00  0.00     0.223 C 
HETATM   13  N   UNL     1     -41.942  56.642 -56.316  1.00  0.00    -0.359 N 
HETATM   14  H   UNL     1     -41.146  57.269 -56.203  1.00  0.00     0.162 HD
HETATM   15  O   UNL     1     -43.141  54.967 -55.309  1.00  0.00    -0.273 OA
BRANCH  13  16
HETATM   16  C   UNL     1     -42.849  57.054 -57.404  1.00  0.00     0.150 C 
BRANCH  16  17
HETATM   17  C   UNL     1     -43.312  56.063 -58.509  1.00  0.00     0.254 C 
BRANCH  17  18
HETATM   18  N   UNL     1     -44.773  56.194 -58.926  1.00  0.00    -0.070 N 
HETATM   19  H   UNL     1     -45.277  55.495 -58.341  1.00  0.00     0.279 HD
HETATM   20  C   UNL     1     -45.335  57.544 -58.605  1.00  0.00     0.235 C 
HETATM   21  C   UNL     1     -46.788  57.669 -59.020  1.00  0.00     0.028 C 
HETATM   22  C   UNL     1     -47.000  57.323 -60.480  1.00  0.00     0.003 C 
HETATM   23  C   UNL     1     -46.460  55.929 -60.754  1.00  0.00     0.028 C 
HETATM   24  C   UNL     1     -44.983  55.823 -60.381  1.00  0.00     0.235 C 
ENDBRANCH  17  18
ENDBRANCH  16  17
ENDBRANCH  13  16
ENDBRANCH  11  12
ENDBRANCH   3  11
BRANCH   1  25
HETATM   25  C   UNL     1     -43.666  59.255 -51.202  1.00  0.00    -0.030 C 
HETATM   26  C   UNL     1     -43.627  60.669 -51.341  1.00  0.00     0.010 C 
HETATM   27  C   UNL     1     -44.801  61.434 -51.660  1.00  0.00     0.007 C 
HETATM   28  C   UNL     1     -46.043  60.823 -51.834  1.00  0.00    -0.062 C 
HETATM   29  C   UNL     1     -47.253  61.538 -52.387  1.00  0.00     0.048 C 
HETATM   30  C   UNL     1     -46.132  59.508 -51.392  1.00  0.00     0.007 C 
HETATM   31  C   UNL     1     -44.986  58.807 -50.935  1.00  0.00     0.010 C 
ENDBRANCH   1  25
BRANCH  10  32
HETATM   32  C   UNL     1     -41.996  59.105 -54.010  1.00  0.00     0.294 C 
HETATM   33  O   UNL     1     -41.172  59.401 -54.914  1.00  0.00    -0.259 OA
BRANCH  32  34
HETATM   34  O   UNL     1     -43.289  58.945 -54.339  1.00  0.00    -0.313 OA
BRANCH  34  35
HETATM   35  C   UNL     1     -44.064  59.866 -55.275  1.00  0.00     0.124 C 
HETATM   36  C   UNL     1     -45.580  59.660 -55.500  1.00  0.00     0.040 C 
HETATM   37  C   UNL     1     -43.851  61.381 -55.063  1.00  0.00     0.040 C 
ENDBRANCH  34  35
ENDBRANCH  32  34
ENDBRANCH  10  32
TORSDOF 9
ENDMDL
MODEL 2
REMARK VINA RESULT:      -7.1      2.133      4.788
REMARK  9 active torsions:
REMARK  status: ('A' for Active; 'I' for Inactive)
REMARK    1  A    between atoms: C_5  and  C_6 
REMARK    2  A    between atoms: C_8  and  C_9 
REMARK    3  A    between atoms: C_9  and  C_10 
REMARK       I    between atoms: C_10  and  N_11 
REMARK    4  A    between atoms: N_11  and  C_12 
REMARK    5  A    between atoms: C_12  and  C_13 
REMARK    6  A    between atoms: C_13  and  N_14 
REMARK    7  A    between atoms: C_28  and  C_29 
REMARK    8  A    between atoms: C_29  and  O_30 
REMARK    9  A    between atoms: O_30  and  C_31 
ROOT
HETATM    1  C   UNL     1     -43.127  58.341 -52.385  1.00  0.00     0.166 C 
HETATM    2  N   UNL     1     -42.853  59.864 -52.516  1.00  0.00    -0.319 N 
HETATM    3  C   UNL     1     -43.110  60.859 -53.370  1.00  0.00     0.011 C 
HETATM    4  C   UNL     1     -43.265  60.422 -51.198  1.00  0.00     0.170 C 
HETATM    5  S   UNL     1     -42.784  62.055 -50.962  1.00  0.00    -0.086 SA
HETATM    6  C   UNL     1     -43.404  62.230 -52.662  1.00  0.00     0.135 C 
HETATM    7  N   UNL     1     -44.337  59.935 -50.695  1.00  0.00    -0.229 NA
HETATM    8  C   UNL     1     -45.064  58.919 -51.432  1.00  0.00     0.048 C 
HETATM    9  C   UNL     1     -46.290  58.807 -50.520  1.00  0.00     0.071 C 
HETATM   10  C   UNL     1     -44.723  58.258 -52.642  1.00  0.00     0.069 C 
ENDROOT
BRANCH   3  11
HETATM   11  C   UNL     1     -43.560  60.803 -54.830  1.00  0.00     0.156 C 
BRANCH  11  12
HETATM   12  C   UNL     1     -42.686  60.058 -55.829  1.00  0.00     0.223 C 
HETATM   13  N   UNL     1     -43.339  59.598 -56.956  1.00  0.00    -0.359 N 
HETATM   14  H   UNL     1     -44.345  59.748 -57.006  1.00  0.00     0.162 HD
HETATM   15  O   UNL     1     -41.484  59.889 -55.638  1.00  0.00    -0.273 OA
BRANCH  13  16
HETATM   16  C   UNL     1     -42.848  58.639 -57.964  1.00  0.00     0.150 C 
BRANCH  16  17
HETATM   17  C   UNL     1     -42.939  57.101 -57.750  1.00  0.00     0.254 C 
BRANCH  17  18
HETATM   18  N   UNL     1     -44.128  56.423 -58.420  1.00  0.00    -0.070 N 
HETATM   19  H   UNL     1     -44.624  55.935 -57.646  1.00  0.00     0.279 HD
HETATM   20  C   UNL     1     -45.081  57.412 -59.017  1.00  0.00     0.235 C 
HETATM   21  C   UNL     1     -46.263  56.732 -59.683  1.00  0.00     0.028 C 
HETATM   22  C   UNL     1     -45.831  55.704 -60.708  1.00  0.00     0.003 C 
HETATM   23  C   UNL     1     -44.904  54.693 -60.053  1.00  0.00     0.028 C 
HETATM   24  C   UNL     1     -43.690  55.377 -59.428  1.00  0.00     0.235 C 
ENDBRANCH  17  18
ENDBRANCH  16  17
ENDBRANCH  13  16
ENDBRANCH  11  12
ENDBRANCH   3  11
BRANCH   1  25
HETATM   25  C   UNL     1     -42.905  57.201 -51.100  1.00  0.00    -0.030 C 
HETATM   26  C   UNL     1     -43.613  55.975 -50.969  1.00  0.00     0.010 C 
HETATM   27  C   UNL     1     -42.953  54.702 -51.060  1.00  0.00     0.007 C 
HETATM   28  C   UNL     1     -41.576  54.610 -51.268  1.00  0.00    -0.062 C 
HETATM   29  C   UNL     1     -40.868  53.316 -51.597  1.00  0.00     0.048 C 
HETATM   30  C   UNL     1     -40.861  55.787 -51.081  1.00  0.00     0.007 C 
HETATM   31  C   UNL     1     -41.522  57.019 -50.841  1.00  0.00     0.010 C 
ENDBRANCH   1  25
BRANCH  10  32
HETATM   32  C   UNL     1     -44.300  57.514 -54.042  1.00  0.00     0.294 C 
HETATM   33  O   UNL     1     -45.130  57.506 -54.988  1.00  0.00    -0.259 OA
BRANCH  32  34
HETATM   34  O   UNL     1     -43.090  56.963 -54.236  1.00  0.00    -0.313 OA
BRANCH  34  35
HETATM   35  C   UNL     1     -42.853  55.598 -54.870  1.00  0.00     0.124 C 
HETATM   36  C   UNL     1     -41.427  55.004 -54.943  1.00  0.00     0.040 C 
HETATM   37  C   UNL     1     -43.782  54.459 -54.396  1.00  0.00     0.040 C 
ENDBRANCH  34  35
ENDBRANCH  32  34
ENDBRANCH  10  32
TORSDOF 9
ENDMDL
MODEL 3
REMARK VINA RESULT:      -7.1      2.341      5.287
REMARK  9 active torsions:
REMARK  status: ('A' for Active; 'I' for Inactive)
REMARK    1  A    between atoms: C_5  and  C_6 
REMARK    2  A    between atoms: C_8  and  C_9 
REMARK    3  A    between atoms: C_9  and  C_10 
REMARK       I    between atoms: C_10  and  N_11 
REMARK    4  A    between atoms: N_11  and  C_12 
REMARK    5  A    between atoms: C_12  and  C_13 
REMARK    6  A    between atoms: C_13  and  N_14 
REMARK    7  A    between atoms: C_28  and  C_29 
REMARK    8  A    between atoms: C_29  and  O_30 
REMARK    9  A    between atoms: O_30  and  C_31 
ROOT
HETATM    1  C   UNL     1     -42.071  57.495 -52.082  1.00  0.00     0.166 C 
HETATM    2  N   UNL     1     -41.877  59.031 -52.210  1.00  0.00    -0.319 N 
HETATM    3  C   UNL     1     -41.915  59.970 -53.160  1.00  0.00     0.011 C 
HETATM    4  C   UNL     1     -42.728  59.597 -51.127  1.00  0.00     0.170 C 
HETATM    5  S   UNL     1     -42.464  61.271 -50.849  1.00  0.00    -0.086 SA
HETATM    6  C   UNL     1     -42.516  61.334 -52.665  1.00  0.00     0.135 C 
HETATM    7  N   UNL     1     -43.868  59.037 -50.962  1.00  0.00    -0.229 NA
HETATM    8  C   UNL     1     -44.248  57.938 -51.830  1.00  0.00     0.048 C 
HETATM    9  C   UNL     1     -45.690  57.753 -51.350  1.00  0.00     0.071 C 
HETATM   10  C   UNL     1     -43.490  57.267 -52.827  1.00  0.00     0.069 C 
ENDROOT
BRANCH   3  11
HETATM   11  C   UNL     1     -41.867  59.825 -54.681  1.00  0.00     0.156 C 
BRANCH  11  12
HETATM   12  C   UNL     1     -43.102  60.206 -55.485  1.00  0.00     0.223 C 
HETATM   13  N   UNL     1     -44.148  59.306 -55.420  1.00  0.00    -0.359 N 
HETATM   14  H   UNL     1     -43.995  58.450 -54.888  1.00  0.00     0.162 HD
HETATM   15  O   UNL     1     -43.156  61.245 -56.137  1.00  0.00    -0.273 OA
BRANCH  13  16
HETATM   16  C   UNL     1     -45.355  59.250 -56.267  1.00  0.00     0.150 C 
BRANCH  16  17
HETATM   17  C   UNL     1     -45.407  58.398 -57.567  1.00  0.00     0.254 C 
BRANCH  17  18
HETATM   18  N   UNL     1     -44.063  57.861 -58.044  1.00  0.00    -0.070 N 
HETATM   19  H   UNL     1     -43.512  57.718 -57.173  1.00  0.00     0.279 HD
HETATM   20  C   UNL     1     -44.192  56.532 -58.722  1.00  0.00     0.235 C 
HETATM   21  C   UNL     1     -42.852  56.002 -59.195  1.00  0.00     0.028 C 
HETATM   22  C   UNL     1     -42.120  56.994 -60.075  1.00  0.00     0.003 C 
HETATM   23  C   UNL     1     -41.967  58.313 -59.335  1.00  0.00     0.028 C 
HETATM   24  C   UNL     1     -43.324  58.868 -58.905  1.00  0.00     0.235 C 
ENDBRANCH  17  18
ENDBRANCH  16  17
ENDBRANCH  13  16
ENDBRANCH  11  12
ENDBRANCH   3  11
BRANCH   1  25
HETATM   25  C   UNL     1     -42.194  56.423 -50.727  1.00  0.00    -0.030 C 
HETATM   26  C   UNL     1     -42.966  55.230 -50.702  1.00  0.00     0.010 C 
HETATM   27  C   UNL     1     -42.359  53.934 -50.579  1.00  0.00     0.007 C 
HETATM   28  C   UNL     1     -40.976  53.787 -50.464  1.00  0.00    -0.062 C 
HETATM   29  C   UNL     1     -40.269  52.455 -50.560  1.00  0.00     0.048 C 
HETATM   30  C   UNL     1     -40.270  54.949 -50.176  1.00  0.00     0.007 C 
HETATM   31  C   UNL     1     -40.915  56.212 -50.151  1.00  0.00     0.010 C 
ENDBRANCH   1  25
BRANCH  10  32
HETATM   32  C   UNL     1     -42.589  56.515 -53.973  1.00  0.00     0.294 C 
HETATM   33  O   UNL     1     -43.022  56.493 -55.154  1.00  0.00    -0.259 OA
BRANCH  32  34
HETATM   34  O   UNL     1     -41.388  55.971 -53.713  1.00  0.00    -0.313 OA
BRANCH  34  35
HETATM   35  C   UNL     1     -41.022  54.516 -53.978  1.00  0.00     0.124 C 
HETATM   36  C   UNL     1     -42.127  53.444 -54.125  1.00  0.00     0.040 C 
HETATM   37  C   UNL     1     -40.012  54.267 -55.119  1.00  0.00     0.040 C 
ENDBRANCH  34  35
ENDBRANCH  32  34
ENDBRANCH  10  32
TORSDOF 9
ENDMDL
MODEL 4
REMARK VINA RESULT:      -7.0      2.719      6.986
REMARK  9 active torsions:
REMARK  status: ('A' for Active; 'I' for Inactive)
REMARK    1  A    between atoms: C_5  and  C_6 
REMARK    2  A    between atoms: C_8  and  C_9 
REMARK    3  A    between atoms: C_9  and  C_10 
REMARK       I    between atoms: C_10  and  N_11 
REMARK    4  A    between atoms: N_11  and  C_12 
REMARK    5  A    between atoms: C_12  and  C_13 
REMARK    6  A    between atoms: C_13  and  N_14 
REMARK    7  A    between atoms: C_28  and  C_29 
REMARK    8  A    between atoms: C_29  and  O_30 
REMARK    9  A    between atoms: O_30  and  C_31 
ROOT
HETATM    1  C   UNL     1     -44.199  59.688 -56.788  1.00  0.00     0.166 C 
HETATM    2  N   UNL     1     -44.119  59.654 -55.238  1.00  0.00    -0.319 N 
HETATM    3  C   UNL     1     -43.198  59.785 -54.279  1.00  0.00     0.011 C 
HETATM    4  C   UNL     1     -45.211  60.564 -54.796  1.00  0.00     0.170 C 
HETATM    5  S   UNL     1     -45.541  60.477 -53.113  1.00  0.00    -0.086 SA
HETATM    6  C   UNL     1     -43.728  60.527 -53.000  1.00  0.00     0.135 C 
HETATM    7  N   UNL     1     -45.351  61.641 -55.476  1.00  0.00    -0.229 NA
HETATM    8  C   UNL     1     -44.448  61.900 -56.582  1.00  0.00     0.048 C 
HETATM    9  C   UNL     1     -44.910  63.318 -56.929  1.00  0.00     0.071 C 
HETATM   10  C   UNL     1     -43.437  61.072 -57.139  1.00  0.00     0.069 C 
ENDROOT
BRANCH   3  11
HETATM   11  C   UNL     1     -41.673  59.714 -54.371  1.00  0.00     0.156 C 
BRANCH  11  12
HETATM   12  C   UNL     1     -40.925  58.853 -53.363  1.00  0.00     0.223 C 
HETATM   13  N   UNL     1     -41.602  57.728 -52.931  1.00  0.00    -0.359 N 
HETATM   14  H   UNL     1     -42.551  57.592 -53.278  1.00  0.00     0.162 HD
HETATM   15  O   UNL     1     -39.798  59.144 -52.972  1.00  0.00    -0.273 OA
BRANCH  13  16
HETATM   16  C   UNL     1     -41.273  56.850 -51.792  1.00  0.00     0.150 C 
BRANCH  16  17
HETATM   17  C   UNL     1     -41.700  55.355 -51.757  1.00  0.00     0.254 C 
BRANCH  17  18
HETATM   18  N   UNL     1     -40.810  54.408 -52.555  1.00  0.00    -0.070 N 
HETATM   19  H   UNL     1     -39.868  54.850 -52.531  1.00  0.00     0.279 HD
HETATM   20  C   UNL     1     -40.697  53.061 -51.913  1.00  0.00     0.235 C 
HETATM   21  C   UNL     1     -39.810  52.123 -52.710  1.00  0.00     0.028 C 
HETATM   22  C   UNL     1     -40.253  52.003 -54.154  1.00  0.00     0.003 C 
HETATM   23  C   UNL     1     -40.310  53.386 -54.783  1.00  0.00     0.028 C 
HETATM   24  C   UNL     1     -41.243  54.311 -54.006  1.00  0.00     0.235 C 
ENDBRANCH  17  18
ENDBRANCH  16  17
ENDBRANCH  13  16
ENDBRANCH  11  12
ENDBRANCH   3  11
BRANCH   1  25
HETATM   25  C   UNL     1     -45.520  59.706 -57.908  1.00  0.00    -0.030 C 
HETATM   26  C   UNL     1     -45.387  59.730 -59.323  1.00  0.00     0.010 C 
HETATM   27  C   UNL     1     -45.824  58.637 -60.147  1.00  0.00     0.007 C 
HETATM   28  C   UNL     1     -46.418  57.501 -59.593  1.00  0.00    -0.062 C 
HETATM   29  C   UNL     1     -46.687  56.237 -60.376  1.00  0.00     0.048 C 
HETATM   30  C   UNL     1     -46.824  57.621 -58.270  1.00  0.00     0.007 C 
HETATM   31  C   UNL     1     -46.515  58.776 -57.508  1.00  0.00     0.010 C 
ENDBRANCH   1  25
BRANCH  10  32
HETATM   32  C   UNL     1     -42.276  60.092 -57.759  1.00  0.00     0.294 C 
HETATM   33  O   UNL     1     -41.120  60.562 -57.918  1.00  0.00    -0.259 OA
BRANCH  32  34
HETATM   34  O   UNL     1     -42.496  58.799 -58.051  1.00  0.00    -0.313 OA
BRANCH  34  35
HETATM   35  C   UNL     1     -42.039  58.112 -59.333  1.00  0.00     0.124 C 
HETATM   36  C   UNL     1     -42.620  56.737 -59.735  1.00  0.00     0.040 C 
HETATM   37  C   UNL     1     -42.045  58.984 -60.608  1.00  0.00     0.040 C 
ENDBRANCH  34  35
ENDBRANCH  32  34
ENDBRANCH  10  32
TORSDOF 9
ENDMDL
MODEL 5
REMARK VINA RESULT:      -7.0      2.749      6.632
REMARK  9 active torsions:
REMARK  status: ('A' for Active; 'I' for Inactive)
REMARK    1  A    between atoms: C_5  and  C_6 
REMARK    2  A    between atoms: C_8  and  C_9 
REMARK    3  A    between atoms: C_9  and  C_10 
REMARK       I    between atoms: C_10  and  N_11 
REMARK    4  A    between atoms: N_11  and  C_12 
REMARK    5  A    between atoms: C_12  and  C_13 
REMARK    6  A    between atoms: C_13  and  N_14 
REMARK    7  A    between atoms: C_28  and  C_29 
REMARK    8  A    between atoms: C_29  and  O_30 
REMARK    9  A    between atoms: O_30  and  C_31 
ROOT
HETATM    1  C   UNL     1     -44.124  60.031 -54.836  1.00  0.00     0.166 C 
HETATM    2  N   UNL     1     -45.411  60.452 -54.075  1.00  0.00    -0.319 N 
HETATM    3  C   UNL     1     -45.797  60.701 -52.820  1.00  0.00     0.011 C 
HETATM    4  C   UNL     1     -45.914  61.630 -54.834  1.00  0.00     0.170 C 
HETATM    5  S   UNL     1     -47.500  62.112 -54.382  1.00  0.00    -0.086 SA
HETATM    6  C   UNL     1     -46.835  61.875 -52.707  1.00  0.00     0.135 C 
HETATM    7  N   UNL     1     -45.024  62.459 -55.235  1.00  0.00    -0.229 NA
HETATM    8  C   UNL     1     -43.632  62.211 -54.912  1.00  0.00     0.048 C 
HETATM    9  C   UNL     1     -43.035  63.516 -55.445  1.00  0.00     0.071 C 
HETATM   10  C   UNL     1     -43.034  61.090 -54.276  1.00  0.00     0.069 C 
ENDROOT
BRANCH   3  11
HETATM   11  C   UNL     1     -45.119  60.340 -51.499  1.00  0.00     0.156 C 
BRANCH  11  12
HETATM   12  C   UNL     1     -45.379  58.963 -50.904  1.00  0.00     0.223 C 
HETATM   13  N   UNL     1     -44.335  58.065 -51.017  1.00  0.00    -0.359 N 
HETATM   14  H   UNL     1     -43.506  58.374 -51.523  1.00  0.00     0.162 HD
HETATM   15  O   UNL     1     -46.443  58.683 -50.360  1.00  0.00    -0.273 OA
BRANCH  13  16
HETATM   16  C   UNL     1     -44.358  56.608 -50.784  1.00  0.00     0.150 C 
BRANCH  16  17
HETATM   17  C   UNL     1     -43.207  55.680 -51.265  1.00  0.00     0.254 C 
BRANCH  17  18
HETATM   18  N   UNL     1     -42.728  55.930 -52.691  1.00  0.00    -0.070 N 
HETATM   19  H   UNL     1     -42.952  56.930 -52.873  1.00  0.00     0.279 HD
HETATM   20  C   UNL     1     -41.246  55.764 -52.828  1.00  0.00     0.235 C 
HETATM   21  C   UNL     1     -40.774  56.014 -54.248  1.00  0.00     0.028 C 
HETATM   22  C   UNL     1     -41.513  55.159 -55.257  1.00  0.00     0.003 C 
HETATM   23  C   UNL     1     -43.009  55.390 -55.118  1.00  0.00     0.028 C 
HETATM   24  C   UNL     1     -43.488  55.089 -53.699  1.00  0.00     0.235 C 
ENDBRANCH  17  18
ENDBRANCH  16  17
ENDBRANCH  13  16
ENDBRANCH  11  12
ENDBRANCH   3  11
BRANCH   1  25
HETATM   25  C   UNL     1     -43.715  59.943 -56.517  1.00  0.00    -0.030 C 
HETATM   26  C   UNL     1     -42.443  59.562 -57.025  1.00  0.00     0.010 C 
HETATM   27  C   UNL     1     -42.261  58.365 -57.799  1.00  0.00     0.007 C 
HETATM   28  C   UNL     1     -43.334  57.525 -58.102  1.00  0.00    -0.062 C 
HETATM   29  C   UNL     1     -43.170  56.151 -58.710  1.00  0.00     0.048 C 
HETATM   30  C   UNL     1     -44.597  58.058 -57.877  1.00  0.00     0.007 C 
HETATM   31  C   UNL     1     -44.761  59.317 -57.244  1.00  0.00     0.010 C 
ENDBRANCH   1  25
BRANCH  10  32
HETATM   32  C   UNL     1     -42.377  59.781 -53.536  1.00  0.00     0.294 C 
HETATM   33  O   UNL     1     -43.000  58.689 -53.590  1.00  0.00    -0.259 OA
BRANCH  32  34
HETATM   34  O   UNL     1     -41.181  59.816 -52.924  1.00  0.00    -0.313 OA
BRANCH  34  35
HETATM   35  C   UNL     1     -40.939  59.411 -51.475  1.00  0.00     0.124 C 
HETATM   36  C   UNL     1     -39.503  59.149 -50.963  1.00  0.00     0.040 C 
HETATM   37  C   UNL     1     -41.639  60.275 -50.403  1.00  0.00     0.040 C 
ENDBRANCH  34  35
ENDBRANCH  32  34
ENDBRANCH  10  32
TORSDOF 9
ENDMDL
MODEL 6
REMARK VINA RESULT:      -6.9      2.994      6.495
REMARK  9 active torsions:
REMARK  status: ('A' for Active; 'I' for Inactive)
REMARK    1  A    between atoms: C_5  and  C_6 
REMARK    2  A    between atoms: C_8  and  C_9 
REMARK    3  A    between atoms: C_9  and  C_10 
REMARK       I    between atoms: C_10  and  N_11 
REMARK    4  A    between atoms: N_11  and  C_12 
REMARK    5  A    between atoms: C_12  and  C_13 
REMARK    6  A    between atoms: C_13  and  N_14 
REMARK    7  A    between atoms: C_28  and  C_29 
REMARK    8  A    between atoms: C_29  and  O_30 
REMARK    9  A    between atoms: O_30  and  C_31 
ROOT
HETATM    1  C   UNL     1     -43.245  58.582 -55.365  1.00  0.00     0.166 C 
HETATM    2  N   UNL     1     -42.633  58.060 -56.694  1.00  0.00    -0.319 N 
HETATM    3  C   UNL     1     -42.672  56.960 -57.451  1.00  0.00     0.011 C 
HETATM    4  C   UNL     1     -42.883  59.160 -57.666  1.00  0.00     0.170 C 
HETATM    5  S   UNL     1     -42.038  58.970 -59.150  1.00  0.00    -0.086 SA
HETATM    6  C   UNL     1     -42.633  57.260 -58.992  1.00  0.00     0.135 C 
HETATM    7  N   UNL     1     -44.028  59.727 -57.587  1.00  0.00    -0.229 NA
HETATM    8  C   UNL     1     -44.982  59.257 -56.599  1.00  0.00     0.048 C 
HETATM    9  C   UNL     1     -46.184  60.109 -57.017  1.00  0.00     0.071 C 
HETATM   10  C   UNL     1     -44.823  58.285 -55.576  1.00  0.00     0.069 C 
ENDROOT
BRANCH   3  11
HETATM   11  C   UNL     1     -43.149  55.549 -57.103  1.00  0.00     0.156 C 
BRANCH  11  12
HETATM   12  C   UNL     1     -42.469  54.817 -55.954  1.00  0.00     0.223 C 
HETATM   13  N   UNL     1     -41.182  55.232 -55.670  1.00  0.00    -0.359 N 
HETATM   14  H   UNL     1     -40.779  55.949 -56.272  1.00  0.00     0.162 HD
HETATM   15  O   UNL     1     -43.036  53.926 -55.328  1.00  0.00    -0.273 OA
BRANCH  13  16
HETATM   16  C   UNL     1     -40.181  54.569 -54.813  1.00  0.00     0.150 C 
BRANCH  16  17
HETATM   17  C   UNL     1     -40.515  54.103 -53.368  1.00  0.00     0.254 C 
BRANCH  17  18
HETATM   18  N   UNL     1     -40.554  52.592 -53.168  1.00  0.00    -0.070 N 
HETATM   19  H   UNL     1     -41.533  52.391 -52.874  1.00  0.00     0.279 HD
HETATM   20  C   UNL     1     -40.299  51.846 -54.440  1.00  0.00     0.235 C 
HETATM   21  C   UNL     1     -40.340  50.343 -54.236  1.00  0.00     0.028 C 
HETATM   22  C   UNL     1     -39.400  49.887 -53.139  1.00  0.00     0.003 C 
HETATM   23  C   UNL     1     -39.722  50.632 -51.854  1.00  0.00     0.028 C 
HETATM   24  C   UNL     1     -39.630  52.144 -52.052  1.00  0.00     0.235 C 
ENDBRANCH  17  18
ENDBRANCH  16  17
ENDBRANCH  13  16
ENDBRANCH  11  12
ENDBRANCH   3  11
BRANCH   1  25
HETATM   25  C   UNL     1     -43.265  60.134 -54.597  1.00  0.00    -0.030 C 
HETATM   26  C   UNL     1     -44.368  60.672 -53.879  1.00  0.00     0.010 C 
HETATM   27  C   UNL     1     -44.304  60.928 -52.467  1.00  0.00     0.007 C 
HETATM   28  C   UNL     1     -43.145  60.673 -51.733  1.00  0.00    -0.062 C 
HETATM   29  C   UNL     1     -43.091  60.706 -50.224  1.00  0.00     0.048 C 
HETATM   30  C   UNL     1     -41.996  60.452 -52.483  1.00  0.00     0.007 C 
HETATM   31  C   UNL     1     -42.050  60.351 -53.897  1.00  0.00     0.010 C 
ENDBRANCH   1  25
BRANCH  10  32
HETATM   32  C   UNL     1     -44.606  57.157 -54.405  1.00  0.00     0.294 C 
HETATM   33  O   UNL     1     -45.348  56.140 -54.410  1.00  0.00    -0.259 OA
BRANCH  32  34
HETATM   34  O   UNL     1     -43.637  57.247 -53.478  1.00  0.00    -0.313 OA
BRANCH  34  35
HETATM   35  C   UNL     1     -43.796  56.838 -52.019  1.00  0.00     0.124 C 
HETATM   36  C   UNL     1     -42.567  56.779 -51.082  1.00  0.00     0.040 C 
HETATM   37  C   UNL     1     -44.917  57.552 -51.232  1.00  0.00     0.040 C 
ENDBRANCH  34  35
ENDBRANCH  32  34
ENDBRANCH  10  32
TORSDOF 9
ENDMDL
MODEL 7
REMARK VINA RESULT:      -6.7      3.335      7.511
REMARK  9 active torsions:
REMARK  status: ('A' for Active; 'I' for Inactive)
REMARK    1  A    between atoms: C_5  and  C_6 
REMARK    2  A    between atoms: C_8  and  C_9 
REMARK    3  A    between atoms: C_9  and  C_10 
REMARK       I    between atoms: C_10  and  N_11 
REMARK    4  A    between atoms: N_11  and  C_12 
REMARK    5  A    between atoms: C_12  and  C_13 
REMARK    6  A    between atoms: C_13  and  N_14 
REMARK    7  A    between atoms: C_28  and  C_29 
REMARK    8  A    between atoms: C_29  and  O_30 
REMARK    9  A    between atoms: O_30  and  C_31 
ROOT
HETATM    1  C   UNL     1     -43.861  58.689 -58.115  1.00  0.00     0.166 C 
HETATM    2  N   UNL     1     -43.594  58.467 -56.601  1.00  0.00    -0.319 N 
HETATM    3  C   UNL     1     -42.914  57.627 -55.816  1.00  0.00     0.011 C 
HETATM    4  C   UNL     1     -43.192  59.811 -56.101  1.00  0.00     0.170 C 
HETATM    5  S   UNL     1     -43.129  59.917 -54.388  1.00  0.00    -0.086 SA
HETATM    6  C   UNL     1     -42.274  58.323 -54.562  1.00  0.00     0.135 C 
HETATM    7  N   UNL     1     -42.416  60.484 -56.867  1.00  0.00    -0.229 NA
HETATM    8  C   UNL     1     -41.980  59.897 -58.121  1.00  0.00     0.048 C 
HETATM    9  C   UNL     1     -40.988  60.983 -58.549  1.00  0.00     0.071 C 
HETATM   10  C   UNL     1     -42.363  58.674 -58.731  1.00  0.00     0.069 C 
ENDROOT
BRANCH   3  11
HETATM   11  C   UNL     1     -42.326  56.252 -56.133  1.00  0.00     0.156 C 
BRANCH  11  12
HETATM   12  C   UNL     1     -42.537  55.125 -55.132  1.00  0.00     0.223 C 
HETATM   13  N   UNL     1     -41.448  54.298 -54.936  1.00  0.00    -0.359 N 
HETATM   14  H   UNL     1     -40.620  54.474 -55.503  1.00  0.00     0.162 HD
HETATM   15  O   UNL     1     -43.604  54.974 -54.541  1.00  0.00    -0.273 OA
BRANCH  13  16
HETATM   16  C   UNL     1     -41.408  52.993 -54.248  1.00  0.00     0.150 C 
BRANCH  16  17
HETATM   17  C   UNL     1     -40.468  52.731 -53.037  1.00  0.00     0.254 C 
BRANCH  17  18
HETATM   18  N   UNL     1     -40.603  53.722 -51.886  1.00  0.00    -0.070 N 
HETATM   19  H   UNL     1     -40.287  54.631 -52.284  1.00  0.00     0.279 HD
HETATM   20  C   UNL     1     -42.024  53.888 -51.445  1.00  0.00     0.235 C 
HETATM   21  C   UNL     1     -42.152  54.876 -50.301  1.00  0.00     0.028 C 
HETATM   22  C   UNL     1     -41.256  54.520 -49.132  1.00  0.00     0.003 C 
HETATM   23  C   UNL     1     -39.818  54.407 -49.611  1.00  0.00     0.028 C 
HETATM   24  C   UNL     1     -39.686  53.375 -50.729  1.00  0.00     0.235 C 
ENDBRANCH  17  18
ENDBRANCH  16  17
ENDBRANCH  13  16
ENDBRANCH  11  12
ENDBRANCH   3  11
BRANCH   1  25
HETATM   25  C   UNL     1     -44.611  59.966 -59.013  1.00  0.00    -0.030 C 
HETATM   26  C   UNL     1     -44.697  60.021 -60.431  1.00  0.00     0.010 C 
HETATM   27  C   UNL     1     -45.957  59.956 -61.119  1.00  0.00     0.007 C 
HETATM   28  C   UNL     1     -47.161  59.850 -60.423  1.00  0.00    -0.062 C 
HETATM   29  C   UNL     1     -48.485  59.552 -61.089  1.00  0.00     0.048 C 
HETATM   30  C   UNL     1     -47.092  60.112 -59.060  1.00  0.00     0.007 C 
HETATM   31  C   UNL     1     -45.847  60.325 -58.415  1.00  0.00     0.010 C 
ENDBRANCH   1  25
BRANCH  10  32
HETATM   32  C   UNL     1     -42.827  57.253 -59.408  1.00  0.00     0.294 C 
HETATM   33  O   UNL     1     -42.066  56.719 -60.257  1.00  0.00    -0.259 OA
BRANCH  32  34
HETATM   34  O   UNL     1     -43.955  56.613 -59.056  1.00  0.00    -0.313 OA
BRANCH  34  35
HETATM   35  C   UNL     1     -44.820  55.796 -60.009  1.00  0.00     0.124 C 
HETATM   36  C   UNL     1     -44.851  54.253 -59.911  1.00  0.00     0.040 C 
HETATM   37  C   UNL     1     -46.285  56.259 -60.160  1.00  0.00     0.040 C 
ENDBRANCH  34  35
ENDBRANCH  32  34
ENDBRANCH  10  32
TORSDOF 9
ENDMDL
MODEL 8
REMARK VINA RESULT:      -6.7      2.916      7.179
REMARK  9 active torsions:
REMARK  status: ('A' for Active; 'I' for Inactive)
REMARK    1  A    between atoms: C_5  and  C_6 
REMARK    2  A    between atoms: C_8  and  C_9 
REMARK    3  A    between atoms: C_9  and  C_10 
REMARK       I    between atoms: C_10  and  N_11 
REMARK    4  A    between atoms: N_11  and  C_12 
REMARK    5  A    between atoms: C_12  and  C_13 
REMARK    6  A    between atoms: C_13  and  N_14 
REMARK    7  A    between atoms: C_28  and  C_29 
REMARK    8  A    between atoms: C_29  and  O_30 
REMARK    9  A    between atoms: O_30  and  C_31 
ROOT
HETATM    1  C   UNL     1     -44.052  59.083 -56.577  1.00  0.00     0.166 C 
HETATM    2  N   UNL     1     -43.815  59.817 -55.230  1.00  0.00    -0.319 N 
HETATM    3  C   UNL     1     -43.026  59.712 -54.156  1.00  0.00     0.011 C 
HETATM    4  C   UNL     1     -43.689  61.251 -55.613  1.00  0.00     0.170 C 
HETATM    5  S   UNL     1     -43.720  62.326 -54.274  1.00  0.00    -0.086 SA
HETATM    6  C   UNL     1     -42.580  61.098 -53.569  1.00  0.00     0.135 C 
HETATM    7  N   UNL     1     -43.018  61.488 -56.678  1.00  0.00    -0.229 NA
HETATM    8  C   UNL     1     -42.427  60.377 -57.402  1.00  0.00     0.048 C 
HETATM    9  C   UNL     1     -41.634  61.176 -58.441  1.00  0.00     0.071 C 
HETATM   10  C   UNL     1     -42.553  58.980 -57.179  1.00  0.00     0.069 C 
ENDROOT
BRANCH   3  11
HETATM   11  C   UNL     1     -42.183  58.531 -53.675  1.00  0.00     0.156 C 
BRANCH  11  12
HETATM   12  C   UNL     1     -42.797  57.561 -52.675  1.00  0.00     0.223 C 
HETATM   13  N   UNL     1     -42.417  56.242 -52.823  1.00  0.00    -0.359 N 
HETATM   14  H   UNL     1     -41.805  56.017 -53.607  1.00  0.00     0.162 HD
HETATM   15  O   UNL     1     -43.570  57.938 -51.798  1.00  0.00    -0.273 OA
BRANCH  13  16
HETATM   16  C   UNL     1     -43.017  55.046 -52.200  1.00  0.00     0.150 C 
BRANCH  16  17
HETATM   17  C   UNL     1     -42.165  54.023 -51.396  1.00  0.00     0.254 C 
BRANCH  17  18
HETATM   18  N   UNL     1     -41.000  53.407 -52.163  1.00  0.00    -0.070 N 
HETATM   19  H   UNL     1     -40.299  54.173 -52.238  1.00  0.00     0.279 HD
HETATM   20  C   UNL     1     -40.361  52.280 -51.412  1.00  0.00     0.235 C 
HETATM   21  C   UNL     1     -39.202  51.670 -52.179  1.00  0.00     0.028 C 
HETATM   22  C   UNL     1     -39.601  51.238 -53.575  1.00  0.00     0.003 C 
HETATM   23  C   UNL     1     -40.201  52.421 -54.319  1.00  0.00     0.028 C 
HETATM   24  C   UNL     1     -41.399  52.999 -53.569  1.00  0.00     0.235 C 
ENDBRANCH  17  18
ENDBRANCH  16  17
ENDBRANCH  13  16
ENDBRANCH  11  12
ENDBRANCH   3  11
BRANCH   1  25
HETATM   25  C   UNL     1     -44.985  59.461 -57.986  1.00  0.00    -0.030 C 
HETATM   26  C   UNL     1     -44.609  59.145 -59.320  1.00  0.00     0.010 C 
HETATM   27  C   UNL     1     -45.359  58.219 -60.123  1.00  0.00     0.007 C 
HETATM   28  C   UNL     1     -46.507  57.596 -59.632  1.00  0.00    -0.062 C 
HETATM   29  C   UNL     1     -47.201  56.454 -60.338  1.00  0.00     0.048 C 
HETATM   30  C   UNL     1     -47.035  58.140 -58.468  1.00  0.00     0.007 C 
HETATM   31  C   UNL     1     -46.355  59.165 -57.762  1.00  0.00     0.010 C 
ENDBRANCH   1  25
BRANCH  10  32
HETATM   32  C   UNL     1     -42.718  57.373 -56.893  1.00  0.00     0.294 C 
HETATM   33  O   UNL     1     -42.054  56.862 -55.954  1.00  0.00    -0.259 OA
BRANCH  32  34
HETATM   34  O   UNL     1     -43.570  56.595 -57.583  1.00  0.00    -0.313 OA
BRANCH  34  35
HETATM   35  C   UNL     1     -43.160  55.644 -58.701  1.00  0.00     0.124 C 
HETATM   36  C   UNL     1     -44.201  54.705 -59.353  1.00  0.00     0.040 C 
HETATM   37  C   UNL     1     -42.342  56.265 -59.854  1.00  0.00     0.040 C 
ENDBRANCH  34  35
ENDBRANCH  32  34
ENDBRANCH  10  32
TORSDOF 9
ENDMDL
MODEL 9
REMARK VINA RESULT:      -6.6      2.887      7.354
REMARK  9 active torsions:
REMARK  status: ('A' for Active; 'I' for Inactive)
REMARK    1  A    between atoms: C_5  and  C_6 
REMARK    2  A    between atoms: C_8  and  C_9 
REMARK    3  A    between atoms: C_9  and  C_10 
REMARK       I    between atoms: C_10  and  N_11 
REMARK    4  A    between atoms: N_11  and  C_12 
REMARK    5  A    between atoms: C_12  and  C_13 
REMARK    6  A    between atoms: C_13  and  N_14 
REMARK    7  A    between atoms: C_28  and  C_29 
REMARK    8  A    between atoms: C_29  and  O_30 
REMARK    9  A    between atoms: O_30  and  C_31 
ROOT
HETATM    1  C   UNL     1     -44.887  58.268 -57.012  1.00  0.00     0.166 C 
HETATM    2  N   UNL     1     -45.024  58.026 -55.485  1.00  0.00    -0.319 N 
HETATM    3  C   UNL     1     -44.564  57.178 -54.559  1.00  0.00     0.011 C 
HETATM    4  C   UNL     1     -44.780  59.365 -54.880  1.00  0.00     0.170 C 
HETATM    5  S   UNL     1     -45.169  59.446 -53.209  1.00  0.00    -0.086 SA
HETATM    6  C   UNL     1     -44.282  57.860 -53.172  1.00  0.00     0.135 C 
HETATM    7  N   UNL     1     -43.838  60.053 -55.408  1.00  0.00    -0.229 NA
HETATM    8  C   UNL     1     -43.083  59.488 -56.511  1.00  0.00     0.048 C 
HETATM    9  C   UNL     1     -42.024  60.586 -56.651  1.00  0.00     0.071 C 
HETATM   10  C   UNL     1     -43.281  58.271 -57.216  1.00  0.00     0.069 C 
ENDROOT
BRANCH   3  11
HETATM   11  C   UNL     1     -43.900  55.811 -54.728  1.00  0.00     0.156 C 
BRANCH  11  12
HETATM   12  C   UNL     1     -42.447  55.654 -54.303  1.00  0.00     0.223 C 
HETATM   13  N   UNL     1     -42.249  54.956 -53.128  1.00  0.00    -0.359 N 
HETATM   14  H   UNL     1     -43.078  54.648 -52.622  1.00  0.00     0.162 HD
HETATM   15  O   UNL     1     -41.524  56.116 -54.969  1.00  0.00    -0.273 OA
BRANCH  13  16
HETATM   16  C   UNL     1     -41.014  54.856 -52.326  1.00  0.00     0.150 C 
BRANCH  16  17
HETATM   17  C   UNL     1     -40.799  53.720 -51.285  1.00  0.00     0.254 C 
BRANCH  17  18
HETATM   18  N   UNL     1     -39.994  52.526 -51.787  1.00  0.00    -0.070 N 
HETATM   19  H   UNL     1     -39.002  52.838 -51.737  1.00  0.00     0.279 HD
HETATM   20  C   UNL     1     -40.140  51.331 -50.897  1.00  0.00     0.235 C 
HETATM   21  C   UNL     1     -39.337  50.146 -51.399  1.00  0.00     0.028 C 
HETATM   22  C   UNL     1     -39.665  49.799 -52.837  1.00  0.00     0.003 C 
HETATM   23  C   UNL     1     -39.460  51.023 -53.714  1.00  0.00     0.028 C 
HETATM   24  C   UNL     1     -40.309  52.198 -53.234  1.00  0.00     0.235 C 
ENDBRANCH  17  18
ENDBRANCH  16  17
ENDBRANCH  13  16
ENDBRANCH  11  12
ENDBRANCH   3  11
BRANCH   1  25
HETATM   25  C   UNL     1     -45.389  59.552 -58.060  1.00  0.00    -0.030 C 
HETATM   26  C   UNL     1     -44.973  59.711 -59.410  1.00  0.00     0.010 C 
HETATM   27  C   UNL     1     -45.896  59.608 -60.507  1.00  0.00     0.007 C 
HETATM   28  C   UNL     1     -47.253  59.362 -60.295  1.00  0.00    -0.062 C 
HETATM   29  C   UNL     1     -48.221  59.021 -61.405  1.00  0.00     0.048 C 
HETATM   30  C   UNL     1     -47.695  59.522 -58.988  1.00  0.00     0.007 C 
HETATM   31  C   UNL     1     -46.785  59.774 -57.929  1.00  0.00     0.010 C 
ENDBRANCH   1  25
BRANCH  10  32
HETATM   32  C   UNL     1     -43.537  56.857 -58.008  1.00  0.00     0.294 C 
HETATM   33  O   UNL     1     -42.607  56.010 -58.034  1.00  0.00    -0.259 OA
BRANCH  32  34
HETATM   34  O   UNL     1     -44.713  56.547 -58.581  1.00  0.00    -0.313 OA
BRANCH  34  35
HETATM   35  C   UNL     1     -44.865  55.683 -59.827  1.00  0.00     0.124 C 
HETATM   36  C   UNL     1     -44.710  54.146 -59.740  1.00  0.00     0.040 C 
HETATM   37  C   UNL     1     -46.118  55.951 -60.690  1.00  0.00     0.040 C 
ENDBRANCH  34  35
ENDBRANCH  32  34
ENDBRANCH  10  32
TORSDOF 9
ENDMDL
MODEL 10
REMARK VINA RESULT:      -6.6      3.214      8.308
REMARK  9 active torsions:
REMARK  status: ('A' for Active; 'I' for Inactive)
REMARK    1  A    between atoms: C_5  and  C_6 
REMARK    2  A    between atoms: C_8  and  C_9 
REMARK    3  A    between atoms: C_9  and  C_10 
REMARK       I    between atoms: C_10  and  N_11 
REMARK    4  A    between atoms: N_11  and  C_12 
REMARK    5  A    between atoms: C_12  and  C_13 
REMARK    6  A    between atoms: C_13  and  N_14 
REMARK    7  A    between atoms: C_28  and  C_29 
REMARK    8  A    between atoms: C_29  and  O_30 
REMARK    9  A    between atoms: O_30  and  C_31 
ROOT
HETATM    1  C   UNL     1     -43.462  57.691 -55.060  1.00  0.00     0.166 C 
HETATM    2  N   UNL     1     -44.780  58.384 -55.502  1.00  0.00    -0.319 N 
HETATM    3  C   UNL     1     -45.318  59.607 -55.502  1.00  0.00     0.011 C 
HETATM    4  C   UNL     1     -44.990  57.912 -56.899  1.00  0.00     0.170 C 
HETATM    5  S   UNL     1     -46.543  58.290 -57.527  1.00  0.00    -0.086 SA
HETATM    6  C   UNL     1     -46.187  59.907 -56.776  1.00  0.00     0.135 C 
HETATM    7  N   UNL     1     -43.940  57.850 -57.631  1.00  0.00    -0.229 NA
HETATM    8  C   UNL     1     -42.664  58.253 -57.071  1.00  0.00     0.048 C 
HETATM    9  C   UNL     1     -41.815  58.157 -58.342  1.00  0.00     0.071 C 
HETATM   10  C   UNL     1     -42.336  58.633 -55.742  1.00  0.00     0.069 C 
ENDROOT
BRANCH   3  11
HETATM   11  C   UNL     1     -44.912  60.854 -54.717  1.00  0.00     0.156 C 
BRANCH  11  12
HETATM   12  C   UNL     1     -45.581  61.114 -53.374  1.00  0.00     0.223 C 
HETATM   13  N   UNL     1     -44.912  60.609 -52.275  1.00  0.00    -0.359 N 
HETATM   14  H   UNL     1     -44.066  60.070 -52.451  1.00  0.00     0.162 HD
HETATM   15  O   UNL     1     -46.636  61.735 -53.285  1.00  0.00    -0.273 OA
BRANCH  13  16
HETATM   16  C   UNL     1     -45.411  60.466 -50.894  1.00  0.00     0.150 C 
BRANCH  16  17
HETATM   17  C   UNL     1     -45.992  61.670 -50.100  1.00  0.00     0.254 C 
BRANCH  17  18
HETATM   18  N   UNL     1     -46.050  61.482 -48.588  1.00  0.00    -0.070 N 
HETATM   19  H   UNL     1     -46.593  60.604 -48.453  1.00  0.00     0.279 HD
HETATM   20  C   UNL     1     -44.693  61.272 -47.992  1.00  0.00     0.235 C 
HETATM   21  C   UNL     1     -44.756  61.085 -46.488  1.00  0.00     0.028 C 
HETATM   22  C   UNL     1     -45.485  62.219 -45.798  1.00  0.00     0.003 C 
HETATM   23  C   UNL     1     -46.873  62.369 -46.399  1.00  0.00     0.028 C 
HETATM   24  C   UNL     1     -46.802  62.608 -47.905  1.00  0.00     0.235 C 
ENDBRANCH  17  18
ENDBRANCH  16  17
ENDBRANCH  13  16
ENDBRANCH  11  12
ENDBRANCH   3  11
BRANCH   1  25
HETATM   25  C   UNL     1     -42.812  56.106 -55.313  1.00  0.00    -0.030 C 
HETATM   26  C   UNL     1     -41.434  55.769 -55.228  1.00  0.00     0.010 C 
HETATM   27  C   UNL     1     -40.930  54.880 -54.218  1.00  0.00     0.007 C 
HETATM   28  C   UNL     1     -41.776  54.293 -53.277  1.00  0.00    -0.062 C 
HETATM   29  C   UNL     1     -41.279  53.540 -52.065  1.00  0.00     0.048 C 
HETATM   30  C   UNL     1     -43.135  54.375 -53.558  1.00  0.00     0.007 C 
HETATM   31  C   UNL     1     -43.614  55.137 -54.654  1.00  0.00     0.010 C 
ENDBRANCH   1  25
BRANCH  10  32
HETATM   32  C   UNL     1     -41.992  59.069 -54.198  1.00  0.00     0.294 C 
HETATM   33  O   UNL     1     -41.033  59.859 -54.000  1.00  0.00    -0.259 OA
BRANCH  32  34
HETATM   34  O   UNL     1     -42.723  58.661 -53.147  1.00  0.00    -0.313 OA
BRANCH  34  35
HETATM   35  C   UNL     1     -42.144  58.049 -51.877  1.00  0.00     0.124 C 
HETATM   36  C   UNL     1     -41.514  58.950 -50.789  1.00  0.00     0.040 C 
HETATM   37  C   UNL     1     -43.046  57.034 -51.141  1.00  0.00     0.040 C 
ENDBRANCH  34  35
ENDBRANCH  32  34
ENDBRANCH  10  32
TORSDOF 9
ENDMDL
