MODEL 1
REMARK VINA RESULT:      -9.4      0.000      0.000
REMARK  8 active torsions:
REMARK  status: ('A' for Active; 'I' for Inactive)
REMARK    1  A    between atoms: C_2  and  N_3 
REMARK    2  A    between atoms: C_2  and  C_34 
REMARK       I    between atoms: N_3  and  C_4 
REMARK    3  A    between atoms: C_4  and  C_5 
REMARK    4  A    between atoms: C_5  and  N_6 
REMARK       I    between atoms: N_12  and  C_13 
REMARK    5  A    between atoms: C_13  and  C_14 
REMARK    6  A    between atoms: C_14  and  O_15 
REMARK    7  A    between atoms: O_15  and  C_16 
REMARK    8  A    between atoms: N_25  and  C_26 
ROOT
HETATM    1  N   UNL     1     -43.621  56.387 -52.081  1.00  0.00    -0.325 N 
HETATM    2  C   UNL     1     -43.810  56.685 -53.408  1.00  0.00     0.250 C 
HETATM    3  O   UNL     1     -43.874  55.859 -54.306  1.00  0.00    -0.270 OA
HETATM    4  C   UNL     1     -43.864  58.223 -53.535  1.00  0.00     0.118 C 
HETATM    5  C   UNL     1     -45.028  58.605 -54.454  1.00  0.00     0.061 C 
HETATM    6  C   UNL     1     -44.716  58.382 -55.932  1.00  0.00     0.129 C 
HETATM    7  N   UNL     1     -43.400  58.884 -56.316  1.00  0.00    -0.350 N 
HETATM    8  C   UNL     1     -43.249  59.388 -57.612  1.00  0.00     0.244 C 
HETATM    9  O   UNL     1     -44.209  59.516 -58.379  1.00  0.00    -0.271 OA
HETATM   10  C   UNL     1     -42.281  58.394 -55.515  1.00  0.00     0.129 C 
HETATM   11  C   UNL     1     -42.482  58.677 -54.033  1.00  0.00     0.061 C 
HETATM   12  N   UNL     1     -44.082  58.628 -52.113  1.00  0.00    -0.346 N 
HETATM   13  C   UNL     1     -43.871  57.495 -51.216  1.00  0.00     0.254 C 
ENDROOT
BRANCH  12  14
HETATM   14  C   UNL     1     -44.195  59.904 -51.587  1.00  0.00     0.032 A 
HETATM   15  C   UNL     1     -45.401  60.621 -51.547  1.00  0.00     0.029 A 
HETATM   16  C   UNL     1     -45.494  61.919 -51.022  1.00  0.00     0.002 A 
HETATM   17  C   UNL     1     -44.372  62.547 -50.503  1.00  0.00     0.000 A 
HETATM   18  C   UNL     1     -43.163  61.870 -50.505  1.00  0.00     0.002 A 
HETATM   19  C   UNL     1     -43.083  60.573 -51.034  1.00  0.00     0.029 A 
ENDBRANCH  12  14
BRANCH   1  20
HETATM   20  C   UNL     1     -43.395  55.054 -51.550  1.00  0.00     0.230 C 
BRANCH  20  21
HETATM   21  C   UNL     1     -41.967  54.546 -51.753  1.00  0.00     0.236 C 
HETATM   22  N   UNL     1     -41.749  53.946 -52.973  1.00  0.00    -0.351 N 
HETATM   23  H   UNL     1     -42.481  54.076 -53.662  1.00  0.00     0.163 HD
HETATM   24  O   UNL     1     -41.097  54.758 -50.913  1.00  0.00    -0.272 OA
BRANCH  22  25
HETATM   25  C   UNL     1     -40.433  53.615 -53.508  1.00  0.00     0.113 C 
HETATM   26  C   UNL     1     -40.181  54.104 -54.937  1.00  0.00     0.037 C 
BRANCH  25  27
HETATM   27  C   UNL     1     -40.113  52.146 -53.288  1.00  0.00    -0.036 A 
HETATM   28  C   UNL     1     -39.762  51.693 -52.005  1.00  0.00     0.009 A 
HETATM   29  C   UNL     1     -39.486  50.344 -51.773  1.00  0.00     0.001 A 
HETATM   30  C   UNL     1     -39.564  49.425 -52.817  1.00  0.00     0.000 A 
HETATM   31  C   UNL     1     -39.921  49.856 -54.092  1.00  0.00     0.001 A 
HETATM   32  C   UNL     1     -40.197  51.205 -54.325  1.00  0.00     0.009 A 
ENDBRANCH  25  27
ENDBRANCH  22  25
ENDBRANCH  20  21
ENDBRANCH   1  20
BRANCH   8  33
HETATM   33  C   UNL     1     -41.844  59.767 -58.087  1.00  0.00     0.278 C 
BRANCH  33  34
HETATM   34  O   UNL     1     -41.643  61.169 -57.951  1.00  0.00    -0.342 OA
BRANCH  34  35
HETATM   35  C   UNL     1     -41.027  61.795 -59.000  1.00  0.00     0.069 A 
HETATM   36  C   UNL     1     -39.950  62.678 -58.904  1.00  0.00     0.037 A 
HETATM   37  C   UNL     1     -39.420  63.267 -60.056  1.00  0.00     0.003 A 
HETATM   38  C   UNL     1     -39.962  62.976 -61.306  1.00  0.00     0.000 A 
HETATM   39  C   UNL     1     -41.044  62.103 -61.407  1.00  0.00     0.003 A 
HETATM   40  C   UNL     1     -41.578  61.521 -60.256  1.00  0.00     0.037 A 
ENDBRANCH  34  35
ENDBRANCH  33  34
ENDBRANCH   8  33
TORSDOF 8
ENDMDL
MODEL 2
REMARK VINA RESULT:      -9.0      1.946      3.154
REMARK  8 active torsions:
REMARK  status: ('A' for Active; 'I' for Inactive)
REMARK    1  A    between atoms: C_2  and  N_3 
REMARK    2  A    between atoms: C_2  and  C_34 
REMARK       I    between atoms: N_3  and  C_4 
REMARK    3  A    between atoms: C_4  and  C_5 
REMARK    4  A    between atoms: C_5  and  N_6 
REMARK       I    between atoms: N_12  and  C_13 
REMARK    5  A    between atoms: C_13  and  C_14 
REMARK    6  A    between atoms: C_14  and  O_15 
REMARK    7  A    between atoms: O_15  and  C_16 
REMARK    8  A    between atoms: N_25  and  C_26 
ROOT
HETATM    1  N   UNL     1     -43.470  56.771 -52.291  1.00  0.00    -0.325 N 
HETATM    2  C   UNL     1     -44.007  57.046 -53.524  1.00  0.00     0.250 C 
HETATM    3  O   UNL     1     -44.428  56.206 -54.304  1.00  0.00    -0.270 OA
HETATM    4  C   UNL     1     -43.919  58.573 -53.739  1.00  0.00     0.118 C 
HETATM    5  C   UNL     1     -45.250  59.073 -54.306  1.00  0.00     0.061 C 
HETATM    6  C   UNL     1     -45.418  58.760 -55.792  1.00  0.00     0.129 C 
HETATM    7  N   UNL     1     -44.225  59.073 -56.574  1.00  0.00    -0.350 N 
HETATM    8  C   UNL     1     -44.408  59.509 -57.891  1.00  0.00     0.244 C 
HETATM    9  O   UNL     1     -45.530  59.735 -58.355  1.00  0.00    -0.271 OA
HETATM   10  C   UNL     1     -42.984  58.468 -56.099  1.00  0.00     0.129 C 
HETATM   11  C   UNL     1     -42.703  58.825 -54.646  1.00  0.00     0.061 C 
HETATM   12  N   UNL     1     -43.659  59.051 -52.346  1.00  0.00    -0.346 N 
HETATM   13  C   UNL     1     -43.323  57.931 -51.471  1.00  0.00     0.254 C 
ENDROOT
BRANCH  12  14
HETATM   14  C   UNL     1     -43.464  60.348 -51.903  1.00  0.00     0.032 A 
HETATM   15  C   UNL     1     -43.547  61.473 -52.737  1.00  0.00     0.029 A 
HETATM   16  C   UNL     1     -43.333  62.779 -52.273  1.00  0.00     0.002 A 
HETATM   17  C   UNL     1     -43.036  63.008 -50.938  1.00  0.00     0.000 A 
HETATM   18  C   UNL     1     -42.962  61.929 -50.072  1.00  0.00     0.002 A 
HETATM   19  C   UNL     1     -43.176  60.628 -50.550  1.00  0.00     0.029 A 
ENDBRANCH  12  14
BRANCH   1  20
HETATM   20  C   UNL     1     -43.252  55.439 -51.755  1.00  0.00     0.230 C 
BRANCH  20  21
HETATM   21  C   UNL     1     -41.839  54.905 -51.993  1.00  0.00     0.236 C 
HETATM   22  N   UNL     1     -41.717  54.107 -53.109  1.00  0.00    -0.351 N 
HETATM   23  H   UNL     1     -42.508  54.118 -53.744  1.00  0.00     0.163 HD
HETATM   24  O   UNL     1     -40.904  55.256 -51.280  1.00  0.00    -0.272 OA
BRANCH  22  25
HETATM   25  C   UNL     1     -40.447  53.691 -53.694  1.00  0.00     0.113 C 
HETATM   26  C   UNL     1     -40.273  54.054 -55.171  1.00  0.00     0.037 C 
BRANCH  25  27
HETATM   27  C   UNL     1     -40.156  52.235 -53.372  1.00  0.00    -0.036 A 
HETATM   28  C   UNL     1     -40.218  51.270 -54.391  1.00  0.00     0.009 A 
HETATM   29  C   UNL     1     -39.932  49.929 -54.125  1.00  0.00     0.001 A 
HETATM   30  C   UNL     1     -39.572  49.533 -52.840  1.00  0.00     0.000 A 
HETATM   31  C   UNL     1     -39.495  50.479 -51.820  1.00  0.00     0.001 A 
HETATM   32  C   UNL     1     -39.781  51.820 -52.085  1.00  0.00     0.009 A 
ENDBRANCH  25  27
ENDBRANCH  22  25
ENDBRANCH  20  21
ENDBRANCH   1  20
BRANCH   8  33
HETATM   33  C   UNL     1     -43.172  59.684 -58.778  1.00  0.00     0.278 C 
BRANCH  33  34
HETATM   34  O   UNL     1     -43.390  59.074 -60.045  1.00  0.00    -0.342 OA
BRANCH  34  35
HETATM   35  C   UNL     1     -43.670  57.735 -60.030  1.00  0.00     0.069 A 
HETATM   36  C   UNL     1     -44.853  57.146 -60.479  1.00  0.00     0.037 A 
HETATM   37  C   UNL     1     -45.024  55.761 -60.394  1.00  0.00     0.003 A 
HETATM   38  C   UNL     1     -44.015  54.961 -59.860  1.00  0.00     0.000 A 
HETATM   39  C   UNL     1     -42.836  55.545 -59.402  1.00  0.00     0.003 A 
HETATM   40  C   UNL     1     -42.669  56.929 -59.481  1.00  0.00     0.037 A 
ENDBRANCH  34  35
ENDBRANCH  33  34
ENDBRANCH   8  33
TORSDOF 8
ENDMDL
MODEL 3
REMARK VINA RESULT:      -8.9      2.550      9.749
REMARK  8 active torsions:
REMARK  status: ('A' for Active; 'I' for Inactive)
REMARK    1  A    between atoms: C_2  and  N_3 
REMARK    2  A    between atoms: C_2  and  C_34 
REMARK       I    between atoms: N_3  and  C_4 
REMARK    3  A    between atoms: C_4  and  C_5 
REMARK    4  A    between atoms: C_5  and  N_6 
REMARK       I    between atoms: N_12  and  C_13 
REMARK    5  A    between atoms: C_13  and  C_14 
REMARK    6  A    between atoms: C_14  and  O_15 
REMARK    7  A    between atoms: O_15  and  C_16 
REMARK    8  A    between atoms: N_25  and  C_26 
ROOT
HETATM    1  N   UNL     1     -43.947  60.483 -56.388  1.00  0.00    -0.325 N 
HETATM    2  C   UNL     1     -43.774  59.532 -55.414  1.00  0.00     0.250 C 
HETATM    3  O   UNL     1     -43.465  59.768 -54.256  1.00  0.00    -0.270 OA
HETATM    4  C   UNL     1     -43.984  58.150 -56.072  1.00  0.00     0.118 C 
HETATM    5  C   UNL     1     -44.865  57.294 -55.158  1.00  0.00     0.061 C 
HETATM    6  C   UNL     1     -44.108  56.732 -53.957  1.00  0.00     0.129 C 
HETATM    7  N   UNL     1     -42.812  56.165 -54.320  1.00  0.00    -0.350 N 
HETATM    8  C   UNL     1     -42.353  55.069 -53.581  1.00  0.00     0.244 C 
HETATM    9  O   UNL     1     -43.053  54.518 -52.726  1.00  0.00    -0.271 OA
HETATM   10  C   UNL     1     -41.925  57.050 -55.070  1.00  0.00     0.129 C 
HETATM   11  C   UNL     1     -42.586  57.568 -56.339  1.00  0.00     0.061 C 
HETATM   12  N   UNL     1     -44.661  58.532 -57.349  1.00  0.00    -0.346 N 
HETATM   13  C   UNL     1     -44.579  59.975 -57.564  1.00  0.00     0.254 C 
ENDROOT
BRANCH  12  14
HETATM   14  C   UNL     1     -45.084  57.711 -58.379  1.00  0.00     0.032 A 
HETATM   15  C   UNL     1     -46.435  57.498 -58.695  1.00  0.00     0.029 A 
HETATM   16  C   UNL     1     -46.848  56.652 -59.734  1.00  0.00     0.002 A 
HETATM   17  C   UNL     1     -45.909  55.989 -60.512  1.00  0.00     0.000 A 
HETATM   18  C   UNL     1     -44.563  56.182 -60.248  1.00  0.00     0.002 A 
HETATM   19  C   UNL     1     -44.164  57.030 -59.205  1.00  0.00     0.029 A 
ENDBRANCH  12  14
BRANCH   1  20
HETATM   20  C   UNL     1     -43.718  61.906 -56.214  1.00  0.00     0.230 C 
BRANCH  20  21
HETATM   21  C   UNL     1     -42.801  62.516 -57.274  1.00  0.00     0.236 C 
HETATM   22  N   UNL     1     -41.573  61.902 -57.381  1.00  0.00    -0.351 N 
HETATM   23  H   UNL     1     -41.485  61.015 -56.898  1.00  0.00     0.163 HD
HETATM   24  O   UNL     1     -43.198  63.416 -58.009  1.00  0.00    -0.272 OA
BRANCH  22  25
HETATM   25  C   UNL     1     -40.631  62.121 -58.472  1.00  0.00     0.113 C 
HETATM   26  C   UNL     1     -40.056  63.539 -58.549  1.00  0.00     0.037 C 
BRANCH  25  27
HETATM   27  C   UNL     1     -41.197  61.607 -59.785  1.00  0.00    -0.036 A 
HETATM   28  C   UNL     1     -41.782  60.331 -59.841  1.00  0.00     0.009 A 
HETATM   29  C   UNL     1     -42.328  59.846 -61.031  1.00  0.00     0.001 A 
HETATM   30  C   UNL     1     -42.307  60.630 -62.181  1.00  0.00     0.000 A 
HETATM   31  C   UNL     1     -41.741  61.902 -62.141  1.00  0.00     0.001 A 
HETATM   32  C   UNL     1     -41.193  62.388 -60.951  1.00  0.00     0.009 A 
ENDBRANCH  25  27
ENDBRANCH  22  25
ENDBRANCH  20  21
ENDBRANCH   1  20
BRANCH   8  33
HETATM   33  C   UNL     1     -40.930  54.563 -53.836  1.00  0.00     0.278 C 
BRANCH  33  34
HETATM   34  O   UNL     1     -40.480  53.790 -52.730  1.00  0.00    -0.342 OA
BRANCH  34  35
HETATM   35  C   UNL     1     -40.226  52.469 -52.981  1.00  0.00     0.069 A 
HETATM   36  C   UNL     1     -40.434  51.817 -54.197  1.00  0.00     0.037 A 
HETATM   37  C   UNL     1     -40.149  50.453 -54.320  1.00  0.00     0.003 A 
HETATM   38  C   UNL     1     -39.655  49.738 -53.230  1.00  0.00     0.000 A 
HETATM   39  C   UNL     1     -39.454  50.383 -52.011  1.00  0.00     0.003 A 
HETATM   40  C   UNL     1     -39.747  51.743 -51.887  1.00  0.00     0.037 A 
ENDBRANCH  34  35
ENDBRANCH  33  34
ENDBRANCH   8  33
TORSDOF 8
ENDMDL
MODEL 4
REMARK VINA RESULT:      -8.8      2.697     10.348
REMARK  8 active torsions:
REMARK  status: ('A' for Active; 'I' for Inactive)
REMARK    1  A    between atoms: C_2  and  N_3 
REMARK    2  A    between atoms: C_2  and  C_34 
REMARK       I    between atoms: N_3  and  C_4 
REMARK    3  A    between atoms: C_4  and  C_5 
REMARK    4  A    between atoms: C_5  and  N_6 
REMARK       I    between atoms: N_12  and  C_13 
REMARK    5  A    between atoms: C_13  and  C_14 
REMARK    6  A    between atoms: C_14  and  O_15 
REMARK    7  A    between atoms: O_15  and  C_16 
REMARK    8  A    between atoms: N_25  and  C_26 
ROOT
HETATM    1  N   UNL     1     -43.438  60.174 -56.795  1.00  0.00    -0.325 N 
HETATM    2  C   UNL     1     -43.317  59.271 -55.768  1.00  0.00     0.250 C 
HETATM    3  O   UNL     1     -42.914  59.541 -54.647  1.00  0.00    -0.270 OA
HETATM    4  C   UNL     1     -43.723  57.886 -56.317  1.00  0.00     0.118 C 
HETATM    5  C   UNL     1     -44.640  57.199 -55.302  1.00  0.00     0.061 C 
HETATM    6  C   UNL     1     -43.881  56.626 -54.106  1.00  0.00     0.129 C 
HETATM    7  N   UNL     1     -42.682  55.889 -54.497  1.00  0.00    -0.350 N 
HETATM    8  C   UNL     1     -42.308  54.794 -53.710  1.00  0.00     0.244 C 
HETATM    9  O   UNL     1     -43.014  54.384 -52.783  1.00  0.00    -0.271 OA
HETATM   10  C   UNL     1     -41.747  56.614 -55.352  1.00  0.00     0.129 C 
HETATM   11  C   UNL     1     -42.420  57.127 -56.617  1.00  0.00     0.061 C 
HETATM   12  N   UNL     1     -44.427  58.265 -57.580  1.00  0.00    -0.346 N 
HETATM   13  C   UNL     1     -44.194  59.672 -57.898  1.00  0.00     0.254 C 
ENDROOT
BRANCH  12  14
HETATM   14  C   UNL     1     -45.003  57.437 -58.528  1.00  0.00     0.032 A 
HETATM   15  C   UNL     1     -44.299  56.434 -59.211  1.00  0.00     0.029 A 
HETATM   16  C   UNL     1     -44.896  55.612 -60.178  1.00  0.00     0.002 A 
HETATM   17  C   UNL     1     -46.239  55.760 -60.490  1.00  0.00     0.000 A 
HETATM   18  C   UNL     1     -46.980  56.725 -59.828  1.00  0.00     0.002 A 
HETATM   19  C   UNL     1     -46.370  57.542 -58.864  1.00  0.00     0.029 A 
ENDBRANCH  12  14
BRANCH   1  20
HETATM   20  C   UNL     1     -43.038  61.568 -56.731  1.00  0.00     0.230 C 
BRANCH  20  21
HETATM   21  C   UNL     1     -42.855  62.219 -58.102  1.00  0.00     0.236 C 
HETATM   22  N   UNL     1     -41.807  61.710 -58.835  1.00  0.00    -0.351 N 
HETATM   23  H   UNL     1     -41.403  60.849 -58.480  1.00  0.00     0.163 HD
HETATM   24  O   UNL     1     -43.653  63.058 -58.513  1.00  0.00    -0.272 OA
BRANCH  22  25
HETATM   25  C   UNL     1     -41.584  61.972 -60.252  1.00  0.00     0.113 C 
HETATM   26  C   UNL     1     -41.662  60.736 -61.153  1.00  0.00     0.037 C 
BRANCH  25  27
HETATM   27  C   UNL     1     -40.334  62.812 -60.455  1.00  0.00    -0.036 A 
HETATM   28  C   UNL     1     -39.830  63.011 -61.751  1.00  0.00     0.009 A 
HETATM   29  C   UNL     1     -38.696  63.797 -61.965  1.00  0.00     0.001 A 
HETATM   30  C   UNL     1     -38.052  64.403 -60.890  1.00  0.00     0.000 A 
HETATM   31  C   UNL     1     -38.545  64.225 -59.599  1.00  0.00     0.001 A 
HETATM   32  C   UNL     1     -39.678  63.438 -59.384  1.00  0.00     0.009 A 
ENDBRANCH  25  27
ENDBRANCH  22  25
ENDBRANCH  20  21
ENDBRANCH   1  20
BRANCH   8  33
HETATM   33  C   UNL     1     -40.971  54.109 -54.004  1.00  0.00     0.278 C 
BRANCH  33  34
HETATM   34  O   UNL     1     -40.450  53.524 -52.816  1.00  0.00    -0.342 OA
BRANCH  34  35
HETATM   35  C   UNL     1     -40.149  52.191 -52.882  1.00  0.00     0.069 A 
HETATM   36  C   UNL     1     -40.227  51.394 -54.026  1.00  0.00     0.037 A 
HETATM   37  C   UNL     1     -39.907  50.035 -53.958  1.00  0.00     0.003 A 
HETATM   38  C   UNL     1     -39.508  49.467 -52.748  1.00  0.00     0.000 A 
HETATM   39  C   UNL     1     -39.437  50.256 -51.602  1.00  0.00     0.003 A 
HETATM   40  C   UNL     1     -39.765  51.612 -51.669  1.00  0.00     0.037 A 
ENDBRANCH  34  35
ENDBRANCH  33  34
ENDBRANCH   8  33
TORSDOF 8
ENDMDL
MODEL 5
REMARK VINA RESULT:      -8.7      2.834      7.434
REMARK  8 active torsions:
REMARK  status: ('A' for Active; 'I' for Inactive)
REMARK    1  A    between atoms: C_2  and  N_3 
REMARK    2  A    between atoms: C_2  and  C_34 
REMARK       I    between atoms: N_3  and  C_4 
REMARK    3  A    between atoms: C_4  and  C_5 
REMARK    4  A    between atoms: C_5  and  N_6 
REMARK       I    between atoms: N_12  and  C_13 
REMARK    5  A    between atoms: C_13  and  C_14 
REMARK    6  A    between atoms: C_14  and  O_15 
REMARK    7  A    between atoms: O_15  and  C_16 
REMARK    8  A    between atoms: N_25  and  C_26 
ROOT
HETATM    1  N   UNL     1     -42.904  61.358 -53.774  1.00  0.00    -0.325 N 
HETATM    2  C   UNL     1     -42.229  60.260 -53.301  1.00  0.00     0.250 C 
HETATM    3  O   UNL     1     -41.465  59.574 -53.963  1.00  0.00    -0.270 OA
HETATM    4  C   UNL     1     -42.663  60.043 -51.835  1.00  0.00     0.118 C 
HETATM    5  C   UNL     1     -41.421  59.759 -50.987  1.00  0.00     0.061 C 
HETATM    6  C   UNL     1     -40.896  58.334 -51.159  1.00  0.00     0.129 C 
HETATM    7  N   UNL     1     -41.956  57.331 -51.109  1.00  0.00    -0.350 N 
HETATM    8  C   UNL     1     -41.641  56.081 -50.565  1.00  0.00     0.244 C 
HETATM    9  O   UNL     1     -40.547  55.854 -50.039  1.00  0.00    -0.271 OA
HETATM   10  C   UNL     1     -43.068  57.543 -52.031  1.00  0.00     0.129 C 
HETATM   11  C   UNL     1     -43.705  58.912 -51.842  1.00  0.00     0.061 C 
HETATM   12  N   UNL     1     -43.300  61.359 -51.520  1.00  0.00    -0.346 N 
HETATM   13  C   UNL     1     -43.499  62.140 -52.738  1.00  0.00     0.254 C 
ENDROOT
BRANCH  12  14
HETATM   14  C   UNL     1     -43.902  61.764 -50.342  1.00  0.00     0.032 A 
HETATM   15  C   UNL     1     -44.768  60.950 -49.594  1.00  0.00     0.029 A 
HETATM   16  C   UNL     1     -45.380  61.382 -48.409  1.00  0.00     0.002 A 
HETATM   17  C   UNL     1     -45.135  62.656 -47.917  1.00  0.00     0.000 A 
HETATM   18  C   UNL     1     -44.273  63.489 -48.612  1.00  0.00     0.002 A 
HETATM   19  C   UNL     1     -43.668  63.045 -49.798  1.00  0.00     0.029 A 
ENDBRANCH  12  14
BRANCH   1  20
HETATM   20  C   UNL     1     -42.873  61.828 -55.147  1.00  0.00     0.230 C 
BRANCH  20  21
HETATM   21  C   UNL     1     -43.859  61.107 -56.067  1.00  0.00     0.236 C 
HETATM   22  N   UNL     1     -43.504  59.813 -56.373  1.00  0.00    -0.351 N 
HETATM   23  H   UNL     1     -42.752  59.422 -55.816  1.00  0.00     0.163 HD
HETATM   24  O   UNL     1     -44.911  61.642 -56.406  1.00  0.00    -0.272 OA
BRANCH  22  25
HETATM   25  C   UNL     1     -44.386  58.841 -57.008  1.00  0.00     0.113 C 
HETATM   26  C   UNL     1     -45.209  57.991 -56.036  1.00  0.00     0.037 C 
BRANCH  25  27
HETATM   27  C   UNL     1     -43.638  58.037 -58.058  1.00  0.00    -0.036 A 
HETATM   28  C   UNL     1     -42.892  58.702 -59.045  1.00  0.00     0.009 A 
HETATM   29  C   UNL     1     -42.178  57.984 -60.008  1.00  0.00     0.001 A 
HETATM   30  C   UNL     1     -42.192  56.592 -59.994  1.00  0.00     0.000 A 
HETATM   31  C   UNL     1     -42.918  55.917 -59.016  1.00  0.00     0.001 A 
HETATM   32  C   UNL     1     -43.633  56.634 -58.054  1.00  0.00     0.009 A 
ENDBRANCH  25  27
ENDBRANCH  22  25
ENDBRANCH  20  21
ENDBRANCH   1  20
BRANCH   8  33
HETATM   33  C   UNL     1     -42.687  54.965 -50.652  1.00  0.00     0.278 C 
BRANCH  33  34
HETATM   34  O   UNL     1     -42.164  53.862 -51.383  1.00  0.00    -0.342 OA
BRANCH  34  35
HETATM   35  C   UNL     1     -42.018  54.046 -52.731  1.00  0.00     0.069 A 
HETATM   36  C   UNL     1     -43.039  54.386 -53.621  1.00  0.00     0.037 A 
HETATM   37  C   UNL     1     -42.762  54.530 -54.984  1.00  0.00     0.003 A 
HETATM   38  C   UNL     1     -41.468  54.335 -55.462  1.00  0.00     0.000 A 
HETATM   39  C   UNL     1     -40.447  53.987 -54.579  1.00  0.00     0.003 A 
HETATM   40  C   UNL     1     -40.726  53.836 -53.219  1.00  0.00     0.037 A 
ENDBRANCH  34  35
ENDBRANCH  33  34
ENDBRANCH   8  33
TORSDOF 8
ENDMDL
MODEL 6
REMARK VINA RESULT:      -8.6      2.185      3.546
REMARK  8 active torsions:
REMARK  status: ('A' for Active; 'I' for Inactive)
REMARK    1  A    between atoms: C_2  and  N_3 
REMARK    2  A    between atoms: C_2  and  C_34 
REMARK       I    between atoms: N_3  and  C_4 
REMARK    3  A    between atoms: C_4  and  C_5 
REMARK    4  A    between atoms: C_5  and  N_6 
REMARK       I    between atoms: N_12  and  C_13 
REMARK    5  A    between atoms: C_13  and  C_14 
REMARK    6  A    between atoms: C_14  and  O_15 
REMARK    7  A    between atoms: O_15  and  C_16 
REMARK    8  A    between atoms: N_25  and  C_26 
ROOT
HETATM    1  N   UNL     1     -42.785  55.660 -55.808  1.00  0.00    -0.325 N 
HETATM    2  C   UNL     1     -43.147  56.139 -57.043  1.00  0.00     0.250 C 
HETATM    3  O   UNL     1     -43.243  55.458 -58.053  1.00  0.00    -0.270 OA
HETATM    4  C   UNL     1     -43.341  57.665 -56.912  1.00  0.00     0.118 C 
HETATM    5  C   UNL     1     -44.629  58.066 -57.636  1.00  0.00     0.061 C 
HETATM    6  C   UNL     1     -44.470  58.104 -59.155  1.00  0.00     0.129 C 
HETATM    7  N   UNL     1     -43.251  58.787 -59.579  1.00  0.00    -0.350 N 
HETATM    8  C   UNL     1     -43.290  59.497 -60.784  1.00  0.00     0.244 C 
HETATM    9  O   UNL     1     -44.338  59.645 -61.422  1.00  0.00    -0.271 OA
HETATM   10  C   UNL     1     -42.012  58.294 -58.983  1.00  0.00     0.129 C 
HETATM   11  C   UNL     1     -42.067  58.325 -57.463  1.00  0.00     0.061 C 
HETATM   12  N   UNL     1     -43.430  57.823 -55.428  1.00  0.00    -0.346 N 
HETATM   13  C   UNL     1     -43.026  56.592 -54.753  1.00  0.00     0.254 C 
ENDROOT
BRANCH  12  14
HETATM   14  C   UNL     1     -43.588  58.985 -54.693  1.00  0.00     0.032 A 
HETATM   15  C   UNL     1     -44.833  59.465 -54.259  1.00  0.00     0.029 A 
HETATM   16  C   UNL     1     -44.976  60.652 -53.526  1.00  0.00     0.002 A 
HETATM   17  C   UNL     1     -43.861  61.404 -53.187  1.00  0.00     0.000 A 
HETATM   18  C   UNL     1     -42.608  60.960 -53.577  1.00  0.00     0.002 A 
HETATM   19  C   UNL     1     -42.479  59.772 -54.312  1.00  0.00     0.029 A 
ENDBRANCH  12  14
BRANCH   1  20
HETATM   20  C   UNL     1     -42.391  54.292 -55.527  1.00  0.00     0.230 C 
BRANCH  20  21
HETATM   21  C   UNL     1     -41.113  54.179 -54.696  1.00  0.00     0.236 C 
HETATM   22  N   UNL     1     -41.309  53.709 -53.416  1.00  0.00    -0.351 N 
HETATM   23  H   UNL     1     -42.225  53.314 -53.231  1.00  0.00     0.163 HD
HETATM   24  O   UNL     1     -40.014  54.409 -55.194  1.00  0.00    -0.272 OA
BRANCH  22  25
HETATM   25  C   UNL     1     -40.243  53.271 -52.523  1.00  0.00     0.113 C 
HETATM   26  C   UNL     1     -39.915  51.777 -52.600  1.00  0.00     0.037 C 
BRANCH  25  27
HETATM   27  C   UNL     1     -40.476  53.785 -51.112  1.00  0.00    -0.036 A 
HETATM   28  C   UNL     1     -40.964  55.087 -50.916  1.00  0.00     0.009 A 
HETATM   29  C   UNL     1     -41.206  55.575 -49.629  1.00  0.00     0.001 A 
HETATM   30  C   UNL     1     -40.973  54.766 -48.520  1.00  0.00     0.000 A 
HETATM   31  C   UNL     1     -40.499  53.468 -48.698  1.00  0.00     0.001 A 
HETATM   32  C   UNL     1     -40.255  52.981 -49.984  1.00  0.00     0.009 A 
ENDBRANCH  25  27
ENDBRANCH  22  25
ENDBRANCH  20  21
ENDBRANCH   1  20
BRANCH   8  33
HETATM   33  C   UNL     1     -41.984  60.082 -61.328  1.00  0.00     0.278 C 
BRANCH  33  34
HETATM   34  O   UNL     1     -42.053  61.503 -61.342  1.00  0.00    -0.342 OA
BRANCH  34  35
HETATM   35  C   UNL     1     -41.076  62.162 -60.648  1.00  0.00     0.069 A 
HETATM   36  C   UNL     1     -40.917  62.155 -59.261  1.00  0.00     0.037 A 
HETATM   37  C   UNL     1     -39.882  62.886 -58.670  1.00  0.00     0.003 A 
HETATM   38  C   UNL     1     -39.003  63.626 -59.460  1.00  0.00     0.000 A 
HETATM   39  C   UNL     1     -39.164  63.643 -60.844  1.00  0.00     0.003 A 
HETATM   40  C   UNL     1     -40.202  62.919 -61.434  1.00  0.00     0.037 A 
ENDBRANCH  34  35
ENDBRANCH  33  34
ENDBRANCH   8  33
TORSDOF 8
ENDMDL
MODEL 7
REMARK VINA RESULT:      -8.6      2.705      9.785
REMARK  8 active torsions:
REMARK  status: ('A' for Active; 'I' for Inactive)
REMARK    1  A    between atoms: C_2  and  N_3 
REMARK    2  A    between atoms: C_2  and  C_34 
REMARK       I    between atoms: N_3  and  C_4 
REMARK    3  A    between atoms: C_4  and  C_5 
REMARK    4  A    between atoms: C_5  and  N_6 
REMARK       I    between atoms: N_12  and  C_13 
REMARK    5  A    between atoms: C_13  and  C_14 
REMARK    6  A    between atoms: C_14  and  O_15 
REMARK    7  A    between atoms: O_15  and  C_16 
REMARK    8  A    between atoms: N_25  and  C_26 
ROOT
HETATM    1  N   UNL     1     -43.089  60.229 -54.716  1.00  0.00    -0.325 N 
HETATM    2  C   UNL     1     -43.266  59.138 -53.902  1.00  0.00     0.250 C 
HETATM    3  O   UNL     1     -43.549  59.194 -52.715  1.00  0.00    -0.270 OA
HETATM    4  C   UNL     1     -42.986  57.877 -54.748  1.00  0.00     0.118 C 
HETATM    5  C   UNL     1     -44.078  56.840 -54.469  1.00  0.00     0.061 C 
HETATM    6  C   UNL     1     -43.889  56.123 -53.134  1.00  0.00     0.129 C 
HETATM    7  N   UNL     1     -42.512  55.686 -52.915  1.00  0.00    -0.350 N 
HETATM    8  C   UNL     1     -42.313  54.506 -52.191  1.00  0.00     0.244 C 
HETATM    9  O   UNL     1     -43.254  53.788 -51.840  1.00  0.00    -0.271 OA
HETATM   10  C   UNL     1     -41.494  56.725 -53.045  1.00  0.00     0.129 C 
HETATM   11  C   UNL     1     -41.562  57.414 -54.401  1.00  0.00     0.061 C 
HETATM   12  N   UNL     1     -43.047  58.433 -56.135  1.00  0.00    -0.346 N 
HETATM   13  C   UNL     1     -43.050  59.894 -56.104  1.00  0.00     0.254 C 
ENDROOT
BRANCH  12  14
HETATM   14  C   UNL     1     -42.854  57.775 -57.337  1.00  0.00     0.032 A 
HETATM   15  C   UNL     1     -43.317  56.475 -57.591  1.00  0.00     0.029 A 
HETATM   16  C   UNL     1     -43.101  55.818 -58.812  1.00  0.00     0.002 A 
HETATM   17  C   UNL     1     -42.415  56.452 -59.837  1.00  0.00     0.000 A 
HETATM   18  C   UNL     1     -41.955  57.743 -59.637  1.00  0.00     0.002 A 
HETATM   19  C   UNL     1     -42.176  58.389 -58.412  1.00  0.00     0.029 A 
ENDBRANCH  12  14
BRANCH   1  20
HETATM   20  C   UNL     1     -43.136  61.613 -54.279  1.00  0.00     0.230 C 
BRANCH  20  21
HETATM   21  C   UNL     1     -44.497  62.037 -53.727  1.00  0.00     0.236 C 
HETATM   22  N   UNL     1     -44.501  62.309 -52.378  1.00  0.00    -0.351 N 
HETATM   23  H   UNL     1     -43.587  62.388 -51.945  1.00  0.00     0.163 HD
HETATM   24  O   UNL     1     -45.458  62.197 -54.475  1.00  0.00    -0.272 OA
BRANCH  22  25
HETATM   25  C   UNL     1     -45.591  62.972 -51.670  1.00  0.00     0.113 C 
HETATM   26  C   UNL     1     -45.639  64.492 -51.846  1.00  0.00     0.037 C 
BRANCH  25  27
HETATM   27  C   UNL     1     -45.655  62.510 -50.224  1.00  0.00    -0.036 A 
HETATM   28  C   UNL     1     -44.603  61.749 -49.687  1.00  0.00     0.009 A 
HETATM   29  C   UNL     1     -44.629  61.332 -48.355  1.00  0.00     0.001 A 
HETATM   30  C   UNL     1     -45.701  61.676 -47.535  1.00  0.00     0.000 A 
HETATM   31  C   UNL     1     -46.747  62.440 -48.048  1.00  0.00     0.001 A 
HETATM   32  C   UNL     1     -46.722  62.856 -49.381  1.00  0.00     0.009 A 
ENDBRANCH  25  27
ENDBRANCH  22  25
ENDBRANCH  20  21
ENDBRANCH   1  20
BRANCH   8  33
HETATM   33  C   UNL     1     -40.881  54.118 -51.811  1.00  0.00     0.278 C 
BRANCH  33  34
HETATM   34  O   UNL     1     -40.207  53.570 -52.938  1.00  0.00    -0.342 OA
BRANCH  34  35
HETATM   35  C   UNL     1     -40.008  52.216 -52.922  1.00  0.00     0.069 A 
HETATM   36  C   UNL     1     -40.084  51.368 -54.028  1.00  0.00     0.037 A 
HETATM   37  C   UNL     1     -39.874  49.994 -53.876  1.00  0.00     0.003 A 
HETATM   38  C   UNL     1     -39.588  49.463 -52.619  1.00  0.00     0.000 A 
HETATM   39  C   UNL     1     -39.519  50.304 -51.510  1.00  0.00     0.003 A 
HETATM   40  C   UNL     1     -39.736  51.675 -51.662  1.00  0.00     0.037 A 
ENDBRANCH  34  35
ENDBRANCH  33  34
ENDBRANCH   8  33
TORSDOF 8
ENDMDL
MODEL 8
REMARK VINA RESULT:      -8.6      2.748      7.902
REMARK  8 active torsions:
REMARK  status: ('A' for Active; 'I' for Inactive)
REMARK    1  A    between atoms: C_2  and  N_3 
REMARK    2  A    between atoms: C_2  and  C_34 
REMARK       I    between atoms: N_3  and  C_4 
REMARK    3  A    between atoms: C_4  and  C_5 
REMARK    4  A    between atoms: C_5  and  N_6 
REMARK       I    between atoms: N_12  and  C_13 
REMARK    5  A    between atoms: C_13  and  C_14 
REMARK    6  A    between atoms: C_14  and  O_15 
REMARK    7  A    between atoms: O_15  and  C_16 
REMARK    8  A    between atoms: N_25  and  C_26 
ROOT
HETATM    1  N   UNL     1     -44.452  57.632 -51.796  1.00  0.00    -0.325 N 
HETATM    2  C   UNL     1     -43.927  58.441 -52.773  1.00  0.00     0.250 C 
HETATM    3  O   UNL     1     -44.232  59.611 -52.947  1.00  0.00    -0.270 OA
HETATM    4  C   UNL     1     -42.953  57.584 -53.611  1.00  0.00     0.118 C 
HETATM    5  C   UNL     1     -41.668  58.382 -53.848  1.00  0.00     0.061 C 
HETATM    6  C   UNL     1     -41.824  59.457 -54.922  1.00  0.00     0.129 C 
HETATM    7  N   UNL     1     -42.510  58.969 -56.115  1.00  0.00    -0.350 N 
HETATM    8  C   UNL     1     -42.134  59.513 -57.348  1.00  0.00     0.244 C 
HETATM    9  O   UNL     1     -41.185  60.295 -57.455  1.00  0.00    -0.271 OA
HETATM   10  C   UNL     1     -43.805  58.336 -55.883  1.00  0.00     0.129 C 
HETATM   11  C   UNL     1     -43.701  57.185 -54.893  1.00  0.00     0.061 C 
HETATM   12  N   UNL     1     -42.753  56.404 -52.715  1.00  0.00    -0.346 N 
HETATM   13  C   UNL     1     -43.728  56.412 -51.627  1.00  0.00     0.254 C 
ENDROOT
BRANCH  12  14
HETATM   14  C   UNL     1     -41.986  55.274 -52.937  1.00  0.00     0.032 A 
HETATM   15  C   UNL     1     -41.173  54.684 -51.956  1.00  0.00     0.029 A 
HETATM   16  C   UNL     1     -40.392  53.545 -52.202  1.00  0.00     0.002 A 
HETATM   17  C   UNL     1     -40.407  52.942 -53.451  1.00  0.00     0.000 A 
HETATM   18  C   UNL     1     -41.209  53.478 -54.446  1.00  0.00     0.002 A 
HETATM   19  C   UNL     1     -41.984  54.618 -54.187  1.00  0.00     0.029 A 
ENDBRANCH  12  14
BRANCH   1  20
HETATM   20  C   UNL     1     -45.502  58.017 -50.870  1.00  0.00     0.230 C 
BRANCH  20  21
HETATM   21  C   UNL     1     -45.595  59.525 -50.638  1.00  0.00     0.236 C 
HETATM   22  N   UNL     1     -44.515  60.062 -49.973  1.00  0.00    -0.351 N 
HETATM   23  H   UNL     1     -43.708  59.453 -49.885  1.00  0.00     0.163 HD
HETATM   24  O   UNL     1     -46.525  60.178 -51.102  1.00  0.00    -0.272 OA
BRANCH  22  25
HETATM   25  C   UNL     1     -44.241  61.490 -49.858  1.00  0.00     0.113 C 
HETATM   26  C   UNL     1     -42.849  61.916 -50.334  1.00  0.00     0.037 C 
BRANCH  25  27
HETATM   27  C   UNL     1     -44.609  62.001 -48.476  1.00  0.00    -0.036 A 
HETATM   28  C   UNL     1     -44.791  61.091 -47.420  1.00  0.00     0.009 A 
HETATM   29  C   UNL     1     -45.108  61.538 -46.136  1.00  0.00     0.001 A 
HETATM   30  C   UNL     1     -45.241  62.901 -45.883  1.00  0.00     0.000 A 
HETATM   31  C   UNL     1     -45.054  63.818 -46.916  1.00  0.00     0.001 A 
HETATM   32  C   UNL     1     -44.738  63.371 -48.201  1.00  0.00     0.009 A 
ENDBRANCH  25  27
ENDBRANCH  22  25
ENDBRANCH  20  21
ENDBRANCH   1  20
BRANCH   8  33
HETATM   33  C   UNL     1     -42.950  59.137 -58.589  1.00  0.00     0.278 C 
BRANCH  33  34
HETATM   34  O   UNL     1     -42.576  57.842 -59.045  1.00  0.00    -0.342 OA
BRANCH  34  35
HETATM   35  C   UNL     1     -43.596  57.033 -59.465  1.00  0.00     0.069 A 
HETATM   36  C   UNL     1     -44.909  57.439 -59.709  1.00  0.00     0.037 A 
HETATM   37  C   UNL     1     -45.867  56.507 -60.122  1.00  0.00     0.003 A 
HETATM   38  C   UNL     1     -45.517  55.169 -60.292  1.00  0.00     0.000 A 
HETATM   39  C   UNL     1     -44.209  54.757 -60.041  1.00  0.00     0.003 A 
HETATM   40  C   UNL     1     -43.255  55.687 -59.622  1.00  0.00     0.037 A 
ENDBRANCH  34  35
ENDBRANCH  33  34
ENDBRANCH   8  33
TORSDOF 8
ENDMDL
MODEL 9
REMARK VINA RESULT:      -8.5      3.655      6.950
REMARK  8 active torsions:
REMARK  status: ('A' for Active; 'I' for Inactive)
REMARK    1  A    between atoms: C_2  and  N_3 
REMARK    2  A    between atoms: C_2  and  C_34 
REMARK       I    between atoms: N_3  and  C_4 
REMARK    3  A    between atoms: C_4  and  C_5 
REMARK    4  A    between atoms: C_5  and  N_6 
REMARK       I    between atoms: N_12  and  C_13 
REMARK    5  A    between atoms: C_13  and  C_14 
REMARK    6  A    between atoms: C_14  and  O_15 
REMARK    7  A    between atoms: O_15  and  C_16 
REMARK    8  A    between atoms: N_25  and  C_26 
ROOT
HETATM    1  N   UNL     1     -41.818  58.546 -51.998  1.00  0.00    -0.325 N 
HETATM    2  C   UNL     1     -42.626  59.647 -51.852  1.00  0.00     0.250 C 
HETATM    3  O   UNL     1     -42.897  60.175 -50.784  1.00  0.00    -0.270 OA
HETATM    4  C   UNL     1     -43.148  60.030 -53.254  1.00  0.00     0.118 C 
HETATM    5  C   UNL     1     -43.034  61.547 -53.429  1.00  0.00     0.061 C 
HETATM    6  C   UNL     1     -44.127  62.315 -52.689  1.00  0.00     0.129 C 
HETATM    7  N   UNL     1     -45.455  61.740 -52.887  1.00  0.00    -0.350 N 
HETATM    8  C   UNL     1     -46.546  62.616 -52.907  1.00  0.00     0.244 C 
HETATM    9  O   UNL     1     -46.400  63.842 -52.872  1.00  0.00    -0.271 OA
HETATM   10  C   UNL     1     -45.579  60.319 -52.576  1.00  0.00     0.129 C 
HETATM   11  C   UNL     1     -44.580  59.481 -53.361  1.00  0.00     0.061 C 
HETATM   12  N   UNL     1     -42.212  59.266 -54.135  1.00  0.00    -0.346 N 
HETATM   13  C   UNL     1     -41.435  58.307 -53.354  1.00  0.00     0.254 C 
ENDROOT
BRANCH  12  14
HETATM   14  C   UNL     1     -42.194  59.195 -55.517  1.00  0.00     0.032 A 
HETATM   15  C   UNL     1     -41.913  60.292 -56.346  1.00  0.00     0.029 A 
HETATM   16  C   UNL     1     -41.912  60.205 -57.746  1.00  0.00     0.002 A 
HETATM   17  C   UNL     1     -42.184  58.998 -58.373  1.00  0.00     0.000 A 
HETATM   18  C   UNL     1     -42.449  57.883 -57.595  1.00  0.00     0.002 A 
HETATM   19  C   UNL     1     -42.449  57.984 -56.195  1.00  0.00     0.029 A 
ENDBRANCH  12  14
BRANCH   1  20
HETATM   20  C   UNL     1     -41.224  57.797 -50.906  1.00  0.00     0.230 C 
BRANCH  20  21
HETATM   21  C   UNL     1     -41.744  56.364 -50.789  1.00  0.00     0.236 C 
HETATM   22  N   UNL     1     -40.771  55.397 -50.914  1.00  0.00    -0.351 N 
HETATM   23  H   UNL     1     -39.814  55.732 -50.874  1.00  0.00     0.163 HD
HETATM   24  O   UNL     1     -42.920  56.140 -50.516  1.00  0.00    -0.272 OA
BRANCH  22  25
HETATM   25  C   UNL     1     -40.958  53.988 -50.589  1.00  0.00     0.113 C 
HETATM   26  C   UNL     1     -40.300  53.539 -49.281  1.00  0.00     0.037 C 
BRANCH  25  27
HETATM   27  C   UNL     1     -40.631  53.110 -51.784  1.00  0.00    -0.036 A 
HETATM   28  C   UNL     1     -41.109  53.458 -53.058  1.00  0.00     0.009 A 
HETATM   29  C   UNL     1     -40.803  52.679 -54.176  1.00  0.00     0.001 A 
HETATM   30  C   UNL     1     -40.008  51.544 -54.040  1.00  0.00     0.000 A 
HETATM   31  C   UNL     1     -39.516  51.190 -52.786  1.00  0.00     0.001 A 
HETATM   32  C   UNL     1     -39.823  51.969 -51.667  1.00  0.00     0.009 A 
ENDBRANCH  25  27
ENDBRANCH  22  25
ENDBRANCH  20  21
ENDBRANCH   1  20
BRANCH   8  33
HETATM   33  C   UNL     1     -47.957  62.022 -52.948  1.00  0.00     0.278 C 
BRANCH  33  34
HETATM   34  O   UNL     1     -48.851  62.834 -52.196  1.00  0.00    -0.342 OA
BRANCH  34  35
HETATM   35  C   UNL     1     -50.175  62.742 -52.530  1.00  0.00     0.069 A 
HETATM   36  C   UNL     1     -51.245  63.172 -51.744  1.00  0.00     0.037 A 
HETATM   37  C   UNL     1     -52.558  63.006 -52.194  1.00  0.00     0.003 A 
HETATM   38  C   UNL     1     -52.807  62.411 -53.429  1.00  0.00     0.000 A 
HETATM   39  C   UNL     1     -51.743  61.971 -54.214  1.00  0.00     0.003 A 
HETATM   40  C   UNL     1     -50.432  62.131 -53.761  1.00  0.00     0.037 A 
ENDBRANCH  34  35
ENDBRANCH  33  34
ENDBRANCH   8  33
TORSDOF 8
ENDMDL
MODEL 10
REMARK VINA RESULT:      -8.5      1.477      1.886
REMARK  8 active torsions:
REMARK  status: ('A' for Active; 'I' for Inactive)
REMARK    1  A    between atoms: C_2  and  N_3 
REMARK    2  A    between atoms: C_2  and  C_34 
REMARK       I    between atoms: N_3  and  C_4 
REMARK    3  A    between atoms: C_4  and  C_5 
REMARK    4  A    between atoms: C_5  and  N_6 
REMARK       I    between atoms: N_12  and  C_13 
REMARK    5  A    between atoms: C_13  and  C_14 
REMARK    6  A    between atoms: C_14  and  O_15 
REMARK    7  A    between atoms: O_15  and  C_16 
REMARK    8  A    between atoms: N_25  and  C_26 
ROOT
HETATM    1  N   UNL     1     -43.802  56.867 -52.092  1.00  0.00    -0.325 N 
HETATM    2  C   UNL     1     -44.081  57.498 -53.279  1.00  0.00     0.250 C 
HETATM    3  O   UNL     1     -44.186  56.935 -54.359  1.00  0.00    -0.270 OA
HETATM    4  C   UNL     1     -44.170  59.012 -52.991  1.00  0.00     0.118 C 
HETATM    5  C   UNL     1     -45.397  59.582 -53.707  1.00  0.00     0.061 C 
HETATM    6  C   UNL     1     -45.177  59.767 -55.208  1.00  0.00     0.129 C 
HETATM    7  N   UNL     1     -43.897  60.397 -55.518  1.00  0.00    -0.350 N 
HETATM    8  C   UNL     1     -43.839  61.231 -56.641  1.00  0.00     0.244 C 
HETATM    9  O   UNL     1     -44.848  61.522 -57.291  1.00  0.00    -0.271 OA
HETATM   10  C   UNL     1     -42.721  59.753 -54.941  1.00  0.00     0.129 C 
HETATM   11  C   UNL     1     -42.832  59.628 -53.428  1.00  0.00     0.061 C 
HETATM   12  N   UNL     1     -44.305  59.020 -51.502  1.00  0.00    -0.346 N 
HETATM   13  C   UNL     1     -44.016  57.699 -50.951  1.00  0.00     0.254 C 
ENDROOT
BRANCH  12  14
HETATM   14  C   UNL     1     -44.407  60.107 -50.652  1.00  0.00     0.032 A 
HETATM   15  C   UNL     1     -45.460  60.281 -49.740  1.00  0.00     0.029 A 
HETATM   16  C   UNL     1     -45.555  61.397 -48.894  1.00  0.00     0.002 A 
HETATM   17  C   UNL     1     -44.580  62.383 -48.924  1.00  0.00     0.000 A 
HETATM   18  C   UNL     1     -43.512  62.245 -49.795  1.00  0.00     0.002 A 
HETATM   19  C   UNL     1     -43.430  61.125 -50.637  1.00  0.00     0.029 A 
ENDBRANCH  12  14
BRANCH   1  20
HETATM   20  C   UNL     1     -43.517  55.450 -51.947  1.00  0.00     0.230 C 
BRANCH  20  21
HETATM   21  C   UNL     1     -42.041  55.098 -52.129  1.00  0.00     0.236 C 
HETATM   22  N   UNL     1     -41.807  54.097 -53.045  1.00  0.00    -0.351 N 
HETATM   23  H   UNL     1     -42.597  53.845 -53.629  1.00  0.00     0.163 HD
HETATM   24  O   UNL     1     -41.165  55.739 -51.556  1.00  0.00    -0.272 OA
BRANCH  22  25
HETATM   25  C   UNL     1     -40.494  53.760 -53.584  1.00  0.00     0.113 C 
HETATM   26  C   UNL     1     -40.252  54.227 -55.022  1.00  0.00     0.037 C 
BRANCH  25  27
HETATM   27  C   UNL     1     -40.173  52.295 -53.344  1.00  0.00    -0.036 A 
HETATM   28  C   UNL     1     -39.742  51.874 -52.075  1.00  0.00     0.009 A 
HETATM   29  C   UNL     1     -39.462  50.529 -51.823  1.00  0.00     0.001 A 
HETATM   30  C   UNL     1     -39.615  49.582 -52.833  1.00  0.00     0.000 A 
HETATM   31  C   UNL     1     -40.051  49.981 -54.095  1.00  0.00     0.001 A 
HETATM   32  C   UNL     1     -40.331  51.326 -54.347  1.00  0.00     0.009 A 
ENDBRANCH  25  27
ENDBRANCH  22  25
ENDBRANCH  20  21
ENDBRANCH   1  20
BRANCH   8  33
HETATM   33  C   UNL     1     -42.474  61.770 -57.078  1.00  0.00     0.278 C 
BRANCH  33  34
HETATM   34  O   UNL     1     -42.362  61.724 -58.496  1.00  0.00    -0.342 OA
BRANCH  34  35
HETATM   35  C   UNL     1     -42.187  60.484 -59.048  1.00  0.00     0.069 A 
HETATM   36  C   UNL     1     -41.912  59.311 -58.343  1.00  0.00     0.037 A 
HETATM   37  C   UNL     1     -41.738  58.105 -59.029  1.00  0.00     0.003 A 
HETATM   38  C   UNL     1     -41.837  58.067 -60.419  1.00  0.00     0.000 A 
HETATM   39  C   UNL     1     -42.102  59.237 -61.127  1.00  0.00     0.003 A 
HETATM   40  C   UNL     1     -42.268  60.443 -60.442  1.00  0.00     0.037 A 
ENDBRANCH  34  35
ENDBRANCH  33  34
ENDBRANCH   8  33
TORSDOF 8
ENDMDL
