MODEL 1
REMARK VINA RESULT:      -8.4      0.000      0.000
REMARK  4 active torsions:
REMARK  status: ('A' for Active; 'I' for Inactive)
REMARK    1  A    between atoms: C_2  and  C_3 
REMARK    2  A    between atoms: C_8  and  N_9 
REMARK       I    between atoms: N_9  and  C_10 
REMARK       I    between atoms: C_10  and  N_11 
REMARK    3  A    between atoms: N_11  and  C_12 
REMARK    4  A    between atoms: C_12  and  C_13 
ROOT
HETATM    1  N   UNL     1     -42.236  56.525 -56.155  1.00  0.00    -0.305 N 
HETATM    2  C   UNL     1     -42.093  55.176 -55.933  1.00  0.00     0.321 C 
HETATM    3  N   UNL     1     -40.840  54.888 -55.442  1.00  0.00    -0.339 N 
HETATM    4  O   UNL     1     -42.928  54.314 -56.164  1.00  0.00    -0.247 OA
HETATM    5  H   UNL     1     -41.379  57.042 -56.279  1.00  0.00     0.171 HD
HETATM    6  H   UNL     1     -40.366  55.623 -54.939  1.00  0.00     0.164 HD
ENDROOT
BRANCH   3   7
HETATM    7  C   UNL     1     -40.441  53.532 -55.124  1.00  0.00     0.163 C 
BRANCH   7   8
HETATM    8  C   UNL     1     -40.388  53.319 -53.627  1.00  0.00    -0.029 A 
HETATM    9  C   UNL     1     -40.103  52.053 -53.040  1.00  0.00    -0.018 A 
HETATM   10  C   UNL     1     -40.083  51.947 -51.626  1.00  0.00    -0.025 A 
HETATM   11  C   UNL     1     -39.833  50.880 -53.783  1.00  0.00     0.013 A 
HETATM   12  C   UNL     1     -39.791  50.716 -51.014  1.00  0.00     0.012 A 
HETATM   13  C   UNL     1     -40.353  53.073 -50.834  1.00  0.00     0.012 A 
HETATM   14  C   UNL     1     -39.524  49.581 -51.775  1.00  0.00     0.001 A 
HETATM   15  C   UNL     1     -39.547  49.662 -53.160  1.00  0.00     0.001 A 
HETATM   16  C   UNL     1     -40.646  54.303 -51.415  1.00  0.00     0.002 A 
HETATM   17  C   UNL     1     -40.666  54.425 -52.799  1.00  0.00     0.010 A 
ENDBRANCH   7   8
ENDBRANCH   3   7
BRANCH   1  18
HETATM   18  C   UNL     1     -43.410  57.171 -56.512  1.00  0.00     0.095 A 
HETATM   19  C   UNL     1     -43.741  57.470 -57.819  1.00  0.00     0.107 A 
HETATM   20  O   UNL     1     -44.934  58.116 -57.849  1.00  0.00    -0.215 OA
HETATM   21  N   UNL     1     -45.410  58.268 -56.567  1.00  0.00    -0.131 NA
HETATM   22  C   UNL     1     -44.496  57.708 -55.761  1.00  0.00     0.087 A 
HETATM   23  C   UNL     1     -44.720  57.774 -54.297  1.00  0.00     0.075 C 
BRANCH  19  24
HETATM   24  C   UNL     1     -43.113  57.226 -59.139  1.00  0.00     0.065 C 
HETATM   25  C   UNL     1     -43.223  55.769 -59.553  1.00  0.00     0.012 C 
ENDBRANCH  19  24
ENDBRANCH   1  18
TORSDOF 4
ENDMDL
MODEL 2
REMARK VINA RESULT:      -8.3      1.859      3.192
REMARK  4 active torsions:
REMARK  status: ('A' for Active; 'I' for Inactive)
REMARK    1  A    between atoms: C_2  and  C_3 
REMARK    2  A    between atoms: C_8  and  N_9 
REMARK       I    between atoms: N_9  and  C_10 
REMARK       I    between atoms: C_10  and  N_11 
REMARK    3  A    between atoms: N_11  and  C_12 
REMARK    4  A    between atoms: C_12  and  C_13 
ROOT
HETATM    1  N   UNL     1     -42.243  56.355 -57.731  1.00  0.00    -0.305 N 
HETATM    2  C   UNL     1     -42.475  56.481 -56.382  1.00  0.00     0.321 C 
HETATM    3  N   UNL     1     -41.536  55.785 -55.654  1.00  0.00    -0.339 N 
HETATM    4  O   UNL     1     -43.400  57.087 -55.862  1.00  0.00    -0.247 OA
HETATM    5  H   UNL     1     -41.702  55.550 -58.009  1.00  0.00     0.171 HD
HETATM    6  H   UNL     1     -40.637  55.640 -56.088  1.00  0.00     0.164 HD
ENDROOT
BRANCH   3   7
HETATM    7  C   UNL     1     -41.561  55.763 -54.206  1.00  0.00     0.163 C 
BRANCH   7   8
HETATM    8  C   UNL     1     -41.006  54.460 -53.673  1.00  0.00    -0.029 A 
HETATM    9  C   UNL     1     -40.838  54.209 -52.281  1.00  0.00    -0.018 A 
HETATM   10  C   UNL     1     -40.303  52.959 -51.875  1.00  0.00    -0.025 A 
HETATM   11  C   UNL     1     -41.175  55.132 -51.264  1.00  0.00     0.013 A 
HETATM   12  C   UNL     1     -40.136  52.672 -50.510  1.00  0.00     0.012 A 
HETATM   13  C   UNL     1     -39.939  52.005 -52.838  1.00  0.00     0.012 A 
HETATM   14  C   UNL     1     -40.483  53.602 -49.533  1.00  0.00     0.001 A 
HETATM   15  C   UNL     1     -41.001  54.833 -49.910  1.00  0.00     0.001 A 
HETATM   16  C   UNL     1     -40.093  52.265 -54.196  1.00  0.00     0.002 A 
HETATM   17  C   UNL     1     -40.619  53.482 -54.611  1.00  0.00     0.010 A 
ENDBRANCH   7   8
ENDBRANCH   3   7
BRANCH   1  18
HETATM   18  C   UNL     1     -42.909  57.036 -58.739  1.00  0.00     0.095 A 
HETATM   19  C   UNL     1     -43.780  56.423 -59.617  1.00  0.00     0.107 A 
HETATM   20  O   UNL     1     -44.259  57.339 -60.496  1.00  0.00    -0.215 OA
HETATM   21  N   UNL     1     -43.708  58.570 -60.227  1.00  0.00    -0.131 NA
HETATM   22  C   UNL     1     -42.892  58.392 -59.177  1.00  0.00     0.087 A 
HETATM   23  C   UNL     1     -42.108  59.554 -58.694  1.00  0.00     0.075 C 
BRANCH  19  24
HETATM   24  C   UNL     1     -44.301  55.045 -59.783  1.00  0.00     0.065 C 
HETATM   25  C   UNL     1     -45.012  54.870 -61.114  1.00  0.00     0.012 C 
ENDBRANCH  19  24
ENDBRANCH   1  18
TORSDOF 4
ENDMDL
MODEL 3
REMARK VINA RESULT:      -8.2      1.797      3.214
REMARK  4 active torsions:
REMARK  status: ('A' for Active; 'I' for Inactive)
REMARK    1  A    between atoms: C_2  and  C_3 
REMARK    2  A    between atoms: C_8  and  N_9 
REMARK       I    between atoms: N_9  and  C_10 
REMARK       I    between atoms: C_10  and  N_11 
REMARK    3  A    between atoms: N_11  and  C_12 
REMARK    4  A    between atoms: C_12  and  C_13 
ROOT
HETATM    1  N   UNL     1     -42.484  55.659 -57.798  1.00  0.00    -0.305 N 
HETATM    2  C   UNL     1     -42.561  55.836 -56.437  1.00  0.00     0.321 C 
HETATM    3  N   UNL     1     -41.390  55.449 -55.824  1.00  0.00    -0.339 N 
HETATM    4  O   UNL     1     -43.531  56.242 -55.815  1.00  0.00    -0.247 OA
HETATM    5  H   UNL     1     -41.801  54.988 -58.115  1.00  0.00     0.171 HD
HETATM    6  H   UNL     1     -40.549  55.489 -56.378  1.00  0.00     0.164 HD
ENDROOT
BRANCH   3   7
HETATM    7  C   UNL     1     -41.218  55.541 -54.388  1.00  0.00     0.163 C 
BRANCH   7   8
HETATM    8  C   UNL     1     -40.760  54.219 -53.811  1.00  0.00    -0.029 A 
HETATM    9  C   UNL     1     -40.716  53.967 -52.410  1.00  0.00    -0.018 A 
HETATM   10  C   UNL     1     -40.265  52.699 -51.961  1.00  0.00    -0.025 A 
HETATM   11  C   UNL     1     -41.098  54.907 -51.424  1.00  0.00     0.013 A 
HETATM   12  C   UNL     1     -40.221  52.412 -50.586  1.00  0.00     0.012 A 
HETATM   13  C   UNL     1     -39.861  51.728 -52.889  1.00  0.00     0.012 A 
HETATM   14  C   UNL     1     -40.611  53.358 -49.642  1.00  0.00     0.001 A 
HETATM   15  C   UNL     1     -41.048  54.607 -50.061  1.00  0.00     0.001 A 
HETATM   16  C   UNL     1     -39.893  51.988 -54.256  1.00  0.00     0.002 A 
HETATM   17  C   UNL     1     -40.336  53.224 -54.713  1.00  0.00     0.010 A 
ENDBRANCH   7   8
ENDBRANCH   3   7
BRANCH   1  18
HETATM   18  C   UNL     1     -43.427  56.074 -58.727  1.00  0.00     0.095 A 
HETATM   19  C   UNL     1     -43.636  57.400 -59.050  1.00  0.00     0.107 A 
HETATM   20  O   UNL     1     -44.629  57.491 -59.971  1.00  0.00    -0.215 OA
HETATM   21  N   UNL     1     -45.103  56.234 -60.267  1.00  0.00    -0.131 NA
HETATM   22  C   UNL     1     -44.389  55.381 -59.518  1.00  0.00     0.087 A 
HETATM   23  C   UNL     1     -44.724  53.938 -59.588  1.00  0.00     0.075 C 
BRANCH  19  24
HETATM   24  C   UNL     1     -43.021  58.686 -58.644  1.00  0.00     0.065 C 
HETATM   25  C   UNL     1     -42.110  59.239 -59.725  1.00  0.00     0.012 C 
ENDBRANCH  19  24
ENDBRANCH   1  18
TORSDOF 4
ENDMDL
MODEL 4
REMARK VINA RESULT:      -8.2      3.042      4.076
REMARK  4 active torsions:
REMARK  status: ('A' for Active; 'I' for Inactive)
REMARK    1  A    between atoms: C_2  and  C_3 
REMARK    2  A    between atoms: C_8  and  N_9 
REMARK       I    between atoms: N_9  and  C_10 
REMARK       I    between atoms: C_10  and  N_11 
REMARK    3  A    between atoms: N_11  and  C_12 
REMARK    4  A    between atoms: C_12  and  C_13 
ROOT
HETATM    1  N   UNL     1     -40.965  58.002 -53.854  1.00  0.00    -0.305 N 
HETATM    2  C   UNL     1     -41.575  56.773 -53.936  1.00  0.00     0.321 C 
HETATM    3  N   UNL     1     -40.653  55.783 -54.195  1.00  0.00    -0.339 N 
HETATM    4  O   UNL     1     -42.773  56.553 -53.838  1.00  0.00    -0.247 OA
HETATM    5  H   UNL     1     -40.072  58.080 -54.317  1.00  0.00     0.171 HD
HETATM    6  H   UNL     1     -39.705  55.953 -53.898  1.00  0.00     0.164 HD
ENDROOT
BRANCH   3   7
HETATM    7  C   UNL     1     -41.046  54.394 -54.325  1.00  0.00     0.163 C 
BRANCH   7   8
HETATM    8  C   UNL     1     -40.676  53.608 -53.086  1.00  0.00    -0.029 A 
HETATM    9  C   UNL     1     -40.285  52.239 -53.134  1.00  0.00    -0.018 A 
HETATM   10  C   UNL     1     -39.963  51.581 -51.919  1.00  0.00    -0.025 A 
HETATM   11  C   UNL     1     -40.193  51.483 -54.326  1.00  0.00     0.013 A 
HETATM   12  C   UNL     1     -39.560  50.234 -51.931  1.00  0.00     0.012 A 
HETATM   13  C   UNL     1     -40.046  52.273 -50.702  1.00  0.00     0.012 A 
HETATM   14  C   UNL     1     -39.475  49.521 -53.123  1.00  0.00     0.001 A 
HETATM   15  C   UNL     1     -39.793  50.145 -54.321  1.00  0.00     0.001 A 
HETATM   16  C   UNL     1     -40.444  53.606 -50.663  1.00  0.00     0.002 A 
HETATM   17  C   UNL     1     -40.758  54.267 -51.844  1.00  0.00     0.010 A 
ENDBRANCH   7   8
ENDBRANCH   3   7
BRANCH   1  18
HETATM   18  C   UNL     1     -41.573  59.188 -53.470  1.00  0.00     0.095 A 
HETATM   19  C   UNL     1     -41.729  59.564 -52.151  1.00  0.00     0.107 A 
HETATM   20  O   UNL     1     -42.372  60.758 -52.092  1.00  0.00    -0.215 OA
HETATM   21  N   UNL     1     -42.663  61.190 -53.366  1.00  0.00    -0.131 NA
HETATM   22  C   UNL     1     -42.191  60.248 -54.196  1.00  0.00     0.087 A 
HETATM   23  C   UNL     1     -42.415  60.420 -55.651  1.00  0.00     0.075 C 
BRANCH  19  24
HETATM   24  C   UNL     1     -41.342  58.982 -50.844  1.00  0.00     0.065 C 
HETATM   25  C   UNL     1     -40.017  59.536 -50.352  1.00  0.00     0.012 C 
ENDBRANCH  19  24
ENDBRANCH   1  18
TORSDOF 4
ENDMDL
MODEL 5
REMARK VINA RESULT:      -8.0      1.711      2.154
REMARK  4 active torsions:
REMARK  status: ('A' for Active; 'I' for Inactive)
REMARK    1  A    between atoms: C_2  and  C_3 
REMARK    2  A    between atoms: C_8  and  N_9 
REMARK       I    between atoms: N_9  and  C_10 
REMARK       I    between atoms: C_10  and  N_11 
REMARK    3  A    between atoms: N_11  and  C_12 
REMARK    4  A    between atoms: C_12  and  C_13 
ROOT
HETATM    1  N   UNL     1     -42.037  56.680 -56.653  1.00  0.00    -0.305 N 
HETATM    2  C   UNL     1     -42.825  56.353 -55.575  1.00  0.00     0.321 C 
HETATM    3  N   UNL     1     -42.155  55.514 -54.713  1.00  0.00    -0.339 N 
HETATM    4  O   UNL     1     -43.980  56.707 -55.392  1.00  0.00    -0.247 OA
HETATM    5  H   UNL     1     -41.285  56.039 -56.857  1.00  0.00     0.171 HD
HETATM    6  H   UNL     1     -41.149  55.567 -54.715  1.00  0.00     0.164 HD
ENDROOT
BRANCH   3   7
HETATM    7  C   UNL     1     -42.771  55.026 -53.496  1.00  0.00     0.163 C 
BRANCH   7   8
HETATM    8  C   UNL     1     -41.737  54.427 -52.567  1.00  0.00    -0.029 A 
HETATM    9  C   UNL     1     -41.021  53.237 -52.881  1.00  0.00    -0.018 A 
HETATM   10  C   UNL     1     -40.075  52.746 -51.944  1.00  0.00    -0.025 A 
HETATM   11  C   UNL     1     -41.189  52.504 -54.079  1.00  0.00     0.013 A 
HETATM   12  C   UNL     1     -39.340  51.582 -52.227  1.00  0.00     0.012 A 
HETATM   13  C   UNL     1     -39.871  53.422 -50.732  1.00  0.00     0.012 A 
HETATM   14  C   UNL     1     -39.526  50.887 -53.419  1.00  0.00     0.001 A 
HETATM   15  C   UNL     1     -40.452  51.347 -54.345  1.00  0.00     0.001 A 
HETATM   16  C   UNL     1     -40.587  54.576 -50.427  1.00  0.00     0.002 A 
HETATM   17  C   UNL     1     -41.514  55.073 -51.335  1.00  0.00     0.010 A 
ENDBRANCH   7   8
ENDBRANCH   3   7
BRANCH   1  18
HETATM   18  C   UNL     1     -42.346  57.610 -57.635  1.00  0.00     0.095 A 
HETATM   19  C   UNL     1     -42.613  57.266 -58.944  1.00  0.00     0.107 A 
HETATM   20  O   UNL     1     -42.861  58.388 -59.667  1.00  0.00    -0.215 OA
HETATM   21  N   UNL     1     -42.752  59.494 -58.856  1.00  0.00    -0.131 NA
HETATM   22  C   UNL     1     -42.436  59.033 -57.637  1.00  0.00     0.087 A 
HETATM   23  C   UNL     1     -42.197  60.018 -56.556  1.00  0.00     0.075 C 
BRANCH  19  24
HETATM   24  C   UNL     1     -42.708  55.990 -59.693  1.00  0.00     0.065 C 
HETATM   25  C   UNL     1     -44.034  55.292 -59.448  1.00  0.00     0.012 C 
ENDBRANCH  19  24
ENDBRANCH   1  18
TORSDOF 4
ENDMDL
MODEL 6
REMARK VINA RESULT:      -7.9      2.266      3.451
REMARK  4 active torsions:
REMARK  status: ('A' for Active; 'I' for Inactive)
REMARK    1  A    between atoms: C_2  and  C_3 
REMARK    2  A    between atoms: C_8  and  N_9 
REMARK       I    between atoms: N_9  and  C_10 
REMARK       I    between atoms: C_10  and  N_11 
REMARK    3  A    between atoms: N_11  and  C_12 
REMARK    4  A    between atoms: C_12  and  C_13 
ROOT
HETATM    1  N   UNL     1     -43.674  56.517 -57.040  1.00  0.00    -0.305 N 
HETATM    2  C   UNL     1     -43.105  55.620 -56.168  1.00  0.00     0.321 C 
HETATM    3  N   UNL     1     -43.899  55.441 -55.058  1.00  0.00    -0.339 N 
HETATM    4  O   UNL     1     -42.025  55.065 -56.306  1.00  0.00    -0.247 OA
HETATM    5  H   UNL     1     -44.344  57.155 -56.637  1.00  0.00     0.171 HD
HETATM    6  H   UNL     1     -44.887  55.610 -55.170  1.00  0.00     0.164 HD
ENDROOT
BRANCH   3   7
HETATM    7  C   UNL     1     -43.520  54.540 -53.989  1.00  0.00     0.163 C 
BRANCH   7   8
HETATM    8  C   UNL     1     -42.938  55.301 -52.817  1.00  0.00    -0.029 A 
HETATM    9  C   UNL     1     -41.914  54.764 -51.985  1.00  0.00    -0.018 A 
HETATM   10  C   UNL     1     -41.434  55.549 -50.905  1.00  0.00    -0.025 A 
HETATM   11  C   UNL     1     -41.334  53.487 -52.168  1.00  0.00     0.013 A 
HETATM   12  C   UNL     1     -40.415  55.056 -50.072  1.00  0.00     0.012 A 
HETATM   13  C   UNL     1     -41.977  56.820 -50.665  1.00  0.00     0.012 A 
HETATM   14  C   UNL     1     -39.862  53.796 -50.283  1.00  0.00     0.001 A 
HETATM   15  C   UNL     1     -40.323  53.010 -51.330  1.00  0.00     0.001 A 
HETATM   16  C   UNL     1     -42.988  57.330 -51.474  1.00  0.00     0.002 A 
HETATM   17  C   UNL     1     -43.466  56.577 -52.539  1.00  0.00     0.010 A 
ENDBRANCH   7   8
ENDBRANCH   3   7
BRANCH   1  18
HETATM   18  C   UNL     1     -43.214  56.820 -58.313  1.00  0.00     0.095 A 
HETATM   19  C   UNL     1     -43.449  56.019 -59.412  1.00  0.00     0.107 A 
HETATM   20  O   UNL     1     -42.861  56.565 -60.506  1.00  0.00    -0.215 OA
HETATM   21  N   UNL     1     -42.216  57.728 -60.153  1.00  0.00    -0.131 NA
HETATM   22  C   UNL     1     -42.420  57.882 -58.836  1.00  0.00     0.087 A 
HETATM   23  C   UNL     1     -41.785  59.038 -58.159  1.00  0.00     0.075 C 
BRANCH  19  24
HETATM   24  C   UNL     1     -44.194  54.759 -59.649  1.00  0.00     0.065 C 
HETATM   25  C   UNL     1     -45.012  54.822 -60.927  1.00  0.00     0.012 C 
ENDBRANCH  19  24
ENDBRANCH   1  18
TORSDOF 4
ENDMDL
MODEL 7
REMARK VINA RESULT:      -7.7      1.457      2.773
REMARK  4 active torsions:
REMARK  status: ('A' for Active; 'I' for Inactive)
REMARK    1  A    between atoms: C_2  and  C_3 
REMARK    2  A    between atoms: C_8  and  N_9 
REMARK       I    between atoms: N_9  and  C_10 
REMARK       I    between atoms: C_10  and  N_11 
REMARK    3  A    between atoms: N_11  and  C_12 
REMARK    4  A    between atoms: C_12  and  C_13 
ROOT
HETATM    1  N   UNL     1     -42.332  57.200 -54.953  1.00  0.00    -0.305 N 
HETATM    2  C   UNL     1     -42.260  55.830 -55.041  1.00  0.00     0.321 C 
HETATM    3  N   UNL     1     -40.962  55.395 -54.889  1.00  0.00    -0.339 N 
HETATM    4  O   UNL     1     -43.191  55.071 -55.262  1.00  0.00    -0.247 OA
HETATM    5  H   UNL     1     -41.475  57.697 -55.146  1.00  0.00     0.171 HD
HETATM    6  H   UNL     1     -40.341  55.987 -54.359  1.00  0.00     0.164 HD
ENDROOT
BRANCH   3   7
HETATM    7  C   UNL     1     -40.622  53.988 -54.939  1.00  0.00     0.163 C 
BRANCH   7   8
HETATM    8  C   UNL     1     -40.413  53.430 -53.547  1.00  0.00    -0.029 A 
HETATM    9  C   UNL     1     -40.108  52.060 -53.307  1.00  0.00    -0.018 A 
HETATM   10  C   UNL     1     -39.937  51.626 -51.967  1.00  0.00    -0.025 A 
HETATM   11  C   UNL     1     -39.959  51.092 -54.327  1.00  0.00     0.013 A 
HETATM   12  C   UNL     1     -39.621  50.285 -51.694  1.00  0.00     0.012 A 
HETATM   13  C   UNL     1     -40.082  52.537 -50.910  1.00  0.00     0.012 A 
HETATM   14  C   UNL     1     -39.476  49.357 -52.723  1.00  0.00     0.001 A 
HETATM   15  C   UNL     1     -39.647  49.760 -54.040  1.00  0.00     0.001 A 
HETATM   16  C   UNL     1     -40.396  53.871 -51.153  1.00  0.00     0.002 A 
HETATM   17  C   UNL     1     -40.563  54.313 -52.460  1.00  0.00     0.010 A 
ENDBRANCH   7   8
ENDBRANCH   3   7
BRANCH   1  18
HETATM   18  C   UNL     1     -43.496  57.954 -54.922  1.00  0.00     0.095 A 
HETATM   19  C   UNL     1     -44.048  58.443 -53.755  1.00  0.00     0.107 A 
HETATM   20  O   UNL     1     -45.187  59.122 -54.041  1.00  0.00    -0.215 OA
HETATM   21  N   UNL     1     -45.418  59.087 -55.397  1.00  0.00    -0.131 NA
HETATM   22  C   UNL     1     -44.408  58.382 -55.929  1.00  0.00     0.087 A 
HETATM   23  C   UNL     1     -44.423  58.130 -57.390  1.00  0.00     0.075 C 
BRANCH  19  24
HETATM   24  C   UNL     1     -43.668  58.408 -52.322  1.00  0.00     0.065 C 
HETATM   25  C   UNL     1     -44.685  57.646 -51.490  1.00  0.00     0.012 C 
ENDBRANCH  19  24
ENDBRANCH   1  18
TORSDOF 4
ENDMDL
MODEL 8
REMARK VINA RESULT:      -7.7      3.767      7.331
REMARK  4 active torsions:
REMARK  status: ('A' for Active; 'I' for Inactive)
REMARK    1  A    between atoms: C_2  and  C_3 
REMARK    2  A    between atoms: C_8  and  N_9 
REMARK       I    between atoms: N_9  and  C_10 
REMARK       I    between atoms: C_10  and  N_11 
REMARK    3  A    between atoms: N_11  and  C_12 
REMARK    4  A    between atoms: C_12  and  C_13 
ROOT
HETATM    1  N   UNL     1     -39.812  53.102 -51.504  1.00  0.00    -0.305 N 
HETATM    2  C   UNL     1     -40.925  53.804 -51.108  1.00  0.00     0.321 C 
HETATM    3  N   UNL     1     -40.569  54.950 -50.432  1.00  0.00    -0.339 N 
HETATM    4  O   UNL     1     -42.088  53.471 -51.280  1.00  0.00    -0.247 OA
HETATM    5  H   UNL     1     -38.968  53.287 -50.982  1.00  0.00     0.171 HD
HETATM    6  H   UNL     1     -39.667  55.345 -50.646  1.00  0.00     0.164 HD
ENDROOT
BRANCH   3   7
HETATM    7  C   UNL     1     -41.564  55.866 -49.913  1.00  0.00     0.163 C 
BRANCH   7   8
HETATM    8  C   UNL     1     -41.561  57.166 -50.688  1.00  0.00    -0.029 A 
HETATM    9  C   UNL     1     -42.385  57.382 -51.829  1.00  0.00    -0.018 A 
HETATM   10  C   UNL     1     -42.309  58.631 -52.497  1.00  0.00    -0.025 A 
HETATM   11  C   UNL     1     -43.287  56.422 -52.347  1.00  0.00     0.013 A 
HETATM   12  C   UNL     1     -43.118  58.883 -53.618  1.00  0.00     0.012 A 
HETATM   13  C   UNL     1     -41.426  59.619 -52.038  1.00  0.00     0.012 A 
HETATM   14  C   UNL     1     -44.000  57.918 -54.099  1.00  0.00     0.001 A 
HETATM   15  C   UNL     1     -44.083  56.687 -53.464  1.00  0.00     0.001 A 
HETATM   16  C   UNL     1     -40.613  59.395 -50.931  1.00  0.00     0.002 A 
HETATM   17  C   UNL     1     -40.678  58.178 -50.263  1.00  0.00     0.010 A 
ENDBRANCH   7   8
ENDBRANCH   3   7
BRANCH   1  18
HETATM   18  C   UNL     1     -39.804  51.981 -52.322  1.00  0.00     0.095 A 
HETATM   19  C   UNL     1     -39.991  52.043 -53.688  1.00  0.00     0.107 A 
HETATM   20  O   UNL     1     -39.949  50.790 -54.209  1.00  0.00    -0.215 OA
HETATM   21  N   UNL     1     -39.747  49.877 -53.200  1.00  0.00    -0.131 NA
HETATM   22  C   UNL     1     -39.666  50.587 -52.065  1.00  0.00     0.087 A 
HETATM   23  C   UNL     1     -39.503  49.850 -50.789  1.00  0.00     0.075 C 
BRANCH  19  24
HETATM   24  C   UNL     1     -40.193  53.136 -54.669  1.00  0.00     0.065 C 
HETATM   25  C   UNL     1     -41.641  53.590 -54.713  1.00  0.00     0.012 C 
ENDBRANCH  19  24
ENDBRANCH   1  18
TORSDOF 4
ENDMDL
MODEL 9
REMARK VINA RESULT:      -7.7      2.587      3.998
REMARK  4 active torsions:
REMARK  status: ('A' for Active; 'I' for Inactive)
REMARK    1  A    between atoms: C_2  and  C_3 
REMARK    2  A    between atoms: C_8  and  N_9 
REMARK       I    between atoms: N_9  and  C_10 
REMARK       I    between atoms: C_10  and  N_11 
REMARK    3  A    between atoms: N_11  and  C_12 
REMARK    4  A    between atoms: C_12  and  C_13 
ROOT
HETATM    1  N   UNL     1     -41.799  57.401 -55.121  1.00  0.00    -0.305 N 
HETATM    2  C   UNL     1     -42.447  56.312 -54.588  1.00  0.00     0.321 C 
HETATM    3  N   UNL     1     -41.878  55.138 -55.029  1.00  0.00    -0.339 N 
HETATM    4  O   UNL     1     -43.422  56.340 -53.852  1.00  0.00    -0.247 OA
HETATM    5  H   UNL     1     -41.286  57.232 -55.973  1.00  0.00     0.171 HD
HETATM    6  H   UNL     1     -40.908  55.174 -55.300  1.00  0.00     0.164 HD
ENDROOT
BRANCH   3   7
HETATM    7  C   UNL     1     -42.380  53.846 -54.607  1.00  0.00     0.163 C 
BRANCH   7   8
HETATM    8  C   UNL     1     -41.377  53.136 -53.724  1.00  0.00    -0.029 A 
HETATM    9  C   UNL     1     -41.266  53.395 -52.327  1.00  0.00    -0.018 A 
HETATM   10  C   UNL     1     -40.290  52.686 -51.580  1.00  0.00    -0.025 A 
HETATM   11  C   UNL     1     -42.074  54.321 -51.627  1.00  0.00     0.013 A 
HETATM   12  C   UNL     1     -40.162  52.907 -50.198  1.00  0.00     0.012 A 
HETATM   13  C   UNL     1     -39.450  51.763 -52.219  1.00  0.00     0.012 A 
HETATM   14  C   UNL     1     -40.978  53.822 -49.538  1.00  0.00     0.001 A 
HETATM   15  C   UNL     1     -41.933  54.531 -50.253  1.00  0.00     0.001 A 
HETATM   16  C   UNL     1     -39.555  51.527 -53.587  1.00  0.00     0.002 A 
HETATM   17  C   UNL     1     -40.509  52.210 -54.333  1.00  0.00     0.010 A 
ENDBRANCH   7   8
ENDBRANCH   3   7
BRANCH   1  18
HETATM   18  C   UNL     1     -42.022  58.727 -54.780  1.00  0.00     0.095 A 
HETATM   19  C   UNL     1     -41.423  59.340 -53.698  1.00  0.00     0.107 A 
HETATM   20  O   UNL     1     -41.848  60.626 -53.612  1.00  0.00    -0.215 OA
HETATM   21  N   UNL     1     -42.742  60.886 -54.624  1.00  0.00    -0.131 NA
HETATM   22  C   UNL     1     -42.854  59.748 -55.324  1.00  0.00     0.087 A 
HETATM   23  C   UNL     1     -43.808  59.715 -56.459  1.00  0.00     0.075 C 
BRANCH  19  24
HETATM   24  C   UNL     1     -40.440  58.922 -52.670  1.00  0.00     0.065 C 
HETATM   25  C   UNL     1     -41.090  58.093 -51.576  1.00  0.00     0.012 C 
ENDBRANCH  19  24
ENDBRANCH   1  18
TORSDOF 4
ENDMDL
MODEL 10
REMARK VINA RESULT:      -7.6      2.304      8.125
REMARK  4 active torsions:
REMARK  status: ('A' for Active; 'I' for Inactive)
REMARK    1  A    between atoms: C_2  and  C_3 
REMARK    2  A    between atoms: C_8  and  N_9 
REMARK       I    between atoms: N_9  and  C_10 
REMARK       I    between atoms: C_10  and  N_11 
REMARK    3  A    between atoms: N_11  and  C_12 
REMARK    4  A    between atoms: C_12  and  C_13 
ROOT
HETATM    1  N   UNL     1     -40.757  54.841 -53.631  1.00  0.00    -0.305 N 
HETATM    2  C   UNL     1     -42.005  55.226 -54.058  1.00  0.00     0.321 C 
HETATM    3  N   UNL     1     -41.914  56.149 -55.075  1.00  0.00    -0.339 N 
HETATM    4  O   UNL     1     -43.073  54.852 -53.596  1.00  0.00    -0.247 OA
HETATM    5  H   UNL     1     -40.007  55.487 -53.828  1.00  0.00     0.171 HD
HETATM    6  H   UNL     1     -41.078  56.127 -55.638  1.00  0.00     0.164 HD
ENDROOT
BRANCH   3   7
HETATM    7  C   UNL     1     -43.094  56.710 -55.700  1.00  0.00     0.163 C 
BRANCH   7   8
HETATM    8  C   UNL     1     -42.920  56.807 -57.200  1.00  0.00    -0.029 A 
HETATM    9  C   UNL     1     -42.535  58.013 -57.852  1.00  0.00    -0.018 A 
HETATM   10  C   UNL     1     -42.403  58.010 -59.265  1.00  0.00    -0.025 A 
HETATM   11  C   UNL     1     -42.269  59.228 -57.178  1.00  0.00     0.013 A 
HETATM   12  C   UNL     1     -42.012  59.179 -59.940  1.00  0.00     0.012 A 
HETATM   13  C   UNL     1     -42.664  56.839 -59.992  1.00  0.00     0.012 A 
HETATM   14  C   UNL     1     -41.752  60.357 -59.244  1.00  0.00     0.001 A 
HETATM   15  C   UNL     1     -41.882  60.382 -57.863  1.00  0.00     0.001 A 
HETATM   16  C   UNL     1     -43.055  55.669 -59.348  1.00  0.00     0.002 A 
HETATM   17  C   UNL     1     -43.184  55.653 -57.965  1.00  0.00     0.010 A 
ENDBRANCH   7   8
ENDBRANCH   3   7
BRANCH   1  18
HETATM   18  C   UNL     1     -40.483  53.828 -52.722  1.00  0.00     0.095 A 
HETATM   19  C   UNL     1     -40.256  52.519 -53.096  1.00  0.00     0.107 A 
HETATM   20  O   UNL     1     -40.036  51.763 -51.991  1.00  0.00    -0.215 OA
HETATM   21  N   UNL     1     -40.124  52.551 -50.867  1.00  0.00    -0.131 NA
HETATM   22  C   UNL     1     -40.398  53.790 -51.301  1.00  0.00     0.087 A 
HETATM   23  C   UNL     1     -40.607  54.855 -50.290  1.00  0.00     0.075 C 
BRANCH  19  24
HETATM   24  C   UNL     1     -40.180  51.798 -54.389  1.00  0.00     0.065 C 
HETATM   25  C   UNL     1     -39.918  50.316 -54.191  1.00  0.00     0.012 C 
ENDBRANCH  19  24
ENDBRANCH   1  18
TORSDOF 4
ENDMDL
