MODEL 1
REMARK VINA RESULT:      -8.0      0.000      0.000
REMARK  8 active torsions:
REMARK  status: ('A' for Active; 'I' for Inactive)
REMARK    1  A    between atoms: O_2  and  C_3 
REMARK    2  A    between atoms: C_4  and  O_5 
REMARK    3  A    between atoms: C_6  and  C_7 
REMARK    4  A    between atoms: C_7  and  C_8 
REMARK    5  A    between atoms: C_11  and  C_12 
REMARK    6  A    between atoms: C_12  and  N_13 
REMARK    7  A    between atoms: C_16  and  N_17 
REMARK       I    between atoms: N_17  and  C_18 
REMARK       I    between atoms: C_18  and  N_19 
REMARK    8  A    between atoms: N_19  and  C_20 
ROOT
HETATM    1  N   UNL     1     -43.007  58.069 -55.508  1.00  0.00    -0.065 N 
HETATM    2  H   UNL     1     -43.756  58.766 -55.612  1.00  0.00     0.280 HD
HETATM    3  C   UNL     1     -43.665  56.698 -55.463  1.00  0.00     0.260 C 
HETATM    4  C   UNL     1     -42.849  55.835 -56.444  1.00  0.00     0.113 C 
HETATM    5  C   UNL     1     -42.530  56.852 -57.530  1.00  0.00     0.054 C 
HETATM    6  C   UNL     1     -42.149  58.103 -56.753  1.00  0.00     0.237 C 
ENDROOT
BRANCH   1   7
HETATM    7  C   UNL     1     -42.276  58.429 -54.238  1.00  0.00     0.273 C 
BRANCH   7   8
HETATM    8  C   UNL     1     -42.908  57.770 -53.039  1.00  0.00    -0.029 A 
HETATM    9  C   UNL     1     -42.307  56.634 -52.466  1.00  0.00     0.019 A 
HETATM   10  C   UNL     1     -42.915  55.940 -51.404  1.00  0.00    -0.018 A 
HETATM   11  C   UNL     1     -44.153  56.389 -50.940  1.00  0.00     0.105 A 
HETATM   12  C   UNL     1     -44.733  57.543 -51.467  1.00  0.00     0.102 A 
HETATM   13  C   UNL     1     -44.128  58.224 -52.523  1.00  0.00     0.048 A 
BRANCH  10  14
HETATM   14  C   UNL     1     -42.250  54.708 -50.832  1.00  0.00     0.068 C 
BRANCH  14  15
HETATM   15  C   UNL     1     -41.419  55.025 -49.620  1.00  0.00    -0.032 C 
HETATM   16  C   UNL     1     -40.389  54.286 -49.189  1.00  0.00     0.007 C 
ENDBRANCH  14  15
ENDBRANCH  10  14
BRANCH  11  17
HETATM   17  O   UNL     1     -44.809  55.667 -49.984  1.00  0.00    -0.357 OA
HETATM   18  H   UNL     1     -45.404  55.049 -50.448  1.00  0.00     0.218 HD
ENDBRANCH  11  17
BRANCH  12  19
HETATM   19  O   UNL     1     -45.949  57.990 -51.021  1.00  0.00    -0.353 OA
HETATM   20  C   UNL     1     -45.964  59.422 -50.951  1.00  0.00     0.210 C 
ENDBRANCH  12  19
ENDBRANCH   7   8
ENDBRANCH   1   7
BRANCH   4  21
HETATM   21  N   UNL     1     -41.615  55.253 -55.905  1.00  0.00    -0.337 N 
HETATM   22  C   UNL     1     -41.710  54.180 -55.029  1.00  0.00     0.321 C 
HETATM   23  N   UNL     1     -40.482  53.613 -54.792  1.00  0.00    -0.309 N 
HETATM   24  O   UNL     1     -42.785  53.861 -54.545  1.00  0.00    -0.247 OA
HETATM   25  H   UNL     1     -39.680  54.053 -55.217  1.00  0.00     0.170 HD
HETATM   26  H   UNL     1     -40.880  55.107 -56.588  1.00  0.00     0.164 HD
BRANCH  23  27
HETATM   27  C   UNL     1     -40.203  52.482 -53.993  1.00  0.00     0.036 A 
HETATM   28  C   UNL     1     -40.125  51.175 -54.488  1.00  0.00     0.032 A 
HETATM   29  C   UNL     1     -39.836  50.109 -53.631  1.00  0.00     0.044 A 
HETATM   30  C   UNL     1     -39.622  50.348 -52.280  1.00  0.00     0.116 A 
HETATM   31  F   UNL     1     -39.344  49.325 -51.463  1.00  0.00    -0.206 F 
HETATM   32  C   UNL     1     -39.692  51.636 -51.769  1.00  0.00     0.044 A 
HETATM   33  C   UNL     1     -39.984  52.702 -52.625  1.00  0.00     0.032 A 
ENDBRANCH  23  27
ENDBRANCH   4  21
TORSDOF 8
ENDMDL
MODEL 2
REMARK VINA RESULT:      -8.0      3.426      6.501
REMARK  8 active torsions:
REMARK  status: ('A' for Active; 'I' for Inactive)
REMARK    1  A    between atoms: O_2  and  C_3 
REMARK    2  A    between atoms: C_4  and  O_5 
REMARK    3  A    between atoms: C_6  and  C_7 
REMARK    4  A    between atoms: C_7  and  C_8 
REMARK    5  A    between atoms: C_11  and  C_12 
REMARK    6  A    between atoms: C_12  and  N_13 
REMARK    7  A    between atoms: C_16  and  N_17 
REMARK       I    between atoms: N_17  and  C_18 
REMARK       I    between atoms: C_18  and  N_19 
REMARK    8  A    between atoms: N_19  and  C_20 
ROOT
HETATM    1  N   UNL     1     -42.852  56.895 -51.934  1.00  0.00    -0.065 N 
HETATM    2  H   UNL     1     -43.110  57.220 -50.993  1.00  0.00     0.280 HD
HETATM    3  C   UNL     1     -43.531  57.818 -52.935  1.00  0.00     0.260 C 
HETATM    4  C   UNL     1     -42.427  58.193 -53.941  1.00  0.00     0.113 C 
HETATM    5  C   UNL     1     -41.218  58.289 -53.022  1.00  0.00     0.054 C 
HETATM    6  C   UNL     1     -41.362  57.081 -52.109  1.00  0.00     0.237 C 
ENDROOT
BRANCH   1   7
HETATM    7  C   UNL     1     -43.316  55.463 -52.024  1.00  0.00     0.273 C 
BRANCH   7   8
HETATM    8  C   UNL     1     -42.168  54.504 -51.836  1.00  0.00    -0.029 A 
HETATM    9  C   UNL     1     -41.547  53.927 -52.960  1.00  0.00     0.019 A 
HETATM   10  C   UNL     1     -40.534  52.960 -52.821  1.00  0.00    -0.018 A 
HETATM   11  C   UNL     1     -40.170  52.560 -51.534  1.00  0.00     0.105 A 
HETATM   12  C   UNL     1     -40.745  53.161 -50.414  1.00  0.00     0.102 A 
HETATM   13  C   UNL     1     -41.751  54.115 -50.557  1.00  0.00     0.048 A 
BRANCH  10  14
HETATM   14  C   UNL     1     -39.908  52.345 -54.052  1.00  0.00     0.068 C 
BRANCH  14  15
HETATM   15  C   UNL     1     -40.539  51.029 -54.411  1.00  0.00    -0.032 C 
HETATM   16  C   UNL     1     -39.891  49.857 -54.442  1.00  0.00     0.007 C 
ENDBRANCH  14  15
ENDBRANCH  10  14
BRANCH  11  17
HETATM   17  O   UNL     1     -39.267  51.546 -51.381  1.00  0.00    -0.357 OA
HETATM   18  H   UNL     1     -39.544  50.823 -51.973  1.00  0.00     0.218 HD
ENDBRANCH  11  17
BRANCH  12  19
HETATM   19  O   UNL     1     -40.397  52.773 -49.147  1.00  0.00    -0.353 OA
HETATM   20  C   UNL     1     -40.424  53.892 -48.252  1.00  0.00     0.210 C 
ENDBRANCH  12  19
ENDBRANCH   7   8
ENDBRANCH   1   7
BRANCH   4  21
HETATM   21  N   UNL     1     -42.185  57.220 -55.012  1.00  0.00    -0.337 N 
HETATM   22  C   UNL     1     -43.094  57.139 -56.058  1.00  0.00     0.321 C 
HETATM   23  N   UNL     1     -42.618  56.353 -57.079  1.00  0.00    -0.309 N 
HETATM   24  O   UNL     1     -44.177  57.700 -55.991  1.00  0.00    -0.247 OA
HETATM   25  H   UNL     1     -41.728  55.899 -56.937  1.00  0.00     0.170 HD
HETATM   26  H   UNL     1     -41.230  57.191 -55.351  1.00  0.00     0.164 HD
BRANCH  23  27
HETATM   27  C   UNL     1     -43.248  56.083 -58.314  1.00  0.00     0.036 A 
HETATM   28  C   UNL     1     -43.339  57.003 -59.363  1.00  0.00     0.032 A 
HETATM   29  C   UNL     1     -43.975  56.654 -60.559  1.00  0.00     0.044 A 
HETATM   30  C   UNL     1     -44.516  55.385 -60.708  1.00  0.00     0.116 A 
HETATM   31  F   UNL     1     -45.121  55.053 -61.855  1.00  0.00    -0.206 F 
HETATM   32  C   UNL     1     -44.434  54.455 -59.681  1.00  0.00     0.044 A 
HETATM   33  C   UNL     1     -43.803  54.804 -58.484  1.00  0.00     0.032 A 
ENDBRANCH  23  27
ENDBRANCH   4  21
TORSDOF 8
ENDMDL
MODEL 3
REMARK VINA RESULT:      -7.3      2.092      2.531
REMARK  8 active torsions:
REMARK  status: ('A' for Active; 'I' for Inactive)
REMARK    1  A    between atoms: O_2  and  C_3 
REMARK    2  A    between atoms: C_4  and  O_5 
REMARK    3  A    between atoms: C_6  and  C_7 
REMARK    4  A    between atoms: C_7  and  C_8 
REMARK    5  A    between atoms: C_11  and  C_12 
REMARK    6  A    between atoms: C_12  and  N_13 
REMARK    7  A    between atoms: C_16  and  N_17 
REMARK       I    between atoms: N_17  and  C_18 
REMARK       I    between atoms: C_18  and  N_19 
REMARK    8  A    between atoms: N_19  and  C_20 
ROOT
HETATM    1  N   UNL     1     -42.978  58.905 -55.936  1.00  0.00    -0.065 N 
HETATM    2  H   UNL     1     -43.657  59.624 -56.218  1.00  0.00     0.280 HD
HETATM    3  C   UNL     1     -43.666  58.005 -54.921  1.00  0.00     0.260 C 
HETATM    4  C   UNL     1     -43.355  56.570 -55.388  1.00  0.00     0.113 C 
HETATM    5  C   UNL     1     -43.406  56.741 -56.900  1.00  0.00     0.054 C 
HETATM    6  C   UNL     1     -42.664  58.047 -57.140  1.00  0.00     0.237 C 
ENDROOT
BRANCH   1   7
HETATM    7  C   UNL     1     -41.791  59.649 -55.375  1.00  0.00     0.273 C 
BRANCH   7   8
HETATM    8  C   UNL     1     -41.937  59.871 -53.892  1.00  0.00    -0.029 A 
HETATM    9  C   UNL     1     -41.267  59.024 -52.988  1.00  0.00     0.019 A 
HETATM   10  C   UNL     1     -41.451  59.144 -51.598  1.00  0.00    -0.018 A 
HETATM   11  C   UNL     1     -42.339  60.113 -51.127  1.00  0.00     0.105 A 
HETATM   12  C   UNL     1     -42.969  60.989 -52.012  1.00  0.00     0.102 A 
HETATM   13  C   UNL     1     -42.787  60.863 -53.388  1.00  0.00     0.048 A 
BRANCH  10  14
HETATM   14  C   UNL     1     -40.734  58.200 -50.660  1.00  0.00     0.068 C 
BRANCH  14  15
HETATM   15  C   UNL     1     -41.171  56.774 -50.848  1.00  0.00    -0.032 C 
HETATM   16  C   UNL     1     -42.435  56.343 -50.729  1.00  0.00     0.007 C 
ENDBRANCH  14  15
ENDBRANCH  10  14
BRANCH  11  17
HETATM   17  O   UNL     1     -42.613  60.174 -49.790  1.00  0.00    -0.357 OA
HETATM   18  H   UNL     1     -43.432  60.693 -49.687  1.00  0.00     0.218 HD
ENDBRANCH  11  17
BRANCH  12  19
HETATM   19  O   UNL     1     -43.845  61.941 -51.559  1.00  0.00    -0.353 OA
HETATM   20  C   UNL     1     -43.226  63.234 -51.556  1.00  0.00     0.210 C 
ENDBRANCH  12  19
ENDBRANCH   7   8
ENDBRANCH   1   7
BRANCH   4  21
HETATM   21  N   UNL     1     -42.055  56.033 -54.972  1.00  0.00    -0.337 N 
HETATM   22  C   UNL     1     -42.025  54.896 -54.178  1.00  0.00     0.321 C 
HETATM   23  N   UNL     1     -40.752  54.395 -54.062  1.00  0.00    -0.309 N 
HETATM   24  O   UNL     1     -43.045  54.471 -53.654  1.00  0.00    -0.247 OA
HETATM   25  H   UNL     1     -40.008  54.917 -54.500  1.00  0.00     0.170 HD
HETATM   26  H   UNL     1     -41.359  55.987 -55.709  1.00  0.00     0.164 HD
BRANCH  23  27
HETATM   27  C   UNL     1     -40.352  53.229 -53.371  1.00  0.00     0.036 A 
HETATM   28  C   UNL     1     -40.022  52.024 -53.999  1.00  0.00     0.032 A 
HETATM   29  C   UNL     1     -39.627  50.915 -53.243  1.00  0.00     0.044 A 
HETATM   30  C   UNL     1     -39.559  51.013 -51.860  1.00  0.00     0.116 A 
HETATM   31  F   UNL     1     -39.179  49.951 -51.139  1.00  0.00    -0.206 F 
HETATM   32  C   UNL     1     -39.879  52.200 -51.217  1.00  0.00     0.044 A 
HETATM   33  C   UNL     1     -40.277  53.307 -51.972  1.00  0.00     0.032 A 
ENDBRANCH  23  27
ENDBRANCH   4  21
TORSDOF 8
ENDMDL
MODEL 4
REMARK VINA RESULT:      -7.3      3.328      6.552
REMARK  8 active torsions:
REMARK  status: ('A' for Active; 'I' for Inactive)
REMARK    1  A    between atoms: O_2  and  C_3 
REMARK    2  A    between atoms: C_4  and  O_5 
REMARK    3  A    between atoms: C_6  and  C_7 
REMARK    4  A    between atoms: C_7  and  C_8 
REMARK    5  A    between atoms: C_11  and  C_12 
REMARK    6  A    between atoms: C_12  and  N_13 
REMARK    7  A    between atoms: C_16  and  N_17 
REMARK       I    between atoms: N_17  and  C_18 
REMARK       I    between atoms: C_18  and  N_19 
REMARK    8  A    between atoms: N_19  and  C_20 
ROOT
HETATM    1  N   UNL     1     -43.961  56.802 -50.507  1.00  0.00    -0.065 N 
HETATM    2  H   UNL     1     -44.056  57.034 -49.510  1.00  0.00     0.280 HD
HETATM    3  C   UNL     1     -45.026  57.586 -51.259  1.00  0.00     0.260 C 
HETATM    4  C   UNL     1     -44.284  58.220 -52.451  1.00  0.00     0.113 C 
HETATM    5  C   UNL     1     -42.940  58.546 -51.814  1.00  0.00     0.054 C 
HETATM    6  C   UNL     1     -42.621  57.308 -50.990  1.00  0.00     0.237 C 
ENDROOT
BRANCH   1   7
HETATM    7  C   UNL     1     -44.134  55.306 -50.605  1.00  0.00     0.273 C 
BRANCH   7   8
HETATM    8  C   UNL     1     -42.824  54.624 -50.905  1.00  0.00    -0.029 A 
HETATM    9  C   UNL     1     -42.572  54.131 -52.200  1.00  0.00     0.019 A 
HETATM   10  C   UNL     1     -41.401  53.409 -52.494  1.00  0.00    -0.018 A 
HETATM   11  C   UNL     1     -40.493  53.166 -51.461  1.00  0.00     0.105 A 
HETATM   12  C   UNL     1     -40.710  53.693 -50.187  1.00  0.00     0.102 A 
HETATM   13  C   UNL     1     -41.875  54.403 -49.900  1.00  0.00     0.048 A 
BRANCH  10  14
HETATM   14  C   UNL     1     -41.178  52.874 -53.890  1.00  0.00     0.068 C 
BRANCH  14  15
HETATM   15  C   UNL     1     -41.154  53.970 -54.919  1.00  0.00    -0.032 C 
HETATM   16  C   UNL     1     -40.228  54.936 -54.981  1.00  0.00     0.007 C 
ENDBRANCH  14  15
ENDBRANCH  10  14
BRANCH  11  17
HETATM   17  O   UNL     1     -39.405  52.377 -51.701  1.00  0.00    -0.357 OA
HETATM   18  H   UNL     1     -39.719  51.596 -52.191  1.00  0.00     0.218 HD
ENDBRANCH  11  17
BRANCH  12  19
HETATM   19  O   UNL     1     -39.827  53.458 -49.166  1.00  0.00    -0.353 OA
HETATM   20  C   UNL     1     -40.331  53.987 -47.933  1.00  0.00     0.210 C 
ENDBRANCH  12  19
ENDBRANCH   7   8
ENDBRANCH   1   7
BRANCH   4  21
HETATM   21  N   UNL     1     -44.103  57.355 -53.622  1.00  0.00    -0.337 N 
HETATM   22  C   UNL     1     -43.759  57.937 -54.834  1.00  0.00     0.321 C 
HETATM   23  N   UNL     1     -43.412  56.990 -55.766  1.00  0.00    -0.309 N 
HETATM   24  O   UNL     1     -43.813  59.148 -54.985  1.00  0.00    -0.247 OA
HETATM   25  H   UNL     1     -43.496  56.022 -55.495  1.00  0.00     0.170 HD
HETATM   26  H   UNL     1     -43.564  56.514 -53.450  1.00  0.00     0.164 HD
BRANCH  23  27
HETATM   27  C   UNL     1     -42.965  57.215 -57.087  1.00  0.00     0.036 A 
HETATM   28  C   UNL     1     -42.329  58.388 -57.508  1.00  0.00     0.032 A 
HETATM   29  C   UNL     1     -41.911  58.530 -58.835  1.00  0.00     0.044 A 
HETATM   30  C   UNL     1     -42.124  57.499 -59.740  1.00  0.00     0.116 A 
HETATM   31  F   UNL     1     -41.720  57.636 -61.009  1.00  0.00    -0.206 F 
HETATM   32  C   UNL     1     -42.749  56.325 -59.342  1.00  0.00     0.044 A 
HETATM   33  C   UNL     1     -43.172  56.184 -58.018  1.00  0.00     0.032 A 
ENDBRANCH  23  27
ENDBRANCH   4  21
TORSDOF 8
ENDMDL
MODEL 5
REMARK VINA RESULT:      -7.2      2.999      5.870
REMARK  8 active torsions:
REMARK  status: ('A' for Active; 'I' for Inactive)
REMARK    1  A    between atoms: O_2  and  C_3 
REMARK    2  A    between atoms: C_4  and  O_5 
REMARK    3  A    between atoms: C_6  and  C_7 
REMARK    4  A    between atoms: C_7  and  C_8 
REMARK    5  A    between atoms: C_11  and  C_12 
REMARK    6  A    between atoms: C_12  and  N_13 
REMARK    7  A    between atoms: C_16  and  N_17 
REMARK       I    between atoms: N_17  and  C_18 
REMARK       I    between atoms: C_18  and  N_19 
REMARK    8  A    between atoms: N_19  and  C_20 
ROOT
HETATM    1  N   UNL     1     -43.165  58.707 -54.486  1.00  0.00    -0.065 N 
HETATM    2  H   UNL     1     -43.816  59.503 -54.490  1.00  0.00     0.280 HD
HETATM    3  C   UNL     1     -42.504  58.668 -53.116  1.00  0.00     0.260 C 
HETATM    4  C   UNL     1     -42.598  57.196 -52.673  1.00  0.00     0.113 C 
HETATM    5  C   UNL     1     -43.961  56.811 -53.233  1.00  0.00     0.054 C 
HETATM    6  C   UNL     1     -43.968  57.433 -54.622  1.00  0.00     0.237 C 
ENDROOT
BRANCH   1   7
HETATM    7  C   UNL     1     -42.196  58.956 -55.615  1.00  0.00     0.273 C 
BRANCH   7   8
HETATM    8  C   UNL     1     -42.863  58.782 -56.956  1.00  0.00    -0.029 A 
HETATM    9  C   UNL     1     -42.646  57.606 -57.699  1.00  0.00     0.019 A 
HETATM   10  C   UNL     1     -43.178  57.447 -58.991  1.00  0.00    -0.018 A 
HETATM   11  C   UNL     1     -43.913  58.500 -59.541  1.00  0.00     0.105 A 
HETATM   12  C   UNL     1     -44.176  59.648 -58.793  1.00  0.00     0.102 A 
HETATM   13  C   UNL     1     -43.642  59.803 -57.515  1.00  0.00     0.048 A 
BRANCH  10  14
HETATM   14  C   UNL     1     -42.902  56.180 -59.768  1.00  0.00     0.068 C 
BRANCH  14  15
HETATM   15  C   UNL     1     -43.949  55.129 -59.527  1.00  0.00    -0.032 C 
HETATM   16  C   UNL     1     -44.800  54.675 -60.457  1.00  0.00     0.007 C 
ENDBRANCH  14  15
ENDBRANCH  10  14
BRANCH  11  17
HETATM   17  O   UNL     1     -44.346  58.408 -60.833  1.00  0.00    -0.357 OA
HETATM   18  H   UNL     1     -44.138  57.507 -61.142  1.00  0.00     0.218 HD
ENDBRANCH  11  17
BRANCH  12  19
HETATM   19  O   UNL     1     -44.893  60.688 -59.325  1.00  0.00    -0.353 OA
HETATM   20  C   UNL     1     -44.071  61.854 -59.451  1.00  0.00     0.210 C 
ENDBRANCH  12  19
ENDBRANCH   7   8
ENDBRANCH   1   7
BRANCH   4  21
HETATM   21  N   UNL     1     -41.556  56.305 -53.194  1.00  0.00    -0.337 N 
HETATM   22  C   UNL     1     -41.430  55.035 -52.649  1.00  0.00     0.321 C 
HETATM   23  N   UNL     1     -40.572  54.254 -53.383  1.00  0.00    -0.309 N 
HETATM   24  O   UNL     1     -42.018  54.733 -51.621  1.00  0.00    -0.247 OA
HETATM   25  H   UNL     1     -40.108  54.689 -54.167  1.00  0.00     0.170 HD
HETATM   26  H   UNL     1     -41.484  56.281 -54.205  1.00  0.00     0.164 HD
BRANCH  23  27
HETATM   27  C   UNL     1     -40.239  52.901 -53.154  1.00  0.00     0.036 A 
HETATM   28  C   UNL     1     -39.824  52.397 -51.917  1.00  0.00     0.032 A 
HETATM   29  C   UNL     1     -39.518  51.040 -51.771  1.00  0.00     0.044 A 
HETATM   30  C   UNL     1     -39.633  50.186 -52.859  1.00  0.00     0.116 A 
HETATM   31  F   UNL     1     -39.342  48.887 -52.715  1.00  0.00    -0.206 F 
HETATM   32  C   UNL     1     -40.046  50.664 -54.094  1.00  0.00     0.044 A 
HETATM   33  C   UNL     1     -40.347  52.021 -54.242  1.00  0.00     0.032 A 
ENDBRANCH  23  27
ENDBRANCH   4  21
TORSDOF 8
ENDMDL
MODEL 6
REMARK VINA RESULT:      -7.1      3.718      7.182
REMARK  8 active torsions:
REMARK  status: ('A' for Active; 'I' for Inactive)
REMARK    1  A    between atoms: O_2  and  C_3 
REMARK    2  A    between atoms: C_4  and  O_5 
REMARK    3  A    between atoms: C_6  and  C_7 
REMARK    4  A    between atoms: C_7  and  C_8 
REMARK    5  A    between atoms: C_11  and  C_12 
REMARK    6  A    between atoms: C_12  and  N_13 
REMARK    7  A    between atoms: C_16  and  N_17 
REMARK       I    between atoms: N_17  and  C_18 
REMARK       I    between atoms: C_18  and  N_19 
REMARK    8  A    between atoms: N_19  and  C_20 
ROOT
HETATM    1  N   UNL     1     -43.528  56.475 -50.654  1.00  0.00    -0.065 N 
HETATM    2  H   UNL     1     -43.223  56.572 -49.677  1.00  0.00     0.280 HD
HETATM    3  C   UNL     1     -44.703  57.420 -50.859  1.00  0.00     0.260 C 
HETATM    4  C   UNL     1     -44.387  58.167 -52.168  1.00  0.00     0.113 C 
HETATM    5  C   UNL     1     -42.876  58.320 -52.058  1.00  0.00     0.054 C 
HETATM    6  C   UNL     1     -42.413  56.962 -51.552  1.00  0.00     0.237 C 
ENDROOT
BRANCH   1   7
HETATM    7  C   UNL     1     -43.885  55.021 -50.838  1.00  0.00     0.273 C 
BRANCH   7   8
HETATM    8  C   UNL     1     -42.924  54.336 -51.775  1.00  0.00    -0.029 A 
HETATM    9  C   UNL     1     -41.795  53.672 -51.259  1.00  0.00     0.019 A 
HETATM   10  C   UNL     1     -40.829  53.101 -52.107  1.00  0.00    -0.018 A 
HETATM   11  C   UNL     1     -40.999  53.227 -53.487  1.00  0.00     0.105 A 
HETATM   12  C   UNL     1     -42.139  53.839 -54.009  1.00  0.00     0.102 A 
HETATM   13  C   UNL     1     -43.091  54.408 -53.164  1.00  0.00     0.048 A 
BRANCH  10  14
HETATM   14  C   UNL     1     -39.617  52.417 -51.514  1.00  0.00     0.068 C 
BRANCH  14  15
HETATM   15  C   UNL     1     -39.988  51.197 -50.719  1.00  0.00    -0.032 C 
HETATM   16  C   UNL     1     -39.620  49.946 -51.028  1.00  0.00     0.007 C 
ENDBRANCH  14  15
ENDBRANCH  10  14
BRANCH  11  17
HETATM   17  O   UNL     1     -40.020  52.774 -54.324  1.00  0.00    -0.357 OA
HETATM   18  H   UNL     1     -40.093  51.802 -54.353  1.00  0.00     0.218 HD
ENDBRANCH  11  17
BRANCH  12  19
HETATM   19  O   UNL     1     -42.313  53.971 -55.361  1.00  0.00    -0.353 OA
HETATM   20  C   UNL     1     -42.168  55.341 -55.757  1.00  0.00     0.210 C 
ENDBRANCH  12  19
ENDBRANCH   7   8
ENDBRANCH   1   7
BRANCH   4  21
HETATM   21  N   UNL     1     -44.745  57.465 -53.405  1.00  0.00    -0.337 N 
HETATM   22  C   UNL     1     -45.022  58.212 -54.541  1.00  0.00     0.321 C 
HETATM   23  N   UNL     1     -45.118  57.417 -55.656  1.00  0.00    -0.309 N 
HETATM   24  O   UNL     1     -45.178  59.422 -54.472  1.00  0.00    -0.247 OA
HETATM   25  H   UNL     1     -45.037  56.421 -55.522  1.00  0.00     0.170 HD
HETATM   26  H   UNL     1     -44.162  56.665 -53.624  1.00  0.00     0.164 HD
BRANCH  23  27
HETATM   27  C   UNL     1     -45.345  57.835 -56.987  1.00  0.00     0.036 A 
HETATM   28  C   UNL     1     -44.341  57.936 -57.956  1.00  0.00     0.032 A 
HETATM   29  C   UNL     1     -44.649  58.352 -59.255  1.00  0.00     0.044 A 
HETATM   30  C   UNL     1     -45.961  58.662 -59.587  1.00  0.00     0.116 A 
HETATM   31  F   UNL     1     -46.253  59.057 -60.832  1.00  0.00    -0.206 F 
HETATM   32  C   UNL     1     -46.973  58.566 -58.642  1.00  0.00     0.044 A 
HETATM   33  C   UNL     1     -46.665  58.154 -57.343  1.00  0.00     0.032 A 
ENDBRANCH  23  27
ENDBRANCH   4  21
TORSDOF 8
ENDMDL
MODEL 7
REMARK VINA RESULT:      -7.0      4.870      7.814
REMARK  8 active torsions:
REMARK  status: ('A' for Active; 'I' for Inactive)
REMARK    1  A    between atoms: O_2  and  C_3 
REMARK    2  A    between atoms: C_4  and  O_5 
REMARK    3  A    between atoms: C_6  and  C_7 
REMARK    4  A    between atoms: C_7  and  C_8 
REMARK    5  A    between atoms: C_11  and  C_12 
REMARK    6  A    between atoms: C_12  and  N_13 
REMARK    7  A    between atoms: C_16  and  N_17 
REMARK       I    between atoms: N_17  and  C_18 
REMARK       I    between atoms: C_18  and  N_19 
REMARK    8  A    between atoms: N_19  and  C_20 
ROOT
HETATM    1  N   UNL     1     -42.959  58.177 -58.960  1.00  0.00    -0.065 N 
HETATM    2  H   UNL     1     -43.600  58.684 -59.584  1.00  0.00     0.280 HD
HETATM    3  C   UNL     1     -43.806  57.506 -57.889  1.00  0.00     0.260 C 
HETATM    4  C   UNL     1     -43.286  56.058 -57.820  1.00  0.00     0.113 C 
HETATM    5  C   UNL     1     -42.978  55.792 -59.287  1.00  0.00     0.054 C 
HETATM    6  C   UNL     1     -42.298  57.071 -59.751  1.00  0.00     0.237 C 
ENDROOT
BRANCH   1   7
HETATM    7  C   UNL     1     -42.004  59.209 -58.414  1.00  0.00     0.273 C 
BRANCH   7   8
HETATM    8  C   UNL     1     -41.784  60.326 -59.400  1.00  0.00    -0.029 A 
HETATM    9  C   UNL     1     -41.147  61.511 -58.987  1.00  0.00     0.019 A 
HETATM   10  C   UNL     1     -41.006  62.609 -59.855  1.00  0.00    -0.018 A 
HETATM   11  C   UNL     1     -41.538  62.510 -61.142  1.00  0.00     0.105 A 
HETATM   12  C   UNL     1     -42.127  61.323 -61.578  1.00  0.00     0.102 A 
HETATM   13  C   UNL     1     -42.269  60.240 -60.712  1.00  0.00     0.048 A 
BRANCH  10  14
HETATM   14  C   UNL     1     -40.337  63.874 -59.365  1.00  0.00     0.068 C 
BRANCH  14  15
HETATM   15  C   UNL     1     -38.850  63.849 -59.583  1.00  0.00    -0.032 C 
HETATM   16  C   UNL     1     -38.236  64.276 -60.695  1.00  0.00     0.007 C 
ENDBRANCH  14  15
ENDBRANCH  10  14
BRANCH  11  17
HETATM   17  O   UNL     1     -41.507  63.602 -61.962  1.00  0.00    -0.357 OA
HETATM   18  H   UNL     1     -42.416  63.948 -62.016  1.00  0.00     0.218 HD
ENDBRANCH  11  17
BRANCH  12  19
HETATM   19  O   UNL     1     -42.655  61.218 -62.838  1.00  0.00    -0.353 OA
HETATM   20  C   UNL     1     -44.055  60.919 -62.774  1.00  0.00     0.210 C 
ENDBRANCH  12  19
ENDBRANCH   7   8
ENDBRANCH   1   7
BRANCH   4  21
HETATM   21  N   UNL     1     -42.090  55.849 -56.996  1.00  0.00    -0.337 N 
HETATM   22  C   UNL     1     -42.169  54.986 -55.913  1.00  0.00     0.321 C 
HETATM   23  N   UNL     1     -40.929  54.726 -55.384  1.00  0.00    -0.309 N 
HETATM   24  O   UNL     1     -43.249  54.574 -55.518  1.00  0.00    -0.247 OA
HETATM   25  H   UNL     1     -40.143  55.214 -55.788  1.00  0.00     0.170 HD
HETATM   26  H   UNL     1     -41.233  55.707 -57.519  1.00  0.00     0.164 HD
BRANCH  23  27
HETATM   27  C   UNL     1     -40.621  53.862 -54.310  1.00  0.00     0.036 A 
HETATM   28  C   UNL     1     -40.140  52.558 -54.469  1.00  0.00     0.032 A 
HETATM   29  C   UNL     1     -39.853  51.767 -53.351  1.00  0.00     0.044 A 
HETATM   30  C   UNL     1     -40.042  52.281 -52.076  1.00  0.00     0.116 A 
HETATM   31  F   UNL     1     -39.763  51.523 -51.008  1.00  0.00    -0.206 F 
HETATM   32  C   UNL     1     -40.515  53.573 -51.895  1.00  0.00     0.044 A 
HETATM   33  C   UNL     1     -40.806  54.362 -53.011  1.00  0.00     0.032 A 
ENDBRANCH  23  27
ENDBRANCH   4  21
TORSDOF 8
ENDMDL
MODEL 8
REMARK VINA RESULT:      -7.0      3.281      6.576
REMARK  8 active torsions:
REMARK  status: ('A' for Active; 'I' for Inactive)
REMARK    1  A    between atoms: O_2  and  C_3 
REMARK    2  A    between atoms: C_4  and  O_5 
REMARK    3  A    between atoms: C_6  and  C_7 
REMARK    4  A    between atoms: C_7  and  C_8 
REMARK    5  A    between atoms: C_11  and  C_12 
REMARK    6  A    between atoms: C_12  and  N_13 
REMARK    7  A    between atoms: C_16  and  N_17 
REMARK       I    between atoms: N_17  and  C_18 
REMARK       I    between atoms: C_18  and  N_19 
REMARK    8  A    between atoms: N_19  and  C_20 
ROOT
HETATM    1  N   UNL     1     -43.276  56.341 -50.465  1.00  0.00    -0.065 N 
HETATM    2  H   UNL     1     -43.305  56.462 -49.444  1.00  0.00     0.280 HD
HETATM    3  C   UNL     1     -44.238  57.352 -51.070  1.00  0.00     0.260 C 
HETATM    4  C   UNL     1     -43.449  58.015 -52.215  1.00  0.00     0.113 C 
HETATM    5  C   UNL     1     -42.053  58.070 -51.610  1.00  0.00     0.054 C 
HETATM    6  C   UNL     1     -41.892  56.709 -50.949  1.00  0.00     0.237 C 
ENDROOT
BRANCH   1   7
HETATM    7  C   UNL     1     -43.666  54.907 -50.726  1.00  0.00     0.273 C 
BRANCH   7   8
HETATM    8  C   UNL     1     -42.715  54.249 -51.692  1.00  0.00    -0.029 A 
HETATM    9  C   UNL     1     -41.595  53.549 -51.206  1.00  0.00     0.019 A 
HETATM   10  C   UNL     1     -40.638  53.000 -52.079  1.00  0.00    -0.018 A 
HETATM   11  C   UNL     1     -40.807  53.187 -53.452  1.00  0.00     0.105 A 
HETATM   12  C   UNL     1     -41.939  53.836 -53.946  1.00  0.00     0.102 A 
HETATM   13  C   UNL     1     -42.882  54.383 -53.076  1.00  0.00     0.048 A 
BRANCH  10  14
HETATM   14  C   UNL     1     -39.435  52.275 -51.517  1.00  0.00     0.068 C 
BRANCH  14  15
HETATM   15  C   UNL     1     -39.757  50.858 -51.132  1.00  0.00    -0.032 C 
HETATM   16  C   UNL     1     -39.653  49.804 -51.952  1.00  0.00     0.007 C 
ENDBRANCH  14  15
ENDBRANCH  10  14
BRANCH  11  17
HETATM   17  O   UNL     1     -39.835  52.756 -54.309  1.00  0.00    -0.357 OA
HETATM   18  H   UNL     1     -40.230  52.725 -55.200  1.00  0.00     0.218 HD
ENDBRANCH  11  17
BRANCH  12  19
HETATM   19  O   UNL     1     -42.113  54.028 -55.292  1.00  0.00    -0.353 OA
HETATM   20  C   UNL     1     -43.465  53.742 -55.670  1.00  0.00     0.210 C 
ENDBRANCH  12  19
ENDBRANCH   7   8
ENDBRANCH   1   7
BRANCH   4  21
HETATM   21  N   UNL     1     -43.431  57.281 -53.485  1.00  0.00    -0.337 N 
HETATM   22  C   UNL     1     -43.202  57.984 -54.659  1.00  0.00     0.321 C 
HETATM   23  N   UNL     1     -42.996  57.139 -55.721  1.00  0.00    -0.309 N 
HETATM   24  O   UNL     1     -43.228  59.206 -54.672  1.00  0.00    -0.247 OA
HETATM   25  H   UNL     1     -43.086  56.149 -55.548  1.00  0.00     0.170 HD
HETATM   26  H   UNL     1     -42.908  56.413 -53.467  1.00  0.00     0.164 HD
BRANCH  23  27
HETATM   27  C   UNL     1     -42.691  57.498 -57.053  1.00  0.00     0.036 A 
HETATM   28  C   UNL     1     -42.170  58.741 -57.427  1.00  0.00     0.032 A 
HETATM   29  C   UNL     1     -41.888  59.017 -58.769  1.00  0.00     0.044 A 
HETATM   30  C   UNL     1     -42.123  58.048 -59.736  1.00  0.00     0.116 A 
HETATM   31  F   UNL     1     -41.849  58.314 -61.019  1.00  0.00    -0.206 F 
HETATM   32  C   UNL     1     -42.636  56.807 -59.386  1.00  0.00     0.044 A 
HETATM   33  C   UNL     1     -42.921  56.533 -58.045  1.00  0.00     0.032 A 
ENDBRANCH  23  27
ENDBRANCH   4  21
TORSDOF 8
ENDMDL
MODEL 9
REMARK VINA RESULT:      -7.0     15.214     18.430
REMARK  8 active torsions:
REMARK  status: ('A' for Active; 'I' for Inactive)
REMARK    1  A    between atoms: O_2  and  C_3 
REMARK    2  A    between atoms: C_4  and  O_5 
REMARK    3  A    between atoms: C_6  and  C_7 
REMARK    4  A    between atoms: C_7  and  C_8 
REMARK    5  A    between atoms: C_11  and  C_12 
REMARK    6  A    between atoms: C_12  and  N_13 
REMARK    7  A    between atoms: C_16  and  N_17 
REMARK       I    between atoms: N_17  and  C_18 
REMARK       I    between atoms: C_18  and  N_19 
REMARK    8  A    between atoms: N_19  and  C_20 
ROOT
HETATM    1  N   UNL     1     -37.626  40.720 -58.386  1.00  0.00    -0.065 N 
HETATM    2  H   UNL     1     -38.334  41.002 -59.076  1.00  0.00     0.280 HD
HETATM    3  C   UNL     1     -36.750  41.933 -58.111  1.00  0.00     0.260 C 
HETATM    4  C   UNL     1     -36.648  42.010 -56.576  1.00  0.00     0.113 C 
HETATM    5  C   UNL     1     -38.046  41.564 -56.170  1.00  0.00     0.054 C 
HETATM    6  C   UNL     1     -38.330  40.387 -57.090  1.00  0.00     0.237 C 
ENDROOT
BRANCH   1   7
HETATM    7  C   UNL     1     -36.878  39.564 -59.003  1.00  0.00     0.273 C 
BRANCH   7   8
HETATM    8  C   UNL     1     -37.571  39.065 -60.244  1.00  0.00    -0.029 A 
HETATM    9  C   UNL     1     -38.830  38.443 -60.141  1.00  0.00     0.019 A 
HETATM   10  C   UNL     1     -39.465  37.884 -61.265  1.00  0.00    -0.018 A 
HETATM   11  C   UNL     1     -38.806  37.936 -62.495  1.00  0.00     0.105 A 
HETATM   12  C   UNL     1     -37.582  38.594 -62.617  1.00  0.00     0.102 A 
HETATM   13  C   UNL     1     -36.954  39.142 -61.499  1.00  0.00     0.048 A 
BRANCH  10  14
HETATM   14  C   UNL     1     -40.806  37.201 -61.110  1.00  0.00     0.068 C 
BRANCH  14  15
HETATM   15  C   UNL     1     -41.928  38.023 -61.679  1.00  0.00    -0.032 C 
HETATM   16  C   UNL     1     -42.726  37.631 -62.681  1.00  0.00     0.007 C 
ENDBRANCH  14  15
ENDBRANCH  10  14
BRANCH  11  17
HETATM   17  O   UNL     1     -39.357  37.306 -63.574  1.00  0.00    -0.357 OA
HETATM   18  H   UNL     1     -39.805  37.987 -64.107  1.00  0.00     0.218 HD
ENDBRANCH  11  17
BRANCH  12  19
HETATM   19  O   UNL     1     -36.926  38.648 -63.819  1.00  0.00    -0.353 OA
HETATM   20  C   UNL     1     -35.833  37.721 -63.838  1.00  0.00     0.210 C 
ENDBRANCH  12  19
ENDBRANCH   7   8
ENDBRANCH   1   7
BRANCH   4  21
HETATM   21  N   UNL     1     -35.633  41.147 -55.962  1.00  0.00    -0.337 N 
HETATM   22  C   UNL     1     -35.174  41.458 -54.690  1.00  0.00     0.321 C 
HETATM   23  N   UNL     1     -34.405  40.447 -54.170  1.00  0.00    -0.309 N 
HETATM   24  O   UNL     1     -35.438  42.535 -54.175  1.00  0.00    -0.247 OA
HETATM   25  H   UNL     1     -34.222  39.652 -54.765  1.00  0.00     0.170 HD
HETATM   26  H   UNL     1     -35.806  40.152 -56.058  1.00  0.00     0.164 HD
BRANCH  23  27
HETATM   27  C   UNL     1     -33.811  40.396 -52.889  1.00  0.00     0.036 A 
HETATM   28  C   UNL     1     -32.430  40.376 -52.668  1.00  0.00     0.032 A 
HETATM   29  C   UNL     1     -31.921  40.332 -51.366  1.00  0.00     0.044 A 
HETATM   30  C   UNL     1     -32.792  40.313 -50.286  1.00  0.00     0.116 A 
HETATM   31  F   UNL     1     -32.301  40.274 -49.040  1.00  0.00    -0.206 F 
HETATM   32  C   UNL     1     -34.165  40.336 -50.482  1.00  0.00     0.044 A 
HETATM   33  C   UNL     1     -34.675  40.375 -51.783  1.00  0.00     0.032 A 
ENDBRANCH  23  27
ENDBRANCH   4  21
TORSDOF 8
ENDMDL
MODEL 10
REMARK VINA RESULT:      -7.0      3.980      7.584
REMARK  8 active torsions:
REMARK  status: ('A' for Active; 'I' for Inactive)
REMARK    1  A    between atoms: O_2  and  C_3 
REMARK    2  A    between atoms: C_4  and  O_5 
REMARK    3  A    between atoms: C_6  and  C_7 
REMARK    4  A    between atoms: C_7  and  C_8 
REMARK    5  A    between atoms: C_11  and  C_12 
REMARK    6  A    between atoms: C_12  and  N_13 
REMARK    7  A    between atoms: C_16  and  N_17 
REMARK       I    between atoms: N_17  and  C_18 
REMARK       I    between atoms: C_18  and  N_19 
REMARK    8  A    between atoms: N_19  and  C_20 
ROOT
HETATM    1  N   UNL     1     -42.999  57.076 -51.580  1.00  0.00    -0.065 N 
HETATM    2  H   UNL     1     -43.252  56.957 -50.590  1.00  0.00     0.280 HD
HETATM    3  C   UNL     1     -43.814  58.242 -52.120  1.00  0.00     0.260 C 
HETATM    4  C   UNL     1     -42.799  59.119 -52.876  1.00  0.00     0.113 C 
HETATM    5  C   UNL     1     -41.570  58.970 -51.990  1.00  0.00     0.054 C 
HETATM    6  C   UNL     1     -41.546  57.487 -51.653  1.00  0.00     0.237 C 
ENDROOT
BRANCH   1   7
HETATM    7  C   UNL     1     -43.309  55.762 -52.252  1.00  0.00     0.273 C 
BRANCH   7   8
HETATM    8  C   UNL     1     -42.218  54.752 -52.007  1.00  0.00    -0.029 A 
HETATM    9  C   UNL     1     -41.621  54.088 -53.095  1.00  0.00     0.019 A 
HETATM   10  C   UNL     1     -40.665  53.075 -52.900  1.00  0.00    -0.018 A 
HETATM   11  C   UNL     1     -40.333  52.717 -51.592  1.00  0.00     0.105 A 
HETATM   12  C   UNL     1     -40.883  53.403 -50.508  1.00  0.00     0.102 A 
HETATM   13  C   UNL     1     -41.834  54.403 -50.706  1.00  0.00     0.048 A 
BRANCH  10  14
HETATM   14  C   UNL     1     -40.063  52.368 -54.094  1.00  0.00     0.068 C 
BRANCH  14  15
HETATM   15  C   UNL     1     -40.636  50.991 -54.284  1.00  0.00    -0.032 C 
HETATM   16  C   UNL     1     -39.912  49.864 -54.325  1.00  0.00     0.007 C 
ENDBRANCH  14  15
ENDBRANCH  10  14
BRANCH  11  17
HETATM   17  O   UNL     1     -39.489  51.665 -51.381  1.00  0.00    -0.357 OA
HETATM   18  H   UNL     1     -38.737  51.773 -51.992  1.00  0.00     0.218 HD
ENDBRANCH  11  17
BRANCH  12  19
HETATM   19  O   UNL     1     -40.567  53.058 -49.220  1.00  0.00    -0.353 OA
HETATM   20  C   UNL     1     -40.524  54.220 -48.383  1.00  0.00     0.210 C 
ENDBRANCH  12  19
ENDBRANCH   7   8
ENDBRANCH   1   7
BRANCH   4  21
HETATM   21  N   UNL     1     -42.497  58.703 -54.250  1.00  0.00    -0.337 N 
HETATM   22  C   UNL     1     -42.620  59.634 -55.272  1.00  0.00     0.321 C 
HETATM   23  N   UNL     1     -42.094  59.163 -56.449  1.00  0.00    -0.309 N 
HETATM   24  O   UNL     1     -43.169  60.708 -55.077  1.00  0.00    -0.247 OA
HETATM   25  H   UNL     1     -41.745  58.216 -56.453  1.00  0.00     0.170 HD
HETATM   26  H   UNL     1     -41.650  58.154 -54.352  1.00  0.00     0.164 HD
BRANCH  23  27
HETATM   27  C   UNL     1     -42.005  59.849 -57.681  1.00  0.00     0.036 A 
HETATM   28  C   UNL     1     -41.291  61.039 -57.862  1.00  0.00     0.032 A 
HETATM   29  C   UNL     1     -41.245  61.654 -59.118  1.00  0.00     0.044 A 
HETATM   30  C   UNL     1     -41.909  61.077 -60.192  1.00  0.00     0.116 A 
HETATM   31  F   UNL     1     -41.862  61.667 -61.393  1.00  0.00    -0.206 F 
HETATM   32  C   UNL     1     -42.620  59.896 -60.035  1.00  0.00     0.044 A 
HETATM   33  C   UNL     1     -42.670  59.284 -58.780  1.00  0.00     0.032 A 
ENDBRANCH  23  27
ENDBRANCH   4  21
TORSDOF 8
ENDMDL
