MODEL 1
REMARK VINA RESULT:      -7.3      0.000      0.000
REMARK  7 active torsions:
REMARK  status: ('A' for Active; 'I' for Inactive)
REMARK    1  A    between atoms: C_4  and  C_5 
REMARK    2  A    between atoms: C_10  and  C_11 
REMARK       I    between atoms: C_11  and  N_12 
REMARK    3  A    between atoms: N_12  and  C_13 
REMARK    4  A    between atoms: C_13  and  C_14 
REMARK    5  A    between atoms: C_14  and  C_15 
REMARK    6  A    between atoms: C_15  and  N_16 
REMARK    7  A    between atoms: C_26  and  C_27 
ROOT
HETATM    1  C   UNL     1     -43.105  54.367 -52.310  1.00  0.00     0.125 C 
HETATM    2  N   UNL     1     -43.695  55.655 -52.684  1.00  0.00    -0.365 N 
HETATM    3  C   UNL     1     -43.407  56.281 -53.849  1.00  0.00     0.141 A 
HETATM    4  N   UNL     1     -42.654  55.674 -54.816  1.00  0.00    -0.238 N 
HETATM    5  N   UNL     1     -42.564  56.375 -55.964  1.00  0.00    -0.163 NA
HETATM    6  C   UNL     1     -43.196  57.539 -55.678  1.00  0.00     0.165 A 
HETATM    7  C   UNL     1     -43.729  57.510 -54.366  1.00  0.00     0.092 A 
HETATM    8 BR   UNL     1     -44.734  58.851 -53.529  1.00  0.00    -0.044 Br
HETATM    9  C   UNL     1     -42.042  54.366 -54.667  1.00  0.00     0.221 C 
HETATM   10  C   UNL     1     -42.781  53.561 -53.585  1.00  0.00     0.067 C 
HETATM   11  H   UNL     1     -44.036  56.199 -51.889  1.00  0.00     0.162 HD
ENDROOT
BRANCH   6  12
HETATM   12  C   UNL     1     -43.281  58.594 -56.694  1.00  0.00     0.273 C 
HETATM   13  N   UNL     1     -42.123  58.751 -57.429  1.00  0.00    -0.355 N 
HETATM   14  H   UNL     1     -41.335  58.185 -57.105  1.00  0.00     0.162 HD
HETATM   15  O   UNL     1     -44.283  59.270 -56.940  1.00  0.00    -0.266 OA
BRANCH  13  16
HETATM   16  C   UNL     1     -41.918  59.817 -58.377  1.00  0.00     0.124 C 
BRANCH  16  17
HETATM   17  C   UNL     1     -42.239  59.428 -59.820  1.00  0.00     0.047 C 
BRANCH  17  18
HETATM   18  C   UNL     1     -41.885  58.003 -60.253  1.00  0.00     0.236 C 
BRANCH  18  19
HETATM   19  N   UNL     1     -43.074  57.098 -60.428  1.00  0.00    -0.067 N 
HETATM   20  H   UNL     1     -43.122  56.859 -61.442  1.00  0.00     0.280 HD
HETATM   21  C   UNL     1     -43.034  55.815 -59.619  1.00  0.00     0.261 C 
HETATM   22  C   UNL     1     -44.294  54.985 -59.893  1.00  0.00     0.195 C 
HETATM   23  O   UNL     1     -45.479  55.734 -59.603  1.00  0.00    -0.388 OA
HETATM   24  C   UNL     1     -45.569  56.904 -60.425  1.00  0.00     0.195 C 
HETATM   25  C   UNL     1     -44.384  57.841 -60.167  1.00  0.00     0.261 C 
ENDBRANCH  18  19
ENDBRANCH  17  18
ENDBRANCH  16  17
ENDBRANCH  13  16
ENDBRANCH   6  12
BRANCH   9  26
HETATM   26  C   UNL     1     -40.558  54.524 -54.421  1.00  0.00     0.409 C 
HETATM   27  F   UNL     1     -40.239  55.628 -53.721  1.00  0.00    -0.169 F 
HETATM   28  F   UNL     1     -40.078  53.454 -53.740  1.00  0.00    -0.169 F 
HETATM   29  F   UNL     1     -39.870  54.574 -55.587  1.00  0.00    -0.169 F 
ENDBRANCH   9  26
BRANCH   1  30
HETATM   30  C   UNL     1     -41.966  54.406 -51.311  1.00  0.00     0.005 A 
HETATM   31  S   UNL     1     -41.543  55.862 -50.496  1.00  0.00    -0.104 SA
HETATM   32  C   UNL     1     -40.310  55.092 -49.601  1.00  0.00     0.050 A 
HETATM   33  C   UNL     1     -40.232  53.747 -49.881  1.00  0.00     0.008 A 
HETATM   34  C   UNL     1     -41.193  53.350 -50.854  1.00  0.00     0.017 A 
ENDBRANCH   1  30
TORSDOF 7
ENDMDL
MODEL 2
REMARK VINA RESULT:      -7.1      2.188      3.624
REMARK  7 active torsions:
REMARK  status: ('A' for Active; 'I' for Inactive)
REMARK    1  A    between atoms: C_4  and  C_5 
REMARK    2  A    between atoms: C_10  and  C_11 
REMARK       I    between atoms: C_11  and  N_12 
REMARK    3  A    between atoms: N_12  and  C_13 
REMARK    4  A    between atoms: C_13  and  C_14 
REMARK    5  A    between atoms: C_14  and  C_15 
REMARK    6  A    between atoms: C_15  and  N_16 
REMARK    7  A    between atoms: C_26  and  C_27 
ROOT
HETATM    1  C   UNL     1     -43.414  55.452 -52.579  1.00  0.00     0.125 C 
HETATM    2  N   UNL     1     -43.972  56.262 -53.665  1.00  0.00    -0.365 N 
HETATM    3  C   UNL     1     -43.544  56.162 -54.946  1.00  0.00     0.141 A 
HETATM    4  N   UNL     1     -42.662  55.189 -55.328  1.00  0.00    -0.238 N 
HETATM    5  N   UNL     1     -42.435  55.143 -56.656  1.00  0.00    -0.163 NA
HETATM    6  C   UNL     1     -43.119  56.212 -57.134  1.00  0.00     0.165 A 
HETATM    7  C   UNL     1     -43.817  56.866 -56.090  1.00  0.00     0.092 A 
HETATM    8 BR   UNL     1     -44.944  58.353 -56.251  1.00  0.00    -0.044 Br
HETATM    9  C   UNL     1     -42.054  54.240 -54.413  1.00  0.00     0.221 C 
HETATM   10  C   UNL     1     -42.914  54.106 -53.146  1.00  0.00     0.067 C 
HETATM   11  H   UNL     1     -44.422  57.122 -53.349  1.00  0.00     0.162 HD
ENDROOT
BRANCH   6  12
HETATM   12  C   UNL     1     -43.087  56.518 -58.569  1.00  0.00     0.273 C 
HETATM   13  N   UNL     1     -42.051  57.354 -58.936  1.00  0.00    -0.355 N 
HETATM   14  H   UNL     1     -41.508  57.726 -58.153  1.00  0.00     0.162 HD
HETATM   15  O   UNL     1     -43.859  56.058 -59.413  1.00  0.00    -0.266 OA
BRANCH  13  16
HETATM   16  C   UNL     1     -41.905  57.910 -60.258  1.00  0.00     0.124 C 
BRANCH  16  17
HETATM   17  C   UNL     1     -42.739  59.170 -60.490  1.00  0.00     0.047 C 
BRANCH  17  18
HETATM   18  C   UNL     1     -42.838  60.164 -59.331  1.00  0.00     0.236 C 
BRANCH  18  19
HETATM   19  N   UNL     1     -42.001  61.402 -59.507  1.00  0.00    -0.067 N 
HETATM   20  H   UNL     1     -42.652  62.214 -59.453  1.00  0.00     0.280 HD
HETATM   21  C   UNL     1     -40.895  61.584 -58.483  1.00  0.00     0.261 C 
HETATM   22  C   UNL     1     -40.126  62.879 -58.769  1.00  0.00     0.195 C 
HETATM   23  O   UNL     1     -39.595  62.880 -60.099  1.00  0.00    -0.388 OA
HETATM   24  C   UNL     1     -40.639  62.796 -61.076  1.00  0.00     0.195 C 
HETATM   25  C   UNL     1     -41.424  61.489 -60.920  1.00  0.00     0.261 C 
ENDBRANCH  18  19
ENDBRANCH  17  18
ENDBRANCH  16  17
ENDBRANCH  13  16
ENDBRANCH   6  12
BRANCH   9  26
HETATM   26  C   UNL     1     -40.617  54.635 -54.153  1.00  0.00     0.409 C 
HETATM   27  F   UNL     1     -40.415  55.965 -54.132  1.00  0.00    -0.169 F 
HETATM   28  F   UNL     1     -40.203  54.139 -52.960  1.00  0.00    -0.169 F 
HETATM   29  F   UNL     1     -39.787  54.118 -55.091  1.00  0.00    -0.169 F 
ENDBRANCH   9  26
BRANCH   1  30
HETATM   30  C   UNL     1     -42.416  56.134 -51.666  1.00  0.00     0.005 A 
HETATM   31  S   UNL     1     -42.056  57.809 -51.831  1.00  0.00    -0.104 SA
HETATM   32  C   UNL     1     -40.977  57.785 -50.508  1.00  0.00     0.050 A 
HETATM   33  C   UNL     1     -40.908  56.543 -49.921  1.00  0.00     0.008 A 
HETATM   34  C   UNL     1     -41.746  55.597 -50.578  1.00  0.00     0.017 A 
ENDBRANCH   1  30
TORSDOF 7
ENDMDL
MODEL 3
REMARK VINA RESULT:      -7.0      1.627      2.095
REMARK  7 active torsions:
REMARK  status: ('A' for Active; 'I' for Inactive)
REMARK    1  A    between atoms: C_4  and  C_5 
REMARK    2  A    between atoms: C_10  and  C_11 
REMARK       I    between atoms: C_11  and  N_12 
REMARK    3  A    between atoms: N_12  and  C_13 
REMARK    4  A    between atoms: C_13  and  C_14 
REMARK    5  A    between atoms: C_14  and  C_15 
REMARK    6  A    between atoms: C_15  and  N_16 
REMARK    7  A    between atoms: C_26  and  C_27 
ROOT
HETATM    1  C   UNL     1     -43.247  54.459 -51.574  1.00  0.00     0.125 C 
HETATM    2  N   UNL     1     -43.895  55.770 -51.672  1.00  0.00    -0.365 N 
HETATM    3  C   UNL     1     -43.887  56.506 -52.810  1.00  0.00     0.141 A 
HETATM    4  N   UNL     1     -43.397  55.999 -53.981  1.00  0.00    -0.238 N 
HETATM    5  N   UNL     1     -43.578  56.805 -55.047  1.00  0.00    -0.163 NA
HETATM    6  C   UNL     1     -44.108  57.931 -54.510  1.00  0.00     0.165 A 
HETATM    7  C   UNL     1     -44.310  57.773 -53.117  1.00  0.00     0.092 A 
HETATM    8 BR   UNL     1     -45.067  59.020 -51.942  1.00  0.00    -0.044 Br
HETATM    9  C   UNL     1     -42.784  54.689 -54.106  1.00  0.00     0.221 C 
HETATM   10  C   UNL     1     -43.250  53.779 -52.959  1.00  0.00     0.067 C 
HETATM   11  H   UNL     1     -44.027  56.234 -50.772  1.00  0.00     0.162 HD
ENDROOT
BRANCH   6  12
HETATM   12  C   UNL     1     -44.422  59.075 -55.373  1.00  0.00     0.273 C 
HETATM   13  N   UNL     1     -45.661  58.992 -55.977  1.00  0.00    -0.355 N 
HETATM   14  H   UNL     1     -46.149  58.106 -55.824  1.00  0.00     0.162 HD
HETATM   15  O   UNL     1     -43.703  60.064 -55.536  1.00  0.00    -0.266 OA
BRANCH  13  16
HETATM   16  C   UNL     1     -46.124  59.919 -56.978  1.00  0.00     0.124 C 
BRANCH  16  17
HETATM   17  C   UNL     1     -46.108  59.350 -58.397  1.00  0.00     0.047 C 
BRANCH  17  18
HETATM   18  C   UNL     1     -46.799  58.003 -58.616  1.00  0.00     0.236 C 
BRANCH  18  19
HETATM   19  N   UNL     1     -45.862  56.874 -58.947  1.00  0.00    -0.067 N 
HETATM   20  H   UNL     1     -45.895  56.211 -58.143  1.00  0.00     0.280 HD
HETATM   21  C   UNL     1     -46.184  56.120 -60.224  1.00  0.00     0.261 C 
HETATM   22  C   UNL     1     -45.162  54.998 -60.440  1.00  0.00     0.195 C 
HETATM   23  O   UNL     1     -43.828  55.515 -60.476  1.00  0.00    -0.388 OA
HETATM   24  C   UNL     1     -43.484  56.153 -59.241  1.00  0.00     0.195 C 
HETATM   25  C   UNL     1     -44.408  57.345 -58.971  1.00  0.00     0.261 C 
ENDBRANCH  18  19
ENDBRANCH  17  18
ENDBRANCH  16  17
ENDBRANCH  13  16
ENDBRANCH   6  12
BRANCH   9  26
HETATM   26  C   UNL     1     -41.283  54.839 -54.212  1.00  0.00     0.409 C 
HETATM   27  F   UNL     1     -40.781  55.825 -53.447  1.00  0.00    -0.169 F 
HETATM   28  F   UNL     1     -40.669  53.686 -53.849  1.00  0.00    -0.169 F 
HETATM   29  F   UNL     1     -40.902  55.089 -55.488  1.00  0.00    -0.169 F 
ENDBRANCH   9  26
BRANCH   1  30
HETATM   30  C   UNL     1     -41.901  54.416 -50.879  1.00  0.00     0.005 A 
HETATM   31  S   UNL     1     -41.304  55.775 -50.007  1.00  0.00    -0.104 SA
HETATM   32  C   UNL     1     -39.885  54.947 -49.541  1.00  0.00     0.050 A 
HETATM   33  C   UNL     1     -39.869  53.651 -50.003  1.00  0.00     0.008 A 
HETATM   34  C   UNL     1     -41.034  53.341 -50.761  1.00  0.00     0.017 A 
ENDBRANCH   1  30
TORSDOF 7
ENDMDL
MODEL 4
REMARK VINA RESULT:      -6.9      1.724      3.411
REMARK  7 active torsions:
REMARK  status: ('A' for Active; 'I' for Inactive)
REMARK    1  A    between atoms: C_4  and  C_5 
REMARK    2  A    between atoms: C_10  and  C_11 
REMARK       I    between atoms: C_11  and  N_12 
REMARK    3  A    between atoms: N_12  and  C_13 
REMARK    4  A    between atoms: C_13  and  C_14 
REMARK    5  A    between atoms: C_14  and  C_15 
REMARK    6  A    between atoms: C_15  and  N_16 
REMARK    7  A    between atoms: C_26  and  C_27 
ROOT
HETATM    1  C   UNL     1     -43.279  54.646 -52.645  1.00  0.00     0.125 C 
HETATM    2  N   UNL     1     -43.973  55.634 -53.475  1.00  0.00    -0.365 N 
HETATM    3  C   UNL     1     -43.582  55.934 -54.736  1.00  0.00     0.141 A 
HETATM    4  N   UNL     1     -42.597  55.222 -55.364  1.00  0.00    -0.238 N 
HETATM    5  N   UNL     1     -42.413  55.561 -56.656  1.00  0.00    -0.163 NA
HETATM    6  C   UNL     1     -43.244  56.618 -56.832  1.00  0.00     0.165 A 
HETATM    7  C   UNL     1     -43.982  56.874 -55.651  1.00  0.00     0.092 A 
HETATM    8 BR   UNL     1     -45.294  58.189 -55.408  1.00  0.00    -0.044 Br
HETATM    9  C   UNL     1     -41.841  54.154 -54.736  1.00  0.00     0.221 C 
HETATM   10  C   UNL     1     -42.632  53.577 -53.551  1.00  0.00     0.067 C 
HETATM   11  H   UNL     1     -44.518  56.313 -52.940  1.00  0.00     0.162 HD
ENDROOT
BRANCH   6  12
HETATM   12  C   UNL     1     -43.302  57.294 -58.132  1.00  0.00     0.273 C 
HETATM   13  N   UNL     1     -42.211  58.099 -58.389  1.00  0.00    -0.355 N 
HETATM   14  H   UNL     1     -41.561  58.196 -57.605  1.00  0.00     0.162 HD
HETATM   15  O   UNL     1     -44.194  57.151 -58.971  1.00  0.00    -0.266 OA
BRANCH  13  16
HETATM   16  C   UNL     1     -42.116  58.975 -59.530  1.00  0.00     0.124 C 
BRANCH  16  17
HETATM   17  C   UNL     1     -42.211  60.459 -59.177  1.00  0.00     0.047 C 
BRANCH  17  18
HETATM   18  C   UNL     1     -41.247  60.985 -58.111  1.00  0.00     0.236 C 
BRANCH  18  19
HETATM   19  N   UNL     1     -41.920  61.492 -56.865  1.00  0.00    -0.067 N 
HETATM   20  H   UNL     1     -41.233  62.111 -56.384  1.00  0.00     0.280 HD
HETATM   21  C   UNL     1     -43.207  62.263 -57.094  1.00  0.00     0.261 C 
HETATM   22  C   UNL     1     -43.784  62.726 -55.752  1.00  0.00     0.195 C 
HETATM   23  O   UNL     1     -44.005  61.617 -54.874  1.00  0.00    -0.388 OA
HETATM   24  C   UNL     1     -42.780  60.934 -54.582  1.00  0.00     0.195 C 
HETATM   25  C   UNL     1     -42.159  60.364 -55.862  1.00  0.00     0.261 C 
ENDBRANCH  18  19
ENDBRANCH  17  18
ENDBRANCH  16  17
ENDBRANCH  13  16
ENDBRANCH   6  12
BRANCH   9  26
HETATM   26  C   UNL     1     -40.458  54.652 -54.380  1.00  0.00     0.409 C 
HETATM   27  F   UNL     1     -40.413  55.963 -54.084  1.00  0.00    -0.169 F 
HETATM   28  F   UNL     1     -39.976  53.974 -53.309  1.00  0.00    -0.169 F 
HETATM   29  F   UNL     1     -39.583  54.439 -55.392  1.00  0.00    -0.169 F 
ENDBRANCH   9  26
BRANCH   1  30
HETATM   30  C   UNL     1     -42.343  55.188 -51.582  1.00  0.00     0.005 A 
HETATM   31  S   UNL     1     -42.186  56.881 -51.312  1.00  0.00    -0.104 SA
HETATM   32  C   UNL     1     -41.078  56.650 -50.034  1.00  0.00     0.050 A 
HETATM   33  C   UNL     1     -40.849  55.317 -49.784  1.00  0.00     0.008 A 
HETATM   34  C   UNL     1     -41.587  54.475 -50.665  1.00  0.00     0.017 A 
ENDBRANCH   1  30
TORSDOF 7
ENDMDL
MODEL 5
REMARK VINA RESULT:      -6.7     16.320     19.382
REMARK  7 active torsions:
REMARK  status: ('A' for Active; 'I' for Inactive)
REMARK    1  A    between atoms: C_4  and  C_5 
REMARK    2  A    between atoms: C_10  and  C_11 
REMARK       I    between atoms: C_11  and  N_12 
REMARK    3  A    between atoms: N_12  and  C_13 
REMARK    4  A    between atoms: C_13  and  C_14 
REMARK    5  A    between atoms: C_14  and  C_15 
REMARK    6  A    between atoms: C_15  and  N_16 
REMARK    7  A    between atoms: C_26  and  C_27 
ROOT
HETATM    1  C   UNL     1     -37.246  42.004 -57.014  1.00  0.00     0.125 C 
HETATM    2  N   UNL     1     -37.749  41.876 -55.644  1.00  0.00    -0.365 N 
HETATM    3  C   UNL     1     -36.969  41.472 -54.614  1.00  0.00     0.141 A 
HETATM    4  N   UNL     1     -35.622  41.298 -54.767  1.00  0.00    -0.238 N 
HETATM    5  N   UNL     1     -34.969  41.018 -53.620  1.00  0.00    -0.163 NA
HETATM    6  C   UNL     1     -35.965  40.896 -52.708  1.00  0.00     0.165 A 
HETATM    7  C   UNL     1     -37.222  41.171 -53.300  1.00  0.00     0.092 A 
HETATM    8 BR   UNL     1     -38.888  41.190 -52.444  1.00  0.00    -0.044 Br
HETATM    9  C   UNL     1     -34.921  41.450 -56.029  1.00  0.00     0.221 C 
HETATM   10  C   UNL     1     -35.740  42.338 -56.980  1.00  0.00     0.067 C 
HETATM   11  H   UNL     1     -38.763  41.762 -55.586  1.00  0.00     0.162 HD
ENDROOT
BRANCH   6  12
HETATM   12  C   UNL     1     -35.644  40.558 -51.317  1.00  0.00     0.273 C 
HETATM   13  N   UNL     1     -36.312  39.444 -50.848  1.00  0.00    -0.355 N 
HETATM   14  H   UNL     1     -37.010  39.065 -51.493  1.00  0.00     0.162 HD
HETATM   15  O   UNL     1     -34.827  41.150 -50.608  1.00  0.00    -0.266 OA
BRANCH  13  16
HETATM   16  C   UNL     1     -36.273  39.010 -49.474  1.00  0.00     0.124 C 
BRANCH  16  17
HETATM   17  C   UNL     1     -35.848  37.552 -49.302  1.00  0.00     0.047 C 
BRANCH  17  18
HETATM   18  C   UNL     1     -34.363  37.231 -49.494  1.00  0.00     0.236 C 
BRANCH  18  19
HETATM   19  N   UNL     1     -33.463  38.436 -49.467  1.00  0.00    -0.067 N 
HETATM   20  H   UNL     1     -34.079  39.273 -49.559  1.00  0.00     0.280 HD
HETATM   21  C   UNL     1     -32.615  38.582 -48.216  1.00  0.00     0.261 C 
HETATM   22  C   UNL     1     -31.755  39.846 -48.313  1.00  0.00     0.195 C 
HETATM   23  O   UNL     1     -30.933  39.824 -49.485  1.00  0.00    -0.388 OA
HETATM   24  C   UNL     1     -31.729  39.774 -50.676  1.00  0.00     0.195 C 
HETATM   25  C   UNL     1     -32.576  38.498 -50.710  1.00  0.00     0.261 C 
ENDBRANCH  18  19
ENDBRANCH  17  18
ENDBRANCH  16  17
ENDBRANCH  13  16
ENDBRANCH   6  12
BRANCH   9  26
HETATM   26  C   UNL     1     -34.579  40.087 -56.588  1.00  0.00     0.409 C 
HETATM   27  F   UNL     1     -35.363  39.098 -56.124  1.00  0.00    -0.169 F 
HETATM   28  F   UNL     1     -34.687  40.094 -57.940  1.00  0.00    -0.169 F 
HETATM   29  F   UNL     1     -33.297  39.748 -56.309  1.00  0.00    -0.169 F 
ENDBRANCH   9  26
BRANCH   1  30
HETATM   30  C   UNL     1     -37.597  40.885 -57.975  1.00  0.00     0.005 A 
HETATM   31  S   UNL     1     -37.319  41.042 -59.666  1.00  0.00    -0.104 SA
HETATM   32  C   UNL     1     -37.894  39.465 -59.983  1.00  0.00     0.050 A 
HETATM   33  C   UNL     1     -38.261  38.810 -58.831  1.00  0.00     0.008 A 
HETATM   34  C   UNL     1     -38.078  39.620 -57.675  1.00  0.00     0.017 A 
ENDBRANCH   1  30
TORSDOF 7
ENDMDL
MODEL 6
REMARK VINA RESULT:      -6.6      2.005      2.598
REMARK  7 active torsions:
REMARK  status: ('A' for Active; 'I' for Inactive)
REMARK    1  A    between atoms: C_4  and  C_5 
REMARK    2  A    between atoms: C_10  and  C_11 
REMARK       I    between atoms: C_11  and  N_12 
REMARK    3  A    between atoms: N_12  and  C_13 
REMARK    4  A    between atoms: C_13  and  C_14 
REMARK    5  A    between atoms: C_14  and  C_15 
REMARK    6  A    between atoms: C_15  and  N_16 
REMARK    7  A    between atoms: C_26  and  C_27 
ROOT
HETATM    1  C   UNL     1     -43.455  55.244 -52.593  1.00  0.00     0.125 C 
HETATM    2  N   UNL     1     -44.030  56.119 -53.618  1.00  0.00    -0.365 N 
HETATM    3  C   UNL     1     -43.591  56.131 -54.899  1.00  0.00     0.141 A 
HETATM    4  N   UNL     1     -42.678  55.217 -55.347  1.00  0.00    -0.238 N 
HETATM    5  N   UNL     1     -42.441  55.281 -56.673  1.00  0.00    -0.163 NA
HETATM    6  C   UNL     1     -43.153  56.364 -57.073  1.00  0.00     0.165 A 
HETATM    7  C   UNL     1     -43.877  56.914 -55.988  1.00  0.00     0.092 A 
HETATM    8 BR   UNL     1     -45.046  58.377 -56.042  1.00  0.00    -0.044 Br
HETATM    9  C   UNL     1     -42.048  54.218 -54.503  1.00  0.00     0.221 C 
HETATM   10  C   UNL     1     -42.912  53.961 -53.258  1.00  0.00     0.067 C 
HETATM   11  H   UNL     1     -44.507  56.940 -53.240  1.00  0.00     0.162 HD
ENDROOT
BRANCH   6  12
HETATM   12  C   UNL     1     -43.121  56.780 -58.479  1.00  0.00     0.273 C 
HETATM   13  N   UNL     1     -42.004  57.518 -58.815  1.00  0.00    -0.355 N 
HETATM   14  H   UNL     1     -41.401  57.759 -58.023  1.00  0.00     0.162 HD
HETATM   15  O   UNL     1     -43.963  56.484 -59.330  1.00  0.00    -0.266 OA
BRANCH  13  16
HETATM   16  C   UNL     1     -41.826  58.161 -60.093  1.00  0.00     0.124 C 
BRANCH  16  17
HETATM   17  C   UNL     1     -42.327  59.604 -60.130  1.00  0.00     0.047 C 
BRANCH  17  18
HETATM   18  C   UNL     1     -43.197  60.009 -61.323  1.00  0.00     0.236 C 
BRANCH  18  19
HETATM   19  N   UNL     1     -44.664  59.732 -61.139  1.00  0.00    -0.067 N 
HETATM   20  H   UNL     1     -44.845  58.790 -61.548  1.00  0.00     0.280 HD
HETATM   21  C   UNL     1     -45.150  59.749 -59.701  1.00  0.00     0.261 C 
HETATM   22  C   UNL     1     -46.651  59.447 -59.654  1.00  0.00     0.195 C 
HETATM   23  O   UNL     1     -47.391  60.377 -60.451  1.00  0.00    -0.388 OA
HETATM   24  C   UNL     1     -47.000  60.307 -61.828  1.00  0.00     0.195 C 
HETATM   25  C   UNL     1     -45.520  60.669 -61.991  1.00  0.00     0.261 C 
ENDBRANCH  18  19
ENDBRANCH  17  18
ENDBRANCH  16  17
ENDBRANCH  13  16
ENDBRANCH   6  12
BRANCH   9  26
HETATM   26  C   UNL     1     -40.625  54.632 -54.201  1.00  0.00     0.409 C 
HETATM   27  F   UNL     1     -40.179  54.209 -53.005  1.00  0.00    -0.169 F 
HETATM   28  F   UNL     1     -39.784  54.146 -55.147  1.00  0.00    -0.169 F 
HETATM   29  F   UNL     1     -40.490  55.980 -54.226  1.00  0.00    -0.169 F 
ENDBRANCH   9  26
BRANCH   1  30
HETATM   30  C   UNL     1     -42.483  55.882 -51.621  1.00  0.00     0.005 A 
HETATM   31  S   UNL     1     -41.891  55.017 -50.255  1.00  0.00    -0.104 SA
HETATM   32  C   UNL     1     -40.906  56.322 -49.762  1.00  0.00     0.050 A 
HETATM   33  C   UNL     1     -40.990  57.387 -50.627  1.00  0.00     0.008 A 
HETATM   34  C   UNL     1     -41.886  57.130 -51.704  1.00  0.00     0.017 A 
ENDBRANCH   1  30
TORSDOF 7
ENDMDL
MODEL 7
REMARK VINA RESULT:      -6.6      3.771      8.551
REMARK  7 active torsions:
REMARK  status: ('A' for Active; 'I' for Inactive)
REMARK    1  A    between atoms: C_4  and  C_5 
REMARK    2  A    between atoms: C_10  and  C_11 
REMARK       I    between atoms: C_11  and  N_12 
REMARK    3  A    between atoms: N_12  and  C_13 
REMARK    4  A    between atoms: C_13  and  C_14 
REMARK    5  A    between atoms: C_14  and  C_15 
REMARK    6  A    between atoms: C_15  and  N_16 
REMARK    7  A    between atoms: C_26  and  C_27 
ROOT
HETATM    1  C   UNL     1     -43.215  59.091 -58.914  1.00  0.00     0.125 C 
HETATM    2  N   UNL     1     -43.192  58.819 -57.474  1.00  0.00    -0.365 N 
HETATM    3  C   UNL     1     -43.087  57.566 -56.969  1.00  0.00     0.141 A 
HETATM    4  N   UNL     1     -42.849  56.490 -57.778  1.00  0.00    -0.238 N 
HETATM    5  N   UNL     1     -42.644  55.336 -57.112  1.00  0.00    -0.163 NA
HETATM    6  C   UNL     1     -42.874  55.669 -55.818  1.00  0.00     0.165 A 
HETATM    7  C   UNL     1     -43.155  57.052 -55.700  1.00  0.00     0.092 A 
HETATM    8 BR   UNL     1     -43.483  58.002 -54.120  1.00  0.00    -0.044 Br
HETATM    9  C   UNL     1     -42.762  56.565 -59.225  1.00  0.00     0.221 C 
HETATM   10  C   UNL     1     -42.416  58.000 -59.657  1.00  0.00     0.067 C 
HETATM   11  H   UNL     1     -43.609  59.559 -56.907  1.00  0.00     0.162 HD
ENDROOT
BRANCH   6  12
HETATM   12  C   UNL     1     -42.776  54.646 -54.771  1.00  0.00     0.273 C 
HETATM   13  N   UNL     1     -41.628  53.883 -54.846  1.00  0.00    -0.355 N 
HETATM   14  H   UNL     1     -41.052  54.064 -55.672  1.00  0.00     0.162 HD
HETATM   15  O   UNL     1     -43.590  54.476 -53.860  1.00  0.00    -0.266 OA
BRANCH  13  16
HETATM   16  C   UNL     1     -41.382  52.727 -54.021  1.00  0.00     0.124 C 
BRANCH  16  17
HETATM   17  C   UNL     1     -40.067  52.793 -53.246  1.00  0.00     0.047 C 
BRANCH  17  18
HETATM   18  C   UNL     1     -40.100  52.361 -51.778  1.00  0.00     0.236 C 
BRANCH  18  19
HETATM   19  N   UNL     1     -40.101  53.503 -50.799  1.00  0.00    -0.067 N 
HETATM   20  H   UNL     1     -39.110  53.811 -50.696  1.00  0.00     0.280 HD
HETATM   21  C   UNL     1     -40.951  54.696 -51.197  1.00  0.00     0.261 C 
HETATM   22  C   UNL     1     -40.859  55.785 -50.123  1.00  0.00     0.195 C 
HETATM   23  O   UNL     1     -41.256  55.283 -48.843  1.00  0.00    -0.388 OA
HETATM   24  C   UNL     1     -40.403  54.212 -48.418  1.00  0.00     0.195 C 
HETATM   25  C   UNL     1     -40.484  53.034 -49.395  1.00  0.00     0.261 C 
ENDBRANCH  18  19
ENDBRANCH  17  18
ENDBRANCH  16  17
ENDBRANCH  13  16
ENDBRANCH   6  12
BRANCH   9  26
HETATM   26  C   UNL     1     -44.031  56.018 -59.839  1.00  0.00     0.409 C 
HETATM   27  F   UNL     1     -44.024  54.682 -59.999  1.00  0.00    -0.169 F 
HETATM   28  F   UNL     1     -45.100  56.332 -59.065  1.00  0.00    -0.169 F 
HETATM   29  F   UNL     1     -44.266  56.567 -61.055  1.00  0.00    -0.169 F 
ENDBRANCH   9  26
BRANCH   1  30
HETATM   30  C   UNL     1     -44.570  59.377 -59.530  1.00  0.00     0.005 A 
HETATM   31  S   UNL     1     -45.989  59.471 -58.560  1.00  0.00    -0.104 SA
HETATM   32  C   UNL     1     -46.975  59.840 -59.904  1.00  0.00     0.050 A 
HETATM   33  C   UNL     1     -46.248  59.926 -61.069  1.00  0.00     0.008 A 
HETATM   34  C   UNL     1     -44.863  59.674 -60.852  1.00  0.00     0.017 A 
ENDBRANCH   1  30
TORSDOF 7
ENDMDL
MODEL 8
REMARK VINA RESULT:      -6.6      2.007      3.111
REMARK  7 active torsions:
REMARK  status: ('A' for Active; 'I' for Inactive)
REMARK    1  A    between atoms: C_4  and  C_5 
REMARK    2  A    between atoms: C_10  and  C_11 
REMARK       I    between atoms: C_11  and  N_12 
REMARK    3  A    between atoms: N_12  and  C_13 
REMARK    4  A    between atoms: C_13  and  C_14 
REMARK    5  A    between atoms: C_14  and  C_15 
REMARK    6  A    between atoms: C_15  and  N_16 
REMARK    7  A    between atoms: C_26  and  C_27 
ROOT
HETATM    1  C   UNL     1     -43.405  55.386 -52.626  1.00  0.00     0.125 C 
HETATM    2  N   UNL     1     -44.006  56.238 -53.655  1.00  0.00    -0.365 N 
HETATM    3  C   UNL     1     -43.607  56.213 -54.950  1.00  0.00     0.141 A 
HETATM    4  N   UNL     1     -42.715  55.280 -55.401  1.00  0.00    -0.238 N 
HETATM    5  N   UNL     1     -42.519  55.308 -56.735  1.00  0.00    -0.163 NA
HETATM    6  C   UNL     1     -43.236  56.385 -57.141  1.00  0.00     0.165 A 
HETATM    7  C   UNL     1     -43.922  56.970 -56.049  1.00  0.00     0.092 A 
HETATM    8 BR   UNL     1     -45.082  58.439 -56.106  1.00  0.00    -0.044 Br
HETATM    9  C   UNL     1     -42.066  54.299 -54.552  1.00  0.00     0.221 C 
HETATM   10  C   UNL     1     -42.892  54.082 -53.273  1.00  0.00     0.067 C 
HETATM   11  H   UNL     1     -44.465  57.072 -53.284  1.00  0.00     0.162 HD
ENDROOT
BRANCH   6  12
HETATM   12  C   UNL     1     -43.246  56.764 -58.558  1.00  0.00     0.273 C 
HETATM   13  N   UNL     1     -42.041  57.269 -59.006  1.00  0.00    -0.355 N 
HETATM   14  H   UNL     1     -41.339  57.404 -58.274  1.00  0.00     0.162 HD
HETATM   15  O   UNL     1     -44.197  56.620 -59.329  1.00  0.00    -0.266 OA
BRANCH  13  16
HETATM   16  C   UNL     1     -41.854  57.844 -60.315  1.00  0.00     0.124 C 
BRANCH  16  17
HETATM   17  C   UNL     1     -42.096  59.352 -60.364  1.00  0.00     0.047 C 
BRANCH  17  18
HETATM   18  C   UNL     1     -43.518  59.821 -60.681  1.00  0.00     0.236 C 
BRANCH  18  19
HETATM   19  N   UNL     1     -44.160  60.630 -59.587  1.00  0.00    -0.067 N 
HETATM   20  H   UNL     1     -44.940  60.052 -59.206  1.00  0.00     0.280 HD
HETATM   21  C   UNL     1     -43.236  61.027 -58.451  1.00  0.00     0.261 C 
HETATM   22  C   UNL     1     -44.012  61.836 -57.406  1.00  0.00     0.195 C 
HETATM   23  O   UNL     1     -44.620  62.991 -57.994  1.00  0.00    -0.388 OA
HETATM   24  C   UNL     1     -45.560  62.621 -59.011  1.00  0.00     0.195 C 
HETATM   25  C   UNL     1     -44.862  61.866 -60.147  1.00  0.00     0.261 C 
ENDBRANCH  18  19
ENDBRANCH  17  18
ENDBRANCH  16  17
ENDBRANCH  13  16
ENDBRANCH   6  12
BRANCH   9  26
HETATM   26  C   UNL     1     -40.632  54.710 -54.305  1.00  0.00     0.409 C 
HETATM   27  F   UNL     1     -40.128  54.253 -53.144  1.00  0.00    -0.169 F 
HETATM   28  F   UNL     1     -39.834  54.257 -55.304  1.00  0.00    -0.169 F 
HETATM   29  F   UNL     1     -40.502  56.059 -54.295  1.00  0.00    -0.169 F 
ENDBRANCH   9  26
BRANCH   1  30
HETATM   30  C   UNL     1     -42.399  56.042 -51.702  1.00  0.00     0.005 A 
HETATM   31  S   UNL     1     -42.048  57.723 -51.815  1.00  0.00    -0.104 SA
HETATM   32  C   UNL     1     -40.953  57.659 -50.506  1.00  0.00     0.050 A 
HETATM   33  C   UNL     1     -40.872  56.398 -49.963  1.00  0.00     0.008 A 
HETATM   34  C   UNL     1     -41.714  55.471 -50.641  1.00  0.00     0.017 A 
ENDBRANCH   1  30
TORSDOF 7
ENDMDL
MODEL 9
REMARK VINA RESULT:      -6.6      3.567      7.382
REMARK  7 active torsions:
REMARK  status: ('A' for Active; 'I' for Inactive)
REMARK    1  A    between atoms: C_4  and  C_5 
REMARK    2  A    between atoms: C_10  and  C_11 
REMARK       I    between atoms: C_11  and  N_12 
REMARK    3  A    between atoms: N_12  and  C_13 
REMARK    4  A    between atoms: C_13  and  C_14 
REMARK    5  A    between atoms: C_14  and  C_15 
REMARK    6  A    between atoms: C_15  and  N_16 
REMARK    7  A    between atoms: C_26  and  C_27 
ROOT
HETATM    1  C   UNL     1     -43.422  59.138 -57.583  1.00  0.00     0.125 C 
HETATM    2  N   UNL     1     -43.214  59.720 -56.254  1.00  0.00    -0.365 N 
HETATM    3  C   UNL     1     -42.615  59.043 -55.246  1.00  0.00     0.141 A 
HETATM    4  N   UNL     1     -42.037  57.821 -55.453  1.00  0.00    -0.238 N 
HETATM    5  N   UNL     1     -41.374  57.338 -54.383  1.00  0.00    -0.163 NA
HETATM    6  C   UNL     1     -41.636  58.243 -53.409  1.00  0.00     0.165 A 
HETATM    7  C   UNL     1     -42.410  59.315 -53.918  1.00  0.00     0.092 A 
HETATM    8 BR   UNL     1     -42.979  60.835 -52.982  1.00  0.00    -0.044 Br
HETATM    9  C   UNL     1     -42.070  57.111 -56.719  1.00  0.00     0.221 C 
HETATM   10  C   UNL     1     -42.316  58.101 -57.870  1.00  0.00     0.067 C 
HETATM   11  H   UNL     1     -43.845  60.493 -56.039  1.00  0.00     0.162 HD
ENDROOT
BRANCH   6  12
HETATM   12  C   UNL     1     -41.099  58.041 -52.059  1.00  0.00     0.273 C 
HETATM   13  N   UNL     1     -41.485  56.849 -51.480  1.00  0.00    -0.355 N 
HETATM   14  H   UNL     1     -42.168  56.316 -52.023  1.00  0.00     0.162 HD
HETATM   15  O   UNL     1     -40.332  58.810 -51.474  1.00  0.00    -0.266 OA
BRANCH  13  16
HETATM   16  C   UNL     1     -41.205  56.500 -50.110  1.00  0.00     0.124 C 
BRANCH  16  17
HETATM   17  C   UNL     1     -40.562  55.122 -49.946  1.00  0.00     0.047 C 
BRANCH  17  18
HETATM   18  C   UNL     1     -41.270  53.939 -50.609  1.00  0.00     0.236 C 
BRANCH  18  19
HETATM   19  N   UNL     1     -40.537  53.363 -51.789  1.00  0.00    -0.067 N 
HETATM   20  H   UNL     1     -39.728  53.994 -51.976  1.00  0.00     0.280 HD
HETATM   21  C   UNL     1     -40.027  51.946 -51.605  1.00  0.00     0.261 C 
HETATM   22  C   UNL     1     -39.297  51.485 -52.871  1.00  0.00     0.195 C 
HETATM   23  O   UNL     1     -40.147  51.575 -54.020  1.00  0.00    -0.388 OA
HETATM   24  C   UNL     1     -40.563  52.926 -54.253  1.00  0.00     0.195 C 
HETATM   25  C   UNL     1     -41.373  53.457 -53.065  1.00  0.00     0.261 C 
ENDBRANCH  18  19
ENDBRANCH  17  18
ENDBRANCH  16  17
ENDBRANCH  13  16
ENDBRANCH   6  12
BRANCH   9  26
HETATM   26  C   UNL     1     -43.073  55.982 -56.642  1.00  0.00     0.409 C 
HETATM   27  F   UNL     1     -43.657  55.694 -57.819  1.00  0.00    -0.169 F 
HETATM   28  F   UNL     1     -42.472  54.851 -56.196  1.00  0.00    -0.169 F 
HETATM   29  F   UNL     1     -44.062  56.263 -55.760  1.00  0.00    -0.169 F 
ENDBRANCH   9  26
BRANCH   1  30
HETATM   30  C   UNL     1     -44.819  58.638 -57.895  1.00  0.00     0.005 A 
HETATM   31  S   UNL     1     -45.224  58.041 -59.457  1.00  0.00    -0.104 SA
HETATM   32  C   UNL     1     -46.823  57.672 -58.985  1.00  0.00     0.050 A 
HETATM   33  C   UNL     1     -47.048  57.961 -57.658  1.00  0.00     0.008 A 
HETATM   34  C   UNL     1     -45.892  58.502 -57.028  1.00  0.00     0.017 A 
ENDBRANCH   1  30
TORSDOF 7
ENDMDL
MODEL 10
REMARK VINA RESULT:      -6.6      2.701      3.753
REMARK  7 active torsions:
REMARK  status: ('A' for Active; 'I' for Inactive)
REMARK    1  A    between atoms: C_4  and  C_5 
REMARK    2  A    between atoms: C_10  and  C_11 
REMARK       I    between atoms: C_11  and  N_12 
REMARK    3  A    between atoms: N_12  and  C_13 
REMARK    4  A    between atoms: C_13  and  C_14 
REMARK    5  A    between atoms: C_14  and  C_15 
REMARK    6  A    between atoms: C_15  and  N_16 
REMARK    7  A    between atoms: C_26  and  C_27 
ROOT
HETATM    1  C   UNL     1     -43.407  57.220 -52.451  1.00  0.00     0.125 C 
HETATM    2  N   UNL     1     -43.806  57.787 -53.742  1.00  0.00    -0.365 N 
HETATM    3  C   UNL     1     -43.520  57.189 -54.923  1.00  0.00     0.141 A 
HETATM    4  N   UNL     1     -42.966  55.940 -54.972  1.00  0.00    -0.238 N 
HETATM    5  N   UNL     1     -42.861  55.434 -56.218  1.00  0.00    -0.163 NA
HETATM    6  C   UNL     1     -43.264  56.455 -57.013  1.00  0.00     0.165 A 
HETATM    7  C   UNL     1     -43.679  57.562 -56.233  1.00  0.00     0.092 A 
HETATM    8 BR   UNL     1     -44.371  59.185 -56.862  1.00  0.00    -0.044 Br
HETATM    9  C   UNL     1     -42.568  55.181 -53.800  1.00  0.00     0.221 C 
HETATM   10  C   UNL     1     -43.333  55.683 -52.565  1.00  0.00     0.067 C 
HETATM   11  H   UNL     1     -43.981  58.793 -53.715  1.00  0.00     0.162 HD
ENDROOT
BRANCH   6  12
HETATM   12  C   UNL     1     -43.261  56.292 -58.471  1.00  0.00     0.273 C 
HETATM   13  N   UNL     1     -44.300  55.516 -58.945  1.00  0.00    -0.355 N 
HETATM   14  H   UNL     1     -44.870  55.079 -58.216  1.00  0.00     0.162 HD
HETATM   15  O   UNL     1     -42.459  56.817 -59.246  1.00  0.00    -0.266 OA
BRANCH  13  16
HETATM   16  C   UNL     1     -44.418  55.094 -60.318  1.00  0.00     0.124 C 
BRANCH  16  17
HETATM   17  C   UNL     1     -45.823  55.270 -60.896  1.00  0.00     0.047 C 
BRANCH  17  18
HETATM   18  C   UNL     1     -46.652  56.444 -60.369  1.00  0.00     0.236 C 
BRANCH  18  19
HETATM   19  N   UNL     1     -47.209  57.338 -61.442  1.00  0.00    -0.067 N 
HETATM   20  H   UNL     1     -46.440  57.497 -62.128  1.00  0.00     0.280 HD
HETATM   21  C   UNL     1     -48.421  56.790 -62.174  1.00  0.00     0.261 C 
HETATM   22  C   UNL     1     -48.882  57.790 -63.241  1.00  0.00     0.195 C 
HETATM   23  O   UNL     1     -49.171  59.066 -62.661  1.00  0.00    -0.388 OA
HETATM   24  C   UNL     1     -48.009  59.631 -62.042  1.00  0.00     0.195 C 
HETATM   25  C   UNL     1     -47.512  58.735 -60.903  1.00  0.00     0.261 C 
ENDBRANCH  18  19
ENDBRANCH  17  18
ENDBRANCH  16  17
ENDBRANCH  13  16
ENDBRANCH   6  12
BRANCH   9  26
HETATM   26  C   UNL     1     -41.063  55.217 -53.658  1.00  0.00     0.409 C 
HETATM   27  F   UNL     1     -40.422  54.345 -54.457  1.00  0.00    -0.169 F 
HETATM   28  F   UNL     1     -40.594  56.457 -53.946  1.00  0.00    -0.169 F 
HETATM   29  F   UNL     1     -40.683  54.951 -52.386  1.00  0.00    -0.169 F 
ENDBRANCH   9  26
BRANCH   1  30
HETATM   30  C   UNL     1     -42.195  57.838 -51.783  1.00  0.00     0.005 A 
HETATM   31  S   UNL     1     -41.530  59.324 -52.341  1.00  0.00    -0.104 SA
HETATM   32  C   UNL     1     -40.333  59.333 -51.123  1.00  0.00     0.050 A 
HETATM   33  C   UNL     1     -40.446  58.251 -50.281  1.00  0.00     0.008 A 
HETATM   34  C   UNL     1     -41.525  57.399 -50.652  1.00  0.00     0.017 A 
ENDBRANCH   1  30
TORSDOF 7
ENDMDL
