MODEL 1
REMARK VINA RESULT:      -8.4      0.000      0.000
REMARK  8 active torsions:
REMARK  status: ('A' for Active; 'I' for Inactive)
REMARK    1  A    between atoms: C_2  and  N_3 
REMARK    2  A    between atoms: C_2  and  C_26 
REMARK       I    between atoms: N_3  and  C_4 
REMARK    3  A    between atoms: C_4  and  C_5 
REMARK    4  A    between atoms: C_5  and  S_6 
REMARK    5  A    between atoms: S_6  and  C_7 
REMARK    6  A    between atoms: C_10  and  C_11 
REMARK    7  A    between atoms: C_11  and  O_12 
REMARK    8  A    between atoms: O_12  and  C_13 
ROOT
HETATM    1  C   UNL     1     -44.406  58.618 -51.042  1.00  0.00     0.191 A 
HETATM    2  N   UNL     1     -43.061  58.495 -51.251  1.00  0.00    -0.314 N 
HETATM    3  C   UNL     1     -42.105  59.551 -51.458  1.00  0.00     0.160 C 
HETATM    4  C   UNL     1     -42.803  57.143 -51.190  1.00  0.00     0.154 A 
HETATM    5  N   UNL     1     -43.945  56.502 -51.032  1.00  0.00    -0.132 NA
HETATM    6  N   UNL     1     -44.950  57.428 -50.955  1.00  0.00    -0.123 NA
ENDROOT
BRANCH   1   7
HETATM    7  S   UNL     1     -45.232  60.120 -50.835  1.00  0.00    -0.081 SA
BRANCH   7   8
HETATM    8  C   UNL     1     -46.152  60.240 -52.399  1.00  0.00     0.185 C 
BRANCH   8   9
HETATM    9  C   UNL     1     -45.223  60.220 -53.604  1.00  0.00     0.227 C 
HETATM   10  N   UNL     1     -45.425  59.176 -54.473  1.00  0.00    -0.352 N 
HETATM   11  H   UNL     1     -46.211  58.547 -54.304  1.00  0.00     0.163 HD
HETATM   12  O   UNL     1     -44.342  61.063 -53.760  1.00  0.00    -0.273 OA
BRANCH  10  13
HETATM   13  C   UNL     1     -44.623  58.941 -55.662  1.00  0.00     0.113 C 
HETATM   14  C   UNL     1     -45.381  59.278 -56.950  1.00  0.00     0.037 C 
BRANCH  13  15
HETATM   15  C   UNL     1     -44.136  57.501 -55.659  1.00  0.00    -0.036 A 
HETATM   16  C   UNL     1     -43.386  57.008 -56.737  1.00  0.00     0.009 A 
HETATM   17  C   UNL     1     -42.899  55.698 -56.725  1.00  0.00     0.001 A 
HETATM   18  C   UNL     1     -43.151  54.867 -55.635  1.00  0.00     0.000 A 
HETATM   19  C   UNL     1     -43.885  55.345 -54.553  1.00  0.00     0.001 A 
HETATM   20  C   UNL     1     -44.371  56.653 -54.563  1.00  0.00     0.009 A 
ENDBRANCH  13  15
ENDBRANCH  10  13
ENDBRANCH   8   9
ENDBRANCH   7   8
ENDBRANCH   1   7
BRANCH   4  21
HETATM   21  C   UNL     1     -41.454  56.520 -51.233  1.00  0.00     0.256 C 
BRANCH  21  22
HETATM   22  O   UNL     1     -41.364  55.794 -52.458  1.00  0.00    -0.344 OA
BRANCH  22  23
HETATM   23  C   UNL     1     -40.907  54.509 -52.339  1.00  0.00     0.069 A 
HETATM   24  C   UNL     1     -40.807  53.589 -53.384  1.00  0.00     0.044 A 
HETATM   25  C   UNL     1     -40.318  52.291 -53.155  1.00  0.00    -0.049 A 
HETATM   26  C   UNL     1     -39.957  51.906 -51.853  1.00  0.00    -0.052 A 
HETATM   27  C   UNL     1     -40.254  51.320 -54.310  1.00  0.00     0.039 C 
HETATM   28  C   UNL     1     -39.395  50.535 -51.563  1.00  0.00     0.039 C 
HETATM   29  C   UNL     1     -40.068  52.832 -50.808  1.00  0.00     0.010 A 
HETATM   30  C   UNL     1     -39.688  49.519 -52.664  1.00  0.00     0.005 C 
HETATM   31  C   UNL     1     -39.369  50.107 -54.032  1.00  0.00     0.005 C 
HETATM   32  C   UNL     1     -40.549  54.120 -51.048  1.00  0.00     0.037 A 
ENDBRANCH  22  23
ENDBRANCH  21  22
ENDBRANCH   4  21
TORSDOF 8
ENDMDL
MODEL 2
REMARK VINA RESULT:      -8.3      2.068      3.016
REMARK  8 active torsions:
REMARK  status: ('A' for Active; 'I' for Inactive)
REMARK    1  A    between atoms: C_2  and  N_3 
REMARK    2  A    between atoms: C_2  and  C_26 
REMARK       I    between atoms: N_3  and  C_4 
REMARK    3  A    between atoms: C_4  and  C_5 
REMARK    4  A    between atoms: C_5  and  S_6 
REMARK    5  A    between atoms: S_6  and  C_7 
REMARK    6  A    between atoms: C_10  and  C_11 
REMARK    7  A    between atoms: C_11  and  O_12 
REMARK    8  A    between atoms: O_12  and  C_13 
ROOT
HETATM    1  C   UNL     1     -41.966  60.014 -53.295  1.00  0.00     0.191 A 
HETATM    2  N   UNL     1     -42.045  59.652 -51.979  1.00  0.00    -0.314 N 
HETATM    3  C   UNL     1     -43.004  60.099 -51.003  1.00  0.00     0.160 C 
HETATM    4  C   UNL     1     -41.029  58.742 -51.788  1.00  0.00     0.154 A 
HETATM    5  N   UNL     1     -40.343  58.633 -52.910  1.00  0.00    -0.132 NA
HETATM    6  N   UNL     1     -40.923  59.443 -53.848  1.00  0.00    -0.123 NA
ENDROOT
BRANCH   1   7
HETATM    7  S   UNL     1     -43.125  61.000 -54.111  1.00  0.00    -0.081 SA
BRANCH   7   8
HETATM    8  C   UNL     1     -44.591  59.923 -54.084  1.00  0.00     0.185 C 
BRANCH   8   9
HETATM    9  C   UNL     1     -44.235  58.476 -54.387  1.00  0.00     0.227 C 
HETATM   10  N   UNL     1     -43.563  58.279 -55.568  1.00  0.00    -0.352 N 
HETATM   11  H   UNL     1     -43.283  59.098 -56.110  1.00  0.00     0.163 HD
HETATM   12  O   UNL     1     -44.558  57.557 -53.637  1.00  0.00    -0.273 OA
BRANCH  10  13
HETATM   13  C   UNL     1     -43.166  56.976 -56.071  1.00  0.00     0.113 C 
HETATM   14  C   UNL     1     -41.992  56.382 -55.286  1.00  0.00     0.037 C 
BRANCH  13  15
HETATM   15  C   UNL     1     -42.850  57.088 -57.553  1.00  0.00    -0.036 A 
HETATM   16  C   UNL     1     -42.304  58.272 -58.071  1.00  0.00     0.009 A 
HETATM   17  C   UNL     1     -41.972  58.370 -59.425  1.00  0.00     0.001 A 
HETATM   18  C   UNL     1     -42.177  57.286 -60.277  1.00  0.00     0.000 A 
HETATM   19  C   UNL     1     -42.708  56.101 -59.776  1.00  0.00     0.001 A 
HETATM   20  C   UNL     1     -43.039  56.000 -58.425  1.00  0.00     0.009 A 
ENDBRANCH  13  15
ENDBRANCH  10  13
ENDBRANCH   8   9
ENDBRANCH   7   8
ENDBRANCH   1   7
BRANCH   4  21
HETATM   21  C   UNL     1     -40.789  57.967 -50.543  1.00  0.00     0.256 C 
BRANCH  21  22
HETATM   22  O   UNL     1     -41.708  56.875 -50.542  1.00  0.00    -0.344 OA
BRANCH  22  23
HETATM   23  C   UNL     1     -41.177  55.669 -50.911  1.00  0.00     0.069 A 
HETATM   24  C   UNL     1     -41.341  55.064 -52.159  1.00  0.00     0.044 A 
HETATM   25  C   UNL     1     -40.746  53.821 -52.439  1.00  0.00    -0.049 A 
HETATM   26  C   UNL     1     -40.008  53.165 -51.439  1.00  0.00    -0.052 A 
HETATM   27  C   UNL     1     -40.973  53.191 -53.793  1.00  0.00     0.039 C 
HETATM   28  C   UNL     1     -39.323  51.846 -51.703  1.00  0.00     0.039 C 
HETATM   29  C   UNL     1     -39.856  53.774 -50.187  1.00  0.00     0.010 A 
HETATM   30  C   UNL     1     -39.874  51.114 -52.925  1.00  0.00     0.005 C 
HETATM   31  C   UNL     1     -39.990  52.066 -54.108  1.00  0.00     0.005 C 
HETATM   32  C   UNL     1     -40.445  55.012 -49.923  1.00  0.00     0.037 A 
ENDBRANCH  22  23
ENDBRANCH  21  22
ENDBRANCH   4  21
TORSDOF 8
ENDMDL
MODEL 3
REMARK VINA RESULT:      -8.3      1.348      2.121
REMARK  8 active torsions:
REMARK  status: ('A' for Active; 'I' for Inactive)
REMARK    1  A    between atoms: C_2  and  N_3 
REMARK    2  A    between atoms: C_2  and  C_26 
REMARK       I    between atoms: N_3  and  C_4 
REMARK    3  A    between atoms: C_4  and  C_5 
REMARK    4  A    between atoms: C_5  and  S_6 
REMARK    5  A    between atoms: S_6  and  C_7 
REMARK    6  A    between atoms: C_10  and  C_11 
REMARK    7  A    between atoms: C_11  and  O_12 
REMARK    8  A    between atoms: O_12  and  C_13 
ROOT
HETATM    1  C   UNL     1     -42.693  59.141 -51.752  1.00  0.00     0.191 A 
HETATM    2  N   UNL     1     -43.176  57.944 -51.304  1.00  0.00    -0.314 N 
HETATM    3  C   UNL     1     -44.555  57.550 -51.171  1.00  0.00     0.160 C 
HETATM    4  C   UNL     1     -42.065  57.178 -51.035  1.00  0.00     0.154 A 
HETATM    5  N   UNL     1     -40.986  57.910 -51.239  1.00  0.00    -0.132 NA
HETATM    6  N   UNL     1     -41.383  59.145 -51.673  1.00  0.00    -0.123 NA
ENDROOT
BRANCH   1   7
HETATM    7  S   UNL     1     -43.667  60.409 -52.404  1.00  0.00    -0.081 SA
BRANCH   7   8
HETATM    8  C   UNL     1     -42.565  61.082 -53.685  1.00  0.00     0.185 C 
BRANCH   8   9
HETATM    9  C   UNL     1     -42.626  60.268 -54.969  1.00  0.00     0.227 C 
HETATM   10  N   UNL     1     -43.872  59.789 -55.292  1.00  0.00    -0.352 N 
HETATM   11  H   UNL     1     -44.665  60.069 -54.714  1.00  0.00     0.163 HD
HETATM   12  O   UNL     1     -41.622  60.036 -55.640  1.00  0.00    -0.273 OA
BRANCH  10  13
HETATM   13  C   UNL     1     -44.147  58.953 -56.448  1.00  0.00     0.113 C 
HETATM   14  C   UNL     1     -45.582  59.122 -56.959  1.00  0.00     0.037 C 
BRANCH  13  15
HETATM   15  C   UNL     1     -43.843  57.505 -56.101  1.00  0.00    -0.036 A 
HETATM   16  C   UNL     1     -43.172  56.685 -57.020  1.00  0.00     0.009 A 
HETATM   17  C   UNL     1     -42.852  55.365 -56.695  1.00  0.00     0.001 A 
HETATM   18  C   UNL     1     -43.195  54.847 -55.447  1.00  0.00     0.000 A 
HETATM   19  C   UNL     1     -43.853  55.651 -54.520  1.00  0.00     0.001 A 
HETATM   20  C   UNL     1     -44.172  56.971 -54.842  1.00  0.00     0.009 A 
ENDBRANCH  13  15
ENDBRANCH  10  13
ENDBRANCH   8   9
ENDBRANCH   7   8
ENDBRANCH   1   7
BRANCH   4  21
HETATM   21  C   UNL     1     -42.080  55.744 -50.641  1.00  0.00     0.256 C 
BRANCH  21  22
HETATM   22  O   UNL     1     -40.735  55.275 -50.704  1.00  0.00    -0.344 OA
BRANCH  22  23
HETATM   23  C   UNL     1     -40.536  54.185 -51.508  1.00  0.00     0.069 A 
HETATM   24  C   UNL     1     -40.116  52.928 -51.072  1.00  0.00     0.044 A 
HETATM   25  C   UNL     1     -39.948  51.870 -51.983  1.00  0.00    -0.049 A 
HETATM   26  C   UNL     1     -40.173  52.091 -53.352  1.00  0.00    -0.052 A 
HETATM   27  C   UNL     1     -39.464  50.534 -51.470  1.00  0.00     0.039 C 
HETATM   28  C   UNL     1     -40.039  50.978 -54.363  1.00  0.00     0.039 C 
HETATM   29  C   UNL     1     -40.586  53.358 -53.783  1.00  0.00     0.010 A 
HETATM   30  C   UNL     1     -39.223  49.793 -53.851  1.00  0.00     0.005 C 
HETATM   31  C   UNL     1     -39.686  49.391 -52.457  1.00  0.00     0.005 C 
HETATM   32  C   UNL     1     -40.757  54.399 -52.868  1.00  0.00     0.037 A 
ENDBRANCH  22  23
ENDBRANCH  21  22
ENDBRANCH   4  21
TORSDOF 8
ENDMDL
MODEL 4
REMARK VINA RESULT:      -8.1      2.421      3.074
REMARK  8 active torsions:
REMARK  status: ('A' for Active; 'I' for Inactive)
REMARK    1  A    between atoms: C_2  and  N_3 
REMARK    2  A    between atoms: C_2  and  C_26 
REMARK       I    between atoms: N_3  and  C_4 
REMARK    3  A    between atoms: C_4  and  C_5 
REMARK    4  A    between atoms: C_5  and  S_6 
REMARK    5  A    between atoms: S_6  and  C_7 
REMARK    6  A    between atoms: C_10  and  C_11 
REMARK    7  A    between atoms: C_11  and  O_12 
REMARK    8  A    between atoms: O_12  and  C_13 
ROOT
HETATM    1  C   UNL     1     -44.329  57.996 -54.586  1.00  0.00     0.191 A 
HETATM    2  N   UNL     1     -43.754  57.897 -53.351  1.00  0.00    -0.314 N 
HETATM    3  C   UNL     1     -43.656  58.922 -52.344  1.00  0.00     0.160 C 
HETATM    4  C   UNL     1     -43.312  56.596 -53.255  1.00  0.00     0.154 A 
HETATM    5  N   UNL     1     -43.546  55.985 -54.401  1.00  0.00    -0.132 NA
HETATM    6  N   UNL     1     -44.169  56.869 -55.239  1.00  0.00    -0.123 NA
ENDROOT
BRANCH   1   7
HETATM    7  S   UNL     1     -45.209  59.370 -55.150  1.00  0.00    -0.081 SA
BRANCH   7   8
HETATM    8  C   UNL     1     -43.862  60.433 -55.754  1.00  0.00     0.185 C 
BRANCH   8   9
HETATM    9  C   UNL     1     -42.908  59.674 -56.663  1.00  0.00     0.227 C 
HETATM   10  N   UNL     1     -43.505  59.018 -57.712  1.00  0.00    -0.352 N 
HETATM   11  H   UNL     1     -44.507  59.144 -57.857  1.00  0.00     0.163 HD
HETATM   12  O   UNL     1     -41.698  59.633 -56.446  1.00  0.00    -0.273 OA
BRANCH  10  13
HETATM   13  C   UNL     1     -42.787  58.200 -58.673  1.00  0.00     0.113 C 
HETATM   14  C   UNL     1     -42.221  59.025 -59.834  1.00  0.00     0.037 C 
BRANCH  13  15
HETATM   15  C   UNL     1     -43.703  57.092 -59.169  1.00  0.00    -0.036 A 
HETATM   16  C   UNL     1     -44.957  57.405 -59.714  1.00  0.00     0.009 A 
HETATM   17  C   UNL     1     -45.789  56.397 -60.208  1.00  0.00     0.001 A 
HETATM   18  C   UNL     1     -45.378  55.066 -60.169  1.00  0.00     0.000 A 
HETATM   19  C   UNL     1     -44.132  54.741 -59.641  1.00  0.00     0.001 A 
HETATM   20  C   UNL     1     -43.299  55.746 -59.147  1.00  0.00     0.009 A 
ENDBRANCH  13  15
ENDBRANCH  10  13
ENDBRANCH   8   9
ENDBRANCH   7   8
ENDBRANCH   1   7
BRANCH   4  21
HETATM   21  C   UNL     1     -42.728  55.971 -52.040  1.00  0.00     0.256 C 
BRANCH  21  22
HETATM   22  O   UNL     1     -41.332  55.804 -52.281  1.00  0.00    -0.344 OA
BRANCH  22  23
HETATM   23  C   UNL     1     -40.882  54.512 -52.221  1.00  0.00     0.069 A 
HETATM   24  C   UNL     1     -40.815  53.631 -53.302  1.00  0.00     0.044 A 
HETATM   25  C   UNL     1     -40.331  52.322 -53.133  1.00  0.00    -0.049 A 
HETATM   26  C   UNL     1     -39.944  51.885 -51.854  1.00  0.00    -0.052 A 
HETATM   27  C   UNL     1     -40.302  51.394 -54.325  1.00  0.00     0.039 C 
HETATM   28  C   UNL     1     -39.386  50.500 -51.630  1.00  0.00     0.039 C 
HETATM   29  C   UNL     1     -40.024  52.772 -50.773  1.00  0.00     0.010 A 
HETATM   30  C   UNL     1     -39.714  49.528 -52.761  1.00  0.00     0.005 C 
HETATM   31  C   UNL     1     -39.421  50.165 -54.113  1.00  0.00     0.005 C 
HETATM   32  C   UNL     1     -40.499  54.072 -50.955  1.00  0.00     0.037 A 
ENDBRANCH  22  23
ENDBRANCH  21  22
ENDBRANCH   4  21
TORSDOF 8
ENDMDL
MODEL 5
REMARK VINA RESULT:      -8.0      3.106      3.998
REMARK  8 active torsions:
REMARK  status: ('A' for Active; 'I' for Inactive)
REMARK    1  A    between atoms: C_2  and  N_3 
REMARK    2  A    between atoms: C_2  and  C_26 
REMARK       I    between atoms: N_3  and  C_4 
REMARK    3  A    between atoms: C_4  and  C_5 
REMARK    4  A    between atoms: C_5  and  S_6 
REMARK    5  A    between atoms: S_6  and  C_7 
REMARK    6  A    between atoms: C_10  and  C_11 
REMARK    7  A    between atoms: C_11  and  O_12 
REMARK    8  A    between atoms: O_12  and  C_13 
ROOT
HETATM    1  C   UNL     1     -42.341  59.355 -55.254  1.00  0.00     0.191 A 
HETATM    2  N   UNL     1     -42.827  58.082 -55.150  1.00  0.00    -0.314 N 
HETATM    3  C   UNL     1     -43.901  57.489 -55.903  1.00  0.00     0.160 C 
HETATM    4  C   UNL     1     -42.049  57.471 -54.193  1.00  0.00     0.154 A 
HETATM    5  N   UNL     1     -41.203  58.358 -53.705  1.00  0.00    -0.132 NA
HETATM    6  N   UNL     1     -41.400  59.543 -54.360  1.00  0.00    -0.123 NA
ENDROOT
BRANCH   1   7
HETATM    7  S   UNL     1     -42.841  60.500 -56.447  1.00  0.00    -0.081 SA
BRANCH   7   8
HETATM    8  C   UNL     1     -41.626  60.194 -57.765  1.00  0.00     0.185 C 
BRANCH   8   9
HETATM    9  C   UNL     1     -42.299  59.936 -59.105  1.00  0.00     0.227 C 
HETATM   10  N   UNL     1     -43.487  59.252 -59.034  1.00  0.00    -0.352 N 
HETATM   11  H   UNL     1     -43.871  59.038 -58.113  1.00  0.00     0.163 HD
HETATM   12  O   UNL     1     -41.790  60.292 -60.166  1.00  0.00    -0.273 OA
BRANCH  10  13
HETATM   13  C   UNL     1     -44.271  58.863 -60.193  1.00  0.00     0.113 C 
HETATM   14  C   UNL     1     -45.582  59.649 -60.299  1.00  0.00     0.037 C 
BRANCH  13  15
HETATM   15  C   UNL     1     -44.520  57.364 -60.148  1.00  0.00    -0.036 A 
HETATM   16  C   UNL     1     -43.472  56.484 -59.840  1.00  0.00     0.009 A 
HETATM   17  C   UNL     1     -43.699  55.108 -59.757  1.00  0.00     0.001 A 
HETATM   18  C   UNL     1     -44.975  54.594 -59.976  1.00  0.00     0.000 A 
HETATM   19  C   UNL     1     -46.028  55.455 -60.273  1.00  0.00     0.001 A 
HETATM   20  C   UNL     1     -45.803  56.830 -60.355  1.00  0.00     0.009 A 
ENDBRANCH  13  15
ENDBRANCH  10  13
ENDBRANCH   8   9
ENDBRANCH   7   8
ENDBRANCH   1   7
BRANCH   4  21
HETATM   21  C   UNL     1     -42.112  56.033 -53.820  1.00  0.00     0.256 C 
BRANCH  21  22
HETATM   22  O   UNL     1     -41.173  55.830 -52.765  1.00  0.00    -0.344 OA
BRANCH  22  23
HETATM   23  C   UNL     1     -40.777  54.532 -52.582  1.00  0.00     0.069 A 
HETATM   24  C   UNL     1     -40.642  53.581 -53.595  1.00  0.00     0.044 A 
HETATM   25  C   UNL     1     -40.222  52.272 -53.300  1.00  0.00    -0.049 A 
HETATM   26  C   UNL     1     -39.968  51.908 -51.966  1.00  0.00    -0.052 A 
HETATM   27  C   UNL     1     -40.117  51.268 -54.423  1.00  0.00     0.039 C 
HETATM   28  C   UNL     1     -39.482  50.526 -51.604  1.00  0.00     0.039 C 
HETATM   29  C   UNL     1     -40.115  52.867 -50.955  1.00  0.00     0.010 A 
HETATM   30  C   UNL     1     -39.739  49.491 -52.698  1.00  0.00     0.005 C 
HETATM   31  C   UNL     1     -39.302  50.030 -54.053  1.00  0.00     0.005 C 
HETATM   32  C   UNL     1     -40.525  54.165 -51.260  1.00  0.00     0.037 A 
ENDBRANCH  22  23
ENDBRANCH  21  22
ENDBRANCH   4  21
TORSDOF 8
ENDMDL
MODEL 6
REMARK VINA RESULT:      -7.9      1.956      2.957
REMARK  8 active torsions:
REMARK  status: ('A' for Active; 'I' for Inactive)
REMARK    1  A    between atoms: C_2  and  N_3 
REMARK    2  A    between atoms: C_2  and  C_26 
REMARK       I    between atoms: N_3  and  C_4 
REMARK    3  A    between atoms: C_4  and  C_5 
REMARK    4  A    between atoms: C_5  and  S_6 
REMARK    5  A    between atoms: S_6  and  C_7 
REMARK    6  A    between atoms: C_10  and  C_11 
REMARK    7  A    between atoms: C_11  and  O_12 
REMARK    8  A    between atoms: O_12  and  C_13 
ROOT
HETATM    1  C   UNL     1     -43.116  58.879 -52.753  1.00  0.00     0.191 A 
HETATM    2  N   UNL     1     -43.450  57.850 -51.918  1.00  0.00    -0.314 N 
HETATM    3  C   UNL     1     -44.756  57.526 -51.404  1.00  0.00     0.160 C 
HETATM    4  C   UNL     1     -42.277  57.165 -51.693  1.00  0.00     0.154 A 
HETATM    5  N   UNL     1     -41.293  57.800 -52.301  1.00  0.00    -0.132 NA
HETATM    6  N   UNL     1     -41.820  58.883 -52.951  1.00  0.00    -0.123 NA
ENDROOT
BRANCH   1   7
HETATM    7  S   UNL     1     -44.252  59.944 -53.498  1.00  0.00    -0.081 SA
BRANCH   7   8
HETATM    8  C   UNL     1     -45.155  58.800 -54.586  1.00  0.00     0.185 C 
BRANCH   8   9
HETATM    9  C   UNL     1     -44.209  57.945 -55.416  1.00  0.00     0.227 C 
HETATM   10  N   UNL     1     -43.702  58.561 -56.534  1.00  0.00    -0.352 N 
HETATM   11  H   UNL     1     -43.921  59.546 -56.688  1.00  0.00     0.163 HD
HETATM   12  O   UNL     1     -43.951  56.782 -55.115  1.00  0.00    -0.273 OA
BRANCH  10  13
HETATM   13  C   UNL     1     -42.818  57.915 -57.488  1.00  0.00     0.113 C 
HETATM   14  C   UNL     1     -41.957  58.922 -58.258  1.00  0.00     0.037 C 
BRANCH  13  15
HETATM   15  C   UNL     1     -43.643  57.050 -58.427  1.00  0.00    -0.036 A 
HETATM   16  C   UNL     1     -43.323  55.695 -58.603  1.00  0.00     0.009 A 
HETATM   17  C   UNL     1     -44.099  54.882 -59.433  1.00  0.00     0.001 A 
HETATM   18  C   UNL     1     -45.206  55.410 -60.094  1.00  0.00     0.000 A 
HETATM   19  C   UNL     1     -45.543  56.750 -59.922  1.00  0.00     0.001 A 
HETATM   20  C   UNL     1     -44.769  57.563 -59.093  1.00  0.00     0.009 A 
ENDBRANCH  13  15
ENDBRANCH  10  13
ENDBRANCH   8   9
ENDBRANCH   7   8
ENDBRANCH   1   7
BRANCH   4  21
HETATM   21  C   UNL     1     -42.155  55.886 -50.944  1.00  0.00     0.256 C 
BRANCH  21  22
HETATM   22  O   UNL     1     -40.803  55.450 -51.073  1.00  0.00    -0.344 OA
BRANCH  22  23
HETATM   23  C   UNL     1     -40.630  54.298 -51.792  1.00  0.00     0.069 A 
HETATM   24  C   UNL     1     -40.144  53.094 -51.281  1.00  0.00     0.044 A 
HETATM   25  C   UNL     1     -40.009  51.964 -52.107  1.00  0.00    -0.049 A 
HETATM   26  C   UNL     1     -40.337  52.059 -53.471  1.00  0.00    -0.052 A 
HETATM   27  C   UNL     1     -39.452  50.690 -51.518  1.00  0.00     0.039 C 
HETATM   28  C   UNL     1     -40.242  50.865 -54.389  1.00  0.00     0.039 C 
HETATM   29  C   UNL     1     -40.816  53.274 -53.978  1.00  0.00     0.010 A 
HETATM   30  C   UNL     1     -39.358  49.749 -53.837  1.00  0.00     0.005 C 
HETATM   31  C   UNL     1     -39.710  49.460 -52.384  1.00  0.00     0.005 C 
HETATM   32  C   UNL     1     -40.952  54.387 -53.146  1.00  0.00     0.037 A 
ENDBRANCH  22  23
ENDBRANCH  21  22
ENDBRANCH   4  21
TORSDOF 8
ENDMDL
MODEL 7
REMARK VINA RESULT:      -7.8      2.439      7.209
REMARK  8 active torsions:
REMARK  status: ('A' for Active; 'I' for Inactive)
REMARK    1  A    between atoms: C_2  and  N_3 
REMARK    2  A    between atoms: C_2  and  C_26 
REMARK       I    between atoms: N_3  and  C_4 
REMARK    3  A    between atoms: C_4  and  C_5 
REMARK    4  A    between atoms: C_5  and  S_6 
REMARK    5  A    between atoms: S_6  and  C_7 
REMARK    6  A    between atoms: C_10  and  C_11 
REMARK    7  A    between atoms: C_11  and  O_12 
REMARK    8  A    between atoms: O_12  and  C_13 
ROOT
HETATM    1  C   UNL     1     -42.413  58.670 -52.677  1.00  0.00     0.191 A 
HETATM    2  N   UNL     1     -43.044  59.143 -53.793  1.00  0.00    -0.314 N 
HETATM    3  C   UNL     1     -44.449  59.079 -54.101  1.00  0.00     0.160 C 
HETATM    4  C   UNL     1     -42.055  59.727 -54.553  1.00  0.00     0.154 A 
HETATM    5  N   UNL     1     -40.894  59.539 -53.953  1.00  0.00    -0.132 NA
HETATM    6  N   UNL     1     -41.120  58.863 -52.786  1.00  0.00    -0.123 NA
ENDROOT
BRANCH   1   7
HETATM    7  S   UNL     1     -43.221  58.007 -51.302  1.00  0.00    -0.081 SA
BRANCH   7   8
HETATM    8  C   UNL     1     -43.737  56.384 -51.941  1.00  0.00     0.185 C 
BRANCH   8   9
HETATM    9  C   UNL     1     -43.142  55.242 -51.130  1.00  0.00     0.227 C 
HETATM   10  N   UNL     1     -41.798  55.037 -51.319  1.00  0.00    -0.352 N 
HETATM   11  H   UNL     1     -41.284  55.692 -51.909  1.00  0.00     0.163 HD
HETATM   12  O   UNL     1     -43.831  54.544 -50.389  1.00  0.00    -0.273 OA
BRANCH  10  13
HETATM   13  C   UNL     1     -41.040  53.976 -50.680  1.00  0.00     0.113 C 
HETATM   14  C   UNL     1     -39.875  54.515 -49.843  1.00  0.00     0.037 C 
BRANCH  13  15
HETATM   15  C   UNL     1     -40.562  52.995 -51.739  1.00  0.00    -0.036 A 
HETATM   16  C   UNL     1     -40.749  53.280 -53.100  1.00  0.00     0.009 A 
HETATM   17  C   UNL     1     -40.277  52.404 -54.081  1.00  0.00     0.001 A 
HETATM   18  C   UNL     1     -39.610  51.236 -53.717  1.00  0.00     0.000 A 
HETATM   19  C   UNL     1     -39.409  50.945 -52.370  1.00  0.00     0.001 A 
HETATM   20  C   UNL     1     -39.878  51.818 -51.389  1.00  0.00     0.009 A 
ENDBRANCH  13  15
ENDBRANCH  10  13
ENDBRANCH   8   9
ENDBRANCH   7   8
ENDBRANCH   1   7
BRANCH   4  21
HETATM   21  C   UNL     1     -42.271  60.495 -55.807  1.00  0.00     0.256 C 
BRANCH  21  22
HETATM   22  O   UNL     1     -41.720  59.723 -56.874  1.00  0.00    -0.344 OA
BRANCH  22  23
HETATM   23  C   UNL     1     -42.627  58.983 -57.584  1.00  0.00     0.069 A 
HETATM   24  C   UNL     1     -42.379  57.732 -58.150  1.00  0.00     0.044 A 
HETATM   25  C   UNL     1     -43.385  57.051 -58.858  1.00  0.00    -0.049 A 
HETATM   26  C   UNL     1     -44.643  57.654 -59.028  1.00  0.00    -0.052 A 
HETATM   27  C   UNL     1     -43.064  55.711 -59.477  1.00  0.00     0.039 C 
HETATM   28  C   UNL     1     -45.765  56.948 -59.750  1.00  0.00     0.039 C 
HETATM   29  C   UNL     1     -44.881  58.915 -58.465  1.00  0.00     0.010 A 
HETATM   30  C   UNL     1     -45.284  55.800 -60.635  1.00  0.00     0.005 C 
HETATM   31  C   UNL     1     -44.306  54.915 -59.874  1.00  0.00     0.005 C 
HETATM   32  C   UNL     1     -43.877  59.577 -57.757  1.00  0.00     0.037 A 
ENDBRANCH  22  23
ENDBRANCH  21  22
ENDBRANCH   4  21
TORSDOF 8
ENDMDL
MODEL 8
REMARK VINA RESULT:      -7.8      2.189      2.953
REMARK  8 active torsions:
REMARK  status: ('A' for Active; 'I' for Inactive)
REMARK    1  A    between atoms: C_2  and  N_3 
REMARK    2  A    between atoms: C_2  and  C_26 
REMARK       I    between atoms: N_3  and  C_4 
REMARK    3  A    between atoms: C_4  and  C_5 
REMARK    4  A    between atoms: C_5  and  S_6 
REMARK    5  A    between atoms: S_6  and  C_7 
REMARK    6  A    between atoms: C_10  and  C_11 
REMARK    7  A    between atoms: C_11  and  O_12 
REMARK    8  A    between atoms: O_12  and  C_13 
ROOT
HETATM    1  C   UNL     1     -42.026  60.040 -53.330  1.00  0.00     0.191 A 
HETATM    2  N   UNL     1     -42.126  59.576 -52.049  1.00  0.00    -0.314 N 
HETATM    3  C   UNL     1     -43.112  59.931 -51.062  1.00  0.00     0.160 C 
HETATM    4  C   UNL     1     -41.100  58.669 -51.907  1.00  0.00     0.154 A 
HETATM    5  N   UNL     1     -40.389  58.657 -53.018  1.00  0.00    -0.132 NA
HETATM    6  N   UNL     1     -40.963  59.529 -53.903  1.00  0.00    -0.123 NA
ENDROOT
BRANCH   1   7
HETATM    7  S   UNL     1     -43.185  61.070 -54.092  1.00  0.00    -0.081 SA
BRANCH   7   8
HETATM    8  C   UNL     1     -44.452  59.867 -54.599  1.00  0.00     0.185 C 
BRANCH   8   9
HETATM    9  C   UNL     1     -44.737  59.942 -56.092  1.00  0.00     0.227 C 
HETATM   10  N   UNL     1     -45.085  58.749 -56.676  1.00  0.00    -0.352 N 
HETATM   11  H   UNL     1     -45.205  57.931 -56.077  1.00  0.00     0.163 HD
HETATM   12  O   UNL     1     -44.630  60.993 -56.721  1.00  0.00    -0.273 OA
BRANCH  10  13
HETATM   13  C   UNL     1     -45.355  58.586 -58.093  1.00  0.00     0.113 C 
HETATM   14  C   UNL     1     -46.671  57.845 -58.353  1.00  0.00     0.037 C 
BRANCH  13  15
HETATM   15  C   UNL     1     -44.178  57.884 -58.749  1.00  0.00    -0.036 A 
HETATM   16  C   UNL     1     -44.236  56.507 -59.015  1.00  0.00     0.009 A 
HETATM   17  C   UNL     1     -43.176  55.860 -59.654  1.00  0.00     0.001 A 
HETATM   18  C   UNL     1     -42.046  56.580 -60.039  1.00  0.00     0.000 A 
HETATM   19  C   UNL     1     -41.977  57.948 -59.792  1.00  0.00     0.001 A 
HETATM   20  C   UNL     1     -43.036  58.596 -59.155  1.00  0.00     0.009 A 
ENDBRANCH  13  15
ENDBRANCH  10  13
ENDBRANCH   8   9
ENDBRANCH   7   8
ENDBRANCH   1   7
BRANCH   4  21
HETATM   21  C   UNL     1     -40.873  57.802 -50.720  1.00  0.00     0.256 C 
BRANCH  21  22
HETATM   22  O   UNL     1     -41.799  56.720 -50.806  1.00  0.00    -0.344 OA
BRANCH  22  23
HETATM   23  C   UNL     1     -41.253  55.516 -51.165  1.00  0.00     0.069 A 
HETATM   24  C   UNL     1     -41.404  54.903 -52.410  1.00  0.00     0.044 A 
HETATM   25  C   UNL     1     -40.796  53.665 -52.679  1.00  0.00    -0.049 A 
HETATM   26  C   UNL     1     -40.057  53.021 -51.672  1.00  0.00    -0.052 A 
HETATM   27  C   UNL     1     -41.009  53.024 -54.030  1.00  0.00     0.039 C 
HETATM   28  C   UNL     1     -39.357  51.708 -51.924  1.00  0.00     0.039 C 
HETATM   29  C   UNL     1     -39.918  53.639 -50.422  1.00  0.00     0.010 A 
HETATM   30  C   UNL     1     -39.894  50.964 -53.145  1.00  0.00     0.005 C 
HETATM   31  C   UNL     1     -40.014  51.907 -54.334  1.00  0.00     0.005 C 
HETATM   32  C   UNL     1     -40.520  54.873 -50.169  1.00  0.00     0.037 A 
ENDBRANCH  22  23
ENDBRANCH  21  22
ENDBRANCH   4  21
TORSDOF 8
ENDMDL
MODEL 9
REMARK VINA RESULT:      -7.8      2.168      4.195
REMARK  8 active torsions:
REMARK  status: ('A' for Active; 'I' for Inactive)
REMARK    1  A    between atoms: C_2  and  N_3 
REMARK    2  A    between atoms: C_2  and  C_26 
REMARK       I    between atoms: N_3  and  C_4 
REMARK    3  A    between atoms: C_4  and  C_5 
REMARK    4  A    between atoms: C_5  and  S_6 
REMARK    5  A    between atoms: S_6  and  C_7 
REMARK    6  A    between atoms: C_10  and  C_11 
REMARK    7  A    between atoms: C_11  and  O_12 
REMARK    8  A    between atoms: O_12  and  C_13 
ROOT
HETATM    1  C   UNL     1     -42.427  59.178 -55.374  1.00  0.00     0.191 A 
HETATM    2  N   UNL     1     -42.856  57.882 -55.412  1.00  0.00    -0.314 N 
HETATM    3  C   UNL     1     -43.993  57.355 -56.122  1.00  0.00     0.160 C 
HETATM    4  C   UNL     1     -41.952  57.174 -54.653  1.00  0.00     0.154 A 
HETATM    5  N   UNL     1     -41.083  58.019 -54.132  1.00  0.00    -0.132 NA
HETATM    6  N   UNL     1     -41.393  59.277 -54.573  1.00  0.00    -0.123 NA
ENDROOT
BRANCH   1   7
HETATM    7  S   UNL     1     -43.099  60.461 -56.314  1.00  0.00    -0.081 SA
BRANCH   7   8
HETATM    8  C   UNL     1     -43.309  61.756 -55.053  1.00  0.00     0.185 C 
BRANCH   8   9
HETATM    9  C   UNL     1     -43.974  61.217 -53.796  1.00  0.00     0.227 C 
HETATM   10  N   UNL     1     -43.172  61.190 -52.681  1.00  0.00    -0.352 N 
HETATM   11  H   UNL     1     -42.237  61.596 -52.746  1.00  0.00     0.163 HD
HETATM   12  O   UNL     1     -45.134  60.810 -53.798  1.00  0.00    -0.273 OA
BRANCH  10  13
HETATM   13  C   UNL     1     -43.591  60.675 -51.390  1.00  0.00     0.113 C 
HETATM   14  C   UNL     1     -43.350  61.679 -50.257  1.00  0.00     0.037 C 
BRANCH  13  15
HETATM   15  C   UNL     1     -42.887  59.354 -51.127  1.00  0.00    -0.036 A 
HETATM   16  C   UNL     1     -43.554  58.141 -51.356  1.00  0.00     0.009 A 
HETATM   17  C   UNL     1     -42.902  56.922 -51.156  1.00  0.00     0.001 A 
HETATM   18  C   UNL     1     -41.576  56.898 -50.729  1.00  0.00     0.000 A 
HETATM   19  C   UNL     1     -40.897  58.093 -50.507  1.00  0.00     0.001 A 
HETATM   20  C   UNL     1     -41.546  59.312 -50.707  1.00  0.00     0.009 A 
ENDBRANCH  13  15
ENDBRANCH  10  13
ENDBRANCH   8   9
ENDBRANCH   7   8
ENDBRANCH   1   7
BRANCH   4  21
HETATM   21  C   UNL     1     -41.925  55.695 -54.499  1.00  0.00     0.256 C 
BRANCH  21  22
HETATM   22  O   UNL     1     -40.562  55.315 -54.317  1.00  0.00    -0.344 OA
BRANCH  22  23
HETATM   23  C   UNL     1     -40.374  54.067 -53.785  1.00  0.00     0.069 A 
HETATM   24  C   UNL     1     -40.397  53.761 -52.423  1.00  0.00     0.044 A 
HETATM   25  C   UNL     1     -40.196  52.442 -51.980  1.00  0.00    -0.049 A 
HETATM   26  C   UNL     1     -39.935  51.428 -52.917  1.00  0.00    -0.052 A 
HETATM   27  C   UNL     1     -40.201  52.161 -50.496  1.00  0.00     0.039 C 
HETATM   28  C   UNL     1     -39.747  49.991 -52.492  1.00  0.00     0.039 C 
HETATM   29  C   UNL     1     -39.904  51.745 -54.281  1.00  0.00     0.010 A 
HETATM   30  C   UNL     1     -39.412  49.840 -51.010  1.00  0.00     0.005 C 
HETATM   31  C   UNL     1     -40.358  50.680 -50.161  1.00  0.00     0.005 C 
HETATM   32  C   UNL     1     -40.113  53.057 -54.709  1.00  0.00     0.037 A 
ENDBRANCH  22  23
ENDBRANCH  21  22
ENDBRANCH   4  21
TORSDOF 8
ENDMDL
MODEL 10
REMARK VINA RESULT:      -7.8      3.416      6.072
REMARK  8 active torsions:
REMARK  status: ('A' for Active; 'I' for Inactive)
REMARK    1  A    between atoms: C_2  and  N_3 
REMARK    2  A    between atoms: C_2  and  C_26 
REMARK       I    between atoms: N_3  and  C_4 
REMARK    3  A    between atoms: C_4  and  C_5 
REMARK    4  A    between atoms: C_5  and  S_6 
REMARK    5  A    between atoms: S_6  and  C_7 
REMARK    6  A    between atoms: C_10  and  C_11 
REMARK    7  A    between atoms: C_11  and  O_12 
REMARK    8  A    between atoms: O_12  and  C_13 
ROOT
HETATM    1  C   UNL     1     -41.503  59.092 -51.843  1.00  0.00     0.191 A 
HETATM    2  N   UNL     1     -42.018  57.833 -51.974  1.00  0.00    -0.314 N 
HETATM    3  C   UNL     1     -42.925  57.159 -51.082  1.00  0.00     0.160 C 
HETATM    4  C   UNL     1     -41.511  57.352 -53.160  1.00  0.00     0.154 A 
HETATM    5  N   UNL     1     -40.682  58.248 -53.661  1.00  0.00    -0.132 NA
HETATM    6  N   UNL     1     -40.667  59.331 -52.825  1.00  0.00    -0.123 NA
ENDROOT
BRANCH   1   7
HETATM    7  S   UNL     1     -41.964  60.217 -50.616  1.00  0.00    -0.081 SA
BRANCH   7   8
HETATM    8  C   UNL     1     -43.418  60.999 -51.378  1.00  0.00     0.185 C 
BRANCH   8   9
HETATM    9  C   UNL     1     -44.666  60.825 -50.525  1.00  0.00     0.227 C 
HETATM   10  N   UNL     1     -45.088  61.961 -49.878  1.00  0.00    -0.352 N 
HETATM   11  H   UNL     1     -44.602  62.838 -50.068  1.00  0.00     0.163 HD
HETATM   12  O   UNL     1     -45.226  59.737 -50.407  1.00  0.00    -0.273 OA
BRANCH  10  13
HETATM   13  C   UNL     1     -46.228  62.008 -48.980  1.00  0.00     0.113 C 
HETATM   14  C   UNL     1     -47.190  63.152 -49.320  1.00  0.00     0.037 C 
BRANCH  13  15
HETATM   15  C   UNL     1     -45.731  62.102 -47.546  1.00  0.00    -0.036 A 
HETATM   16  C   UNL     1     -45.480  60.936 -46.808  1.00  0.00     0.009 A 
HETATM   17  C   UNL     1     -44.985  61.012 -45.504  1.00  0.00     0.001 A 
HETATM   18  C   UNL     1     -44.731  62.252 -44.922  1.00  0.00     0.000 A 
HETATM   19  C   UNL     1     -44.966  63.418 -45.644  1.00  0.00     0.001 A 
HETATM   20  C   UNL     1     -45.459  63.345 -46.947  1.00  0.00     0.009 A 
ENDBRANCH  13  15
ENDBRANCH  10  13
ENDBRANCH   8   9
ENDBRANCH   7   8
ENDBRANCH   1   7
BRANCH   4  21
HETATM   21  C   UNL     1     -41.887  56.063 -53.799  1.00  0.00     0.256 C 
BRANCH  21  22
HETATM   22  O   UNL     1     -40.680  55.447 -54.247  1.00  0.00    -0.344 OA
BRANCH  22  23
HETATM   23  C   UNL     1     -40.448  54.193 -53.749  1.00  0.00     0.069 A 
HETATM   24  C   UNL     1     -40.449  53.850 -52.396  1.00  0.00     0.044 A 
HETATM   25  C   UNL     1     -40.204  52.527 -51.989  1.00  0.00    -0.049 A 
HETATM   26  C   UNL     1     -39.920  51.546 -52.955  1.00  0.00    -0.052 A 
HETATM   27  C   UNL     1     -40.187  52.207 -50.513  1.00  0.00     0.039 C 
HETATM   28  C   UNL     1     -39.685  50.105 -52.570  1.00  0.00     0.039 C 
HETATM   29  C   UNL     1     -39.913  51.900 -54.310  1.00  0.00     0.010 A 
HETATM   30  C   UNL     1     -39.331  49.926 -51.095  1.00  0.00     0.005 C 
HETATM   31  C   UNL     1     -40.295  50.713 -50.217  1.00  0.00     0.005 C 
HETATM   32  C   UNL     1     -40.165  53.215 -54.703  1.00  0.00     0.037 A 
ENDBRANCH  22  23
ENDBRANCH  21  22
ENDBRANCH   4  21
TORSDOF 8
ENDMDL
