MODEL 1
REMARK VINA RESULT:      -8.6      0.000      0.000
REMARK  8 active torsions:
REMARK  status: ('A' for Active; 'I' for Inactive)
REMARK    1  A    between atoms: C_4  and  N_5 
REMARK       I    between atoms: N_5  and  C_6 
REMARK    2  A    between atoms: C_6  and  C_7 
REMARK    3  A    between atoms: C_10  and  N_11 
REMARK       I    between atoms: N_11  and  C_12 
REMARK       I    between atoms: C_12  and  N_21 
REMARK    4  A    between atoms: N_21  and  CA_22 
REMARK    5  A    between atoms: CA_22  and  C_23 
REMARK    6  A    between atoms: CA_22  and  CB_25 
REMARK    7  A    between atoms: C_23  and  O_24 
REMARK    8  A    between atoms: CB_25  and  CG_26 
ROOT
HETATM    1  N   UNK A   0     -44.799  58.674 -56.076  1.00  0.00    -0.309 N 
HETATM    2  C   UNK A   0     -44.558  59.541 -57.092  1.00  0.00     0.321 C 
HETATM    3  O   UNK A   0     -45.464  60.296 -57.443  1.00  0.00    -0.247 OA
HETATM    4  H   UNK A   0     -45.726  58.849 -55.704  1.00  0.00     0.170 HD
ATOM      5  N   TRP A   1     -43.321  59.566 -57.654  1.00  0.00    -0.336 N 
ATOM      6  H   TRP A   1     -42.579  59.470 -56.974  1.00  0.00     0.164 HD
ENDROOT
BRANCH   1   7
HETATM    7  C   UNK A   0     -44.121  57.573 -55.525  1.00  0.00     0.036 A 
HETATM    8  C   UNK A   0     -43.429  56.600 -56.245  1.00  0.00     0.030 A 
HETATM    9  C   UNK A   0     -42.822  55.511 -55.592  1.00  0.00     0.019 A 
HETATM   10  C   UNK A   0     -42.922  55.366 -54.204  1.00  0.00     0.032 A 
HETATM   11  C   UNK A   0     -43.605  56.351 -53.480  1.00  0.00     0.019 A 
HETATM   12  C   UNK A   0     -44.196  57.437 -54.133  1.00  0.00     0.030 A 
BRANCH  10  13
HETATM   13  C   UNK A   0     -42.360  54.209 -53.432  1.00  0.00     0.256 C 
HETATM   14  N   UNK A   0     -41.227  53.607 -53.955  1.00  0.00    -0.323 N 
HETATM   15  H   UNK A   0     -40.811  54.009 -54.780  1.00  0.00     0.169 HD
HETATM   16  O   UNK A   0     -42.949  53.864 -52.413  1.00  0.00    -0.267 OA
BRANCH  14  17
HETATM   17  C   UNK A   0     -40.599  52.428 -53.489  1.00  0.00     0.035 A 
HETATM   18  C   UNK A   0     -40.040  52.287 -52.218  1.00  0.00     0.029 A 
HETATM   19  C   UNK A   0     -39.472  51.071 -51.821  1.00  0.00     0.002 A 
HETATM   20  C   UNK A   0     -39.452  49.987 -52.693  1.00  0.00     0.000 A 
HETATM   21  C   UNK A   0     -39.999  50.117 -53.967  1.00  0.00     0.002 A 
HETATM   22  C   UNK A   0     -40.575  51.329 -54.360  1.00  0.00     0.029 A 
ENDBRANCH  14  17
ENDBRANCH  10  13
ENDBRANCH   1   7
BRANCH   5  23
ATOM     23  CA  TRP A   1     -43.017  60.553 -58.704  1.00  0.00     0.114 C 
BRANCH  23  24
ATOM     24  C   TRP A   1     -41.679  61.246 -58.384  1.00  0.00     0.189 C 
BRANCH  24  25
ATOM     25  O   TRP A   1     -41.341  61.048 -57.009  1.00  0.00    -0.399 OA
ATOM     26  H   TRP A   1     -41.961  60.379 -56.667  1.00  0.00     0.209 HD
ENDBRANCH  24  25
ENDBRANCH  23  24
BRANCH  23  27
ATOM     27  CB  TRP A   1     -42.975  59.895 -60.100  1.00  0.00     0.068 C 
BRANCH  27  28
ATOM     28  CG  TRP A   1     -42.840  58.400 -60.029  1.00  0.00    -0.028 A 
ATOM     29  CD2 TRP A   1     -43.890  57.427 -60.046  1.00  0.00    -0.002 A 
ATOM     30  CE2 TRP A   1     -43.294  56.166 -60.006  1.00  0.00     0.042 A 
ATOM     31  CE3 TRP A   1     -45.297  57.498 -60.099  1.00  0.00     0.014 A 
ATOM     32  CZ2 TRP A   1     -44.031  54.976 -60.038  1.00  0.00     0.030 A 
ATOM     33  NE1 TRP A   1     -41.936  56.362 -59.935  1.00  0.00    -0.365 N 
ATOM     34  CH2 TRP A   1     -45.423  55.077 -60.113  1.00  0.00     0.002 A 
ATOM     35  CZ3 TRP A   1     -46.050  56.319 -60.139  1.00  0.00     0.001 A 
ATOM     36  HE1 TRP A   1     -41.252  55.620 -59.892  1.00  0.00     0.165 HD
ATOM     37  CD1 TRP A   1     -41.650  57.700 -59.941  1.00  0.00     0.096 A 
ENDBRANCH  27  28
ENDBRANCH  23  27
ENDBRANCH   5  23
TORSDOF 8
ENDMDL
MODEL 2
REMARK VINA RESULT:      -8.4      1.498      1.977
REMARK  8 active torsions:
REMARK  status: ('A' for Active; 'I' for Inactive)
REMARK    1  A    between atoms: C_4  and  N_5 
REMARK       I    between atoms: N_5  and  C_6 
REMARK    2  A    between atoms: C_6  and  C_7 
REMARK    3  A    between atoms: C_10  and  N_11 
REMARK       I    between atoms: N_11  and  C_12 
REMARK       I    between atoms: C_12  and  N_21 
REMARK    4  A    between atoms: N_21  and  CA_22 
REMARK    5  A    between atoms: CA_22  and  C_23 
REMARK    6  A    between atoms: CA_22  and  CB_25 
REMARK    7  A    between atoms: C_23  and  O_24 
REMARK    8  A    between atoms: CB_25  and  CG_26 
ROOT
HETATM    1  N   UNK A   0     -43.802  59.244 -55.690  1.00  0.00    -0.309 N 
HETATM    2  C   UNK A   0     -43.833  60.093 -56.749  1.00  0.00     0.321 C 
HETATM    3  O   UNK A   0     -44.793  60.855 -56.859  1.00  0.00    -0.247 OA
HETATM    4  H   UNK A   0     -44.594  59.437 -55.087  1.00  0.00     0.170 HD
ATOM      5  N   TRP A   1     -42.792  60.094 -57.621  1.00  0.00    -0.336 N 
ATOM      6  H   TRP A   1     -41.895  59.998 -57.163  1.00  0.00     0.164 HD
ENDROOT
BRANCH   1   7
HETATM    7  C   UNK A   0     -43.011  58.142 -55.321  1.00  0.00     0.036 A 
HETATM    8  C   UNK A   0     -42.007  58.149 -54.355  1.00  0.00     0.030 A 
HETATM    9  C   UNK A   0     -41.243  56.995 -54.096  1.00  0.00     0.019 A 
HETATM   10  C   UNK A   0     -41.458  55.820 -54.824  1.00  0.00     0.032 A 
HETATM   11  C   UNK A   0     -42.476  55.810 -55.785  1.00  0.00     0.019 A 
HETATM   12  C   UNK A   0     -43.239  56.955 -56.029  1.00  0.00     0.030 A 
BRANCH  10  13
HETATM   13  C   UNK A   0     -40.654  54.564 -54.660  1.00  0.00     0.256 C 
HETATM   14  N   UNK A   0     -41.223  53.560 -53.894  1.00  0.00    -0.323 N 
HETATM   15  H   UNK A   0     -42.158  53.699 -53.543  1.00  0.00     0.169 HD
HETATM   16  O   UNK A   0     -39.549  54.520 -55.191  1.00  0.00    -0.267 OA
BRANCH  14  17
HETATM   17  C   UNK A   0     -40.612  52.352 -53.485  1.00  0.00     0.035 A 
HETATM   18  C   UNK A   0     -40.010  52.160 -52.240  1.00  0.00     0.029 A 
HETATM   19  C   UNK A   0     -39.463  50.919 -51.897  1.00  0.00     0.002 A 
HETATM   20  C   UNK A   0     -39.504  49.860 -52.799  1.00  0.00     0.000 A 
HETATM   21  C   UNK A   0     -40.095  50.040 -54.047  1.00  0.00     0.002 A 
HETATM   22  C   UNK A   0     -40.650  51.277 -54.386  1.00  0.00     0.029 A 
ENDBRANCH  14  17
ENDBRANCH  10  13
ENDBRANCH   1   7
BRANCH   5  23
ATOM     23  CA  TRP A   1     -42.769  61.061 -58.731  1.00  0.00     0.114 C 
BRANCH  23  24
ATOM     24  C   TRP A   1     -41.595  62.038 -58.537  1.00  0.00     0.189 C 
BRANCH  24  25
ATOM     25  O   TRP A   1     -40.615  61.461 -57.671  1.00  0.00    -0.399 OA
ATOM     26  H   TRP A   1     -39.936  62.144 -57.531  1.00  0.00     0.209 HD
ENDBRANCH  24  25
ENDBRANCH  23  24
BRANCH  23  27
ATOM     27  CB  TRP A   1     -42.672  60.348 -60.097  1.00  0.00     0.068 C 
BRANCH  27  28
ATOM     28  CG  TRP A   1     -43.734  59.301 -60.279  1.00  0.00    -0.028 A 
ATOM     29  CD2 TRP A   1     -43.613  57.890 -60.072  1.00  0.00    -0.002 A 
ATOM     30  CE2 TRP A   1     -44.863  57.320 -60.318  1.00  0.00     0.042 A 
ATOM     31  CE3 TRP A   1     -42.556  57.038 -59.691  1.00  0.00     0.014 A 
ATOM     32  CZ2 TRP A   1     -45.114  55.950 -60.181  1.00  0.00     0.030 A 
ATOM     33  NE1 TRP A   1     -45.705  58.340 -60.691  1.00  0.00    -0.365 N 
ATOM     34  CH2 TRP A   1     -44.054  55.133 -59.780  1.00  0.00     0.002 A 
ATOM     35  CZ3 TRP A   1     -42.790  55.666 -59.541  1.00  0.00     0.001 A 
ATOM     36  HE1 TRP A   1     -46.679  58.218 -60.933  1.00  0.00     0.165 HD
ATOM     37  CD1 TRP A   1     -45.038  59.534 -60.678  1.00  0.00     0.096 A 
ENDBRANCH  27  28
ENDBRANCH  23  27
ENDBRANCH   5  23
TORSDOF 8
ENDMDL
MODEL 3
REMARK VINA RESULT:      -8.3      2.742      9.192
REMARK  8 active torsions:
REMARK  status: ('A' for Active; 'I' for Inactive)
REMARK    1  A    between atoms: C_4  and  N_5 
REMARK       I    between atoms: N_5  and  C_6 
REMARK    2  A    between atoms: C_6  and  C_7 
REMARK    3  A    between atoms: C_10  and  N_11 
REMARK       I    between atoms: N_11  and  C_12 
REMARK       I    between atoms: C_12  and  N_21 
REMARK    4  A    between atoms: N_21  and  CA_22 
REMARK    5  A    between atoms: CA_22  and  C_23 
REMARK    6  A    between atoms: CA_22  and  CB_25 
REMARK    7  A    between atoms: C_23  and  O_24 
REMARK    8  A    between atoms: CB_25  and  CG_26 
ROOT
HETATM    1  N   UNK A   0     -41.686  56.885 -55.406  1.00  0.00    -0.309 N 
HETATM    2  C   UNK A   0     -41.794  56.685 -54.068  1.00  0.00     0.321 C 
HETATM    3  O   UNK A   0     -40.773  56.752 -53.383  1.00  0.00    -0.247 OA
HETATM    4  H   UNK A   0     -40.731  57.141 -55.626  1.00  0.00     0.170 HD
ATOM      5  N   TRP A   1     -43.022  56.455 -53.534  1.00  0.00    -0.336 N 
ATOM      6  H   TRP A   1     -43.744  57.026 -53.951  1.00  0.00     0.164 HD
ENDROOT
BRANCH   1   7
HETATM    7  C   UNK A   0     -42.542  56.719 -56.508  1.00  0.00     0.036 A 
HETATM    8  C   UNK A   0     -42.753  55.530 -57.203  1.00  0.00     0.030 A 
HETATM    9  C   UNK A   0     -43.601  55.487 -58.325  1.00  0.00     0.019 A 
HETATM   10  C   UNK A   0     -44.232  56.647 -58.787  1.00  0.00     0.032 A 
HETATM   11  C   UNK A   0     -44.030  57.840 -58.080  1.00  0.00     0.019 A 
HETATM   12  C   UNK A   0     -43.196  57.873 -56.959  1.00  0.00     0.030 A 
BRANCH  10  13
HETATM   13  C   UNK A   0     -45.102  56.709 -60.007  1.00  0.00     0.256 C 
HETATM   14  N   UNK A   0     -46.189  57.567 -59.950  1.00  0.00    -0.323 N 
HETATM   15  H   UNK A   0     -46.302  58.139 -59.129  1.00  0.00     0.169 HD
HETATM   16  O   UNK A   0     -44.808  55.988 -60.955  1.00  0.00    -0.267 OA
BRANCH  14  17
HETATM   17  C   UNK A   0     -47.220  57.697 -60.909  1.00  0.00     0.035 A 
HETATM   18  C   UNK A   0     -47.846  56.619 -61.539  1.00  0.00     0.029 A 
HETATM   19  C   UNK A   0     -48.888  56.834 -62.448  1.00  0.00     0.002 A 
HETATM   20  C   UNK A   0     -49.310  58.127 -62.741  1.00  0.00     0.000 A 
HETATM   21  C   UNK A   0     -48.690  59.211 -62.126  1.00  0.00     0.002 A 
HETATM   22  C   UNK A   0     -47.655  58.996 -61.210  1.00  0.00     0.029 A 
ENDBRANCH  14  17
ENDBRANCH  10  13
ENDBRANCH   1   7
BRANCH   5  23
ATOM     23  CA  TRP A   1     -43.170  56.313 -52.076  1.00  0.00     0.114 C 
BRANCH  23  24
ATOM     24  C   TRP A   1     -44.292  57.245 -51.581  1.00  0.00     0.189 C 
BRANCH  24  25
ATOM     25  O   TRP A   1     -45.078  56.582 -50.589  1.00  0.00    -0.399 OA
ATOM     26  H   TRP A   1     -44.759  56.903 -49.726  1.00  0.00     0.209 HD
ENDBRANCH  24  25
ENDBRANCH  23  24
BRANCH  23  27
ATOM     27  CB  TRP A   1     -43.456  54.849 -51.678  1.00  0.00     0.068 C 
BRANCH  27  28
ATOM     28  CG  TRP A   1     -42.202  54.079 -51.373  1.00  0.00    -0.028 A 
ATOM     29  CD2 TRP A   1     -41.402  53.319 -52.284  1.00  0.00    -0.002 A 
ATOM     30  CE2 TRP A   1     -40.314  52.816 -51.568  1.00  0.00     0.042 A 
ATOM     31  CE3 TRP A   1     -41.494  53.014 -53.657  1.00  0.00     0.014 A 
ATOM     32  CZ2 TRP A   1     -39.306  52.045 -52.160  1.00  0.00     0.030 A 
ATOM     33  NE1 TRP A   1     -40.462  53.227 -50.266  1.00  0.00    -0.365 N 
ATOM     34  CH2 TRP A   1     -39.413  51.777 -53.527  1.00  0.00     0.002 A 
ATOM     35  CZ3 TRP A   1     -40.492  52.250 -54.268  1.00  0.00     0.001 A 
ATOM     36  HE1 TRP A   1     -39.818  53.006 -49.519  1.00  0.00     0.165 HD
ATOM     37  CD1 TRP A   1     -41.596  53.981 -50.133  1.00  0.00     0.096 A 
ENDBRANCH  27  28
ENDBRANCH  23  27
ENDBRANCH   5  23
TORSDOF 8
ENDMDL
MODEL 4
REMARK VINA RESULT:      -8.3      1.928      2.690
REMARK  8 active torsions:
REMARK  status: ('A' for Active; 'I' for Inactive)
REMARK    1  A    between atoms: C_4  and  N_5 
REMARK       I    between atoms: N_5  and  C_6 
REMARK    2  A    between atoms: C_6  and  C_7 
REMARK    3  A    between atoms: C_10  and  N_11 
REMARK       I    between atoms: N_11  and  C_12 
REMARK       I    between atoms: C_12  and  N_21 
REMARK    4  A    between atoms: N_21  and  CA_22 
REMARK    5  A    between atoms: CA_22  and  C_23 
REMARK    6  A    between atoms: CA_22  and  CB_25 
REMARK    7  A    between atoms: C_23  and  O_24 
REMARK    8  A    between atoms: CB_25  and  CG_26 
ROOT
HETATM    1  N   UNK A   0     -42.282  60.166 -53.150  1.00  0.00    -0.309 N 
HETATM    2  C   UNK A   0     -42.799  60.986 -54.099  1.00  0.00     0.321 C 
HETATM    3  O   UNK A   0     -43.082  62.142 -53.782  1.00  0.00    -0.247 OA
HETATM    4  H   UNK A   0     -42.140  60.695 -52.297  1.00  0.00     0.170 HD
ATOM      5  N   TRP A   1     -42.951  60.515 -55.364  1.00  0.00    -0.336 N 
ATOM      6  H   TRP A   1     -42.179  59.933 -55.661  1.00  0.00     0.164 HD
ENDROOT
BRANCH   1   7
HETATM    7  C   UNK A   0     -42.012  58.790 -53.064  1.00  0.00     0.036 A 
HETATM    8  C   UNK A   0     -40.952  58.128 -53.683  1.00  0.00     0.030 A 
HETATM    9  C   UNK A   0     -40.802  56.733 -53.566  1.00  0.00     0.019 A 
HETATM   10  C   UNK A   0     -41.730  55.974 -52.847  1.00  0.00     0.032 A 
HETATM   11  C   UNK A   0     -42.788  56.640 -52.214  1.00  0.00     0.019 A 
HETATM   12  C   UNK A   0     -42.925  58.028 -52.324  1.00  0.00     0.030 A 
BRANCH  10  13
HETATM   13  C   UNK A   0     -41.685  54.480 -52.720  1.00  0.00     0.256 C 
HETATM   14  N   UNK A   0     -40.437  53.887 -52.826  1.00  0.00    -0.323 N 
HETATM   15  H   UNK A   0     -39.632  54.485 -52.920  1.00  0.00     0.169 HD
HETATM   16  O   UNK A   0     -42.747  53.889 -52.555  1.00  0.00    -0.267 OA
BRANCH  14  17
HETATM   17  C   UNK A   0     -40.156  52.502 -52.876  1.00  0.00     0.035 A 
HETATM   18  C   UNK A   0     -39.756  51.742 -51.775  1.00  0.00     0.029 A 
HETATM   19  C   UNK A   0     -39.536  50.366 -51.901  1.00  0.00     0.002 A 
HETATM   20  C   UNK A   0     -39.706  49.738 -53.131  1.00  0.00     0.000 A 
HETATM   21  C   UNK A   0     -40.097  50.485 -54.239  1.00  0.00     0.002 A 
HETATM   22  C   UNK A   0     -40.326  51.858 -54.111  1.00  0.00     0.029 A 
ENDBRANCH  14  17
ENDBRANCH  10  13
ENDBRANCH   1   7
BRANCH   5  23
ATOM     23  CA  TRP A   1     -43.437  61.412 -56.425  1.00  0.00     0.114 C 
BRANCH  23  24
ATOM     24  C   TRP A   1     -42.251  61.863 -57.299  1.00  0.00     0.189 C 
BRANCH  24  25
ATOM     25  O   TRP A   1     -41.151  60.967 -57.132  1.00  0.00    -0.399 OA
ATOM     26  H   TRP A   1     -40.357  61.522 -57.036  1.00  0.00     0.209 HD
ENDBRANCH  24  25
ENDBRANCH  23  24
BRANCH  23  27
ATOM     27  CB  TRP A   1     -44.525  60.732 -57.283  1.00  0.00     0.068 C 
BRANCH  27  28
ATOM     28  CG  TRP A   1     -44.332  59.246 -57.388  1.00  0.00    -0.028 A 
ATOM     29  CD2 TRP A   1     -43.590  58.530 -58.382  1.00  0.00    -0.002 A 
ATOM     30  CE2 TRP A   1     -43.649  57.175 -58.055  1.00  0.00     0.042 A 
ATOM     31  CE3 TRP A   1     -42.865  58.907 -59.530  1.00  0.00     0.014 A 
ATOM     32  CZ2 TRP A   1     -43.003  56.183 -58.803  1.00  0.00     0.030 A 
ATOM     33  NE1 TRP A   1     -44.422  57.065 -56.924  1.00  0.00    -0.365 N 
ATOM     34  CH2 TRP A   1     -42.273  56.589 -59.924  1.00  0.00     0.002 A 
ATOM     35  CZ3 TRP A   1     -42.206  57.931 -60.287  1.00  0.00     0.001 A 
ATOM     36  HE1 TRP A   1     -44.638  56.193 -56.461  1.00  0.00     0.165 HD
ATOM     37  CD1 TRP A   1     -44.845  58.301 -56.518  1.00  0.00     0.096 A 
ENDBRANCH  27  28
ENDBRANCH  23  27
ENDBRANCH   5  23
TORSDOF 8
ENDMDL
MODEL 5
REMARK VINA RESULT:      -8.2      5.021      9.716
REMARK  8 active torsions:
REMARK  status: ('A' for Active; 'I' for Inactive)
REMARK    1  A    between atoms: C_4  and  N_5 
REMARK       I    between atoms: N_5  and  C_6 
REMARK    2  A    between atoms: C_6  and  C_7 
REMARK    3  A    between atoms: C_10  and  N_11 
REMARK       I    between atoms: N_11  and  C_12 
REMARK       I    between atoms: C_12  and  N_21 
REMARK    4  A    between atoms: N_21  and  CA_22 
REMARK    5  A    between atoms: CA_22  and  C_23 
REMARK    6  A    between atoms: CA_22  and  CB_25 
REMARK    7  A    between atoms: C_23  and  O_24 
REMARK    8  A    between atoms: CB_25  and  CG_26 
ROOT
HETATM    1  N   UNK A   0     -44.457  56.605 -53.536  1.00  0.00    -0.309 N 
HETATM    2  C   UNK A   0     -43.510  55.656 -53.749  1.00  0.00     0.321 C 
HETATM    3  O   UNK A   0     -43.742  54.774 -54.576  1.00  0.00    -0.247 OA
HETATM    4  H   UNK A   0     -45.222  56.461 -54.186  1.00  0.00     0.170 HD
ATOM      5  N   TRP A   1     -42.336  55.735 -53.070  1.00  0.00    -0.336 N 
ATOM      6  H   TRP A   1     -41.994  56.683 -52.987  1.00  0.00     0.164 HD
ENDROOT
BRANCH   1   7
HETATM    7  C   UNK A   0     -44.646  57.627 -52.591  1.00  0.00     0.036 A 
HETATM    8  C   UNK A   0     -44.913  57.441 -51.235  1.00  0.00     0.030 A 
HETATM    9  C   UNK A   0     -45.131  58.540 -50.383  1.00  0.00     0.019 A 
HETATM   10  C   UNK A   0     -45.111  59.846 -50.884  1.00  0.00     0.032 A 
HETATM   11  C   UNK A   0     -44.830  60.033 -52.243  1.00  0.00     0.019 A 
HETATM   12  C   UNK A   0     -44.602  58.938 -53.082  1.00  0.00     0.030 A 
BRANCH  10  13
HETATM   13  C   UNK A   0     -45.392  61.071 -50.065  1.00  0.00     0.256 C 
HETATM   14  N   UNK A   0     -44.690  61.197 -48.877  1.00  0.00    -0.323 N 
HETATM   15  H   UNK A   0     -43.994  60.502 -48.659  1.00  0.00     0.169 HD
HETATM   16  O   UNK A   0     -46.232  61.859 -50.487  1.00  0.00    -0.267 OA
BRANCH  14  17
HETATM   17  C   UNK A   0     -44.877  62.181 -47.879  1.00  0.00     0.035 A 
HETATM   18  C   UNK A   0     -45.338  61.911 -46.589  1.00  0.00     0.029 A 
HETATM   19  C   UNK A   0     -45.456  62.938 -45.646  1.00  0.00     0.002 A 
HETATM   20  C   UNK A   0     -45.123  64.246 -45.986  1.00  0.00     0.000 A 
HETATM   21  C   UNK A   0     -44.669  64.530 -47.271  1.00  0.00     0.002 A 
HETATM   22  C   UNK A   0     -44.541  63.502 -48.210  1.00  0.00     0.029 A 
ENDBRANCH  14  17
ENDBRANCH  10  13
ENDBRANCH   1   7
BRANCH   5  23
ATOM     23  CA  TRP A   1     -41.267  54.761 -53.344  1.00  0.00     0.114 C 
BRANCH  23  24
ATOM     24  C   TRP A   1     -40.479  55.200 -54.593  1.00  0.00     0.189 C 
BRANCH  24  25
ATOM     25  O   TRP A   1     -40.939  54.482 -55.740  1.00  0.00    -0.399 OA
ATOM     26  H   TRP A   1     -40.499  54.884 -56.510  1.00  0.00     0.209 HD
ENDBRANCH  24  25
ENDBRANCH  23  24
BRANCH  23  27
ATOM     27  CB  TRP A   1     -40.327  54.599 -52.130  1.00  0.00     0.068 C 
BRANCH  27  28
ATOM     28  CG  TRP A   1     -40.250  53.179 -51.645  1.00  0.00    -0.028 A 
ATOM     29  CD2 TRP A   1     -39.984  52.006 -52.421  1.00  0.00    -0.002 A 
ATOM     30  CE2 TRP A   1     -39.965  50.919 -51.545  1.00  0.00     0.042 A 
ATOM     31  CE3 TRP A   1     -39.751  51.763 -53.789  1.00  0.00     0.014 A 
ATOM     32  CZ2 TRP A   1     -39.702  49.609 -51.965  1.00  0.00     0.030 A 
ATOM     33  NE1 TRP A   1     -40.239  51.406 -50.290  1.00  0.00    -0.365 N 
ATOM     34  CH2 TRP A   1     -39.453  49.402 -53.324  1.00  0.00     0.002 A 
ATOM     35  CZ3 TRP A   1     -39.479  50.461 -54.227  1.00  0.00     0.001 A 
ATOM     36  HE1 TRP A   1     -40.292  50.840 -49.455  1.00  0.00     0.165 HD
ATOM     37  CD1 TRP A   1     -40.419  52.761 -50.337  1.00  0.00     0.096 A 
ENDBRANCH  27  28
ENDBRANCH  23  27
ENDBRANCH   5  23
TORSDOF 8
ENDMDL
MODEL 6
REMARK VINA RESULT:      -8.1     16.069     20.039
REMARK  8 active torsions:
REMARK  status: ('A' for Active; 'I' for Inactive)
REMARK    1  A    between atoms: C_4  and  N_5 
REMARK       I    between atoms: N_5  and  C_6 
REMARK    2  A    between atoms: C_6  and  C_7 
REMARK    3  A    between atoms: C_10  and  N_11 
REMARK       I    between atoms: N_11  and  C_12 
REMARK       I    between atoms: C_12  and  N_21 
REMARK    4  A    between atoms: N_21  and  CA_22 
REMARK    5  A    between atoms: CA_22  and  C_23 
REMARK    6  A    between atoms: CA_22  and  CB_25 
REMARK    7  A    between atoms: C_23  and  O_24 
REMARK    8  A    between atoms: CB_25  and  CG_26 
ROOT
HETATM    1  N   UNK A   0     -35.329  42.653 -53.632  1.00  0.00    -0.309 N 
HETATM    2  C   UNK A   0     -35.223  42.045 -52.424  1.00  0.00     0.321 C 
HETATM    3  O   UNK A   0     -34.696  42.666 -51.501  1.00  0.00    -0.247 OA
HETATM    4  H   UNK A   0     -34.994  43.607 -53.554  1.00  0.00     0.170 HD
ATOM      5  N   TRP A   1     -35.734  40.796 -52.269  1.00  0.00    -0.336 N 
ATOM      6  H   TRP A   1     -36.616  40.670 -52.747  1.00  0.00     0.164 HD
ENDROOT
BRANCH   1   7
HETATM    7  C   UNK A   0     -35.683  42.237 -54.927  1.00  0.00     0.036 A 
HETATM    8  C   UNK A   0     -34.810  42.102 -56.005  1.00  0.00     0.030 A 
HETATM    9  C   UNK A   0     -35.281  41.720 -57.276  1.00  0.00     0.019 A 
HETATM   10  C   UNK A   0     -36.645  41.493 -57.492  1.00  0.00     0.032 A 
HETATM   11  C   UNK A   0     -37.520  41.617 -56.405  1.00  0.00     0.019 A 
HETATM   12  C   UNK A   0     -37.044  41.984 -55.143  1.00  0.00     0.030 A 
BRANCH  10  13
HETATM   13  C   UNK A   0     -37.244  41.144 -58.821  1.00  0.00     0.256 C 
HETATM   14  N   UNK A   0     -37.510  39.803 -59.048  1.00  0.00    -0.323 N 
HETATM   15  H   UNK A   0     -37.345  39.151 -58.298  1.00  0.00     0.169 HD
HETATM   16  O   UNK A   0     -37.437  42.057 -59.618  1.00  0.00    -0.267 OA
BRANCH  14  17
HETATM   17  C   UNK A   0     -37.942  39.215 -60.260  1.00  0.00     0.035 A 
HETATM   18  C   UNK A   0     -37.210  39.241 -61.448  1.00  0.00     0.029 A 
HETATM   19  C   UNK A   0     -37.691  38.598 -62.594  1.00  0.00     0.002 A 
HETATM   20  C   UNK A   0     -38.911  37.930 -62.565  1.00  0.00     0.000 A 
HETATM   21  C   UNK A   0     -39.655  37.903 -61.389  1.00  0.00     0.002 A 
HETATM   22  C   UNK A   0     -39.170  38.537 -60.241  1.00  0.00     0.029 A 
ENDBRANCH  14  17
ENDBRANCH  10  13
ENDBRANCH   1   7
BRANCH   5  23
ATOM     23  CA  TRP A   1     -35.699  40.150 -50.946  1.00  0.00     0.114 C 
BRANCH  23  24
ATOM     24  C   TRP A   1     -37.120  39.702 -50.556  1.00  0.00     0.189 C 
BRANCH  24  25
ATOM     25  O   TRP A   1     -37.271  39.733 -49.136  1.00  0.00    -0.399 OA
ATOM     26  H   TRP A   1     -38.039  40.303 -48.953  1.00  0.00     0.209 HD
ENDBRANCH  24  25
ENDBRANCH  23  24
BRANCH  23  27
ATOM     27  CB  TRP A   1     -34.721  38.956 -50.928  1.00  0.00     0.068 C 
BRANCH  27  28
ATOM     28  CG  TRP A   1     -33.495  39.227 -50.103  1.00  0.00    -0.028 A 
ATOM     29  CD2 TRP A   1     -33.227  38.789 -48.767  1.00  0.00    -0.002 A 
ATOM     30  CE2 TRP A   1     -31.951  39.239 -48.425  1.00  0.00     0.042 A 
ATOM     31  CE3 TRP A   1     -33.949  38.045 -47.812  1.00  0.00     0.014 A 
ATOM     32  CZ2 TRP A   1     -31.353  38.963 -47.190  1.00  0.00     0.030 A 
ATOM     33  NE1 TRP A   1     -31.472  39.950 -49.499  1.00  0.00    -0.365 N 
ATOM     34  CH2 TRP A   1     -32.083  38.204 -46.271  1.00  0.00     0.002 A 
ATOM     35  CZ3 TRP A   1     -33.365  37.752 -46.574  1.00  0.00     0.001 A 
ATOM     36  HE1 TRP A   1     -30.566  40.396 -49.532  1.00  0.00     0.165 HD
ATOM     37  CD1 TRP A   1     -32.392  39.956 -50.511  1.00  0.00     0.096 A 
ENDBRANCH  27  28
ENDBRANCH  23  27
ENDBRANCH   5  23
TORSDOF 8
ENDMDL
MODEL 7
REMARK VINA RESULT:      -8.1      1.809      2.561
REMARK  8 active torsions:
REMARK  status: ('A' for Active; 'I' for Inactive)
REMARK    1  A    between atoms: C_4  and  N_5 
REMARK       I    between atoms: N_5  and  C_6 
REMARK    2  A    between atoms: C_6  and  C_7 
REMARK    3  A    between atoms: C_10  and  N_11 
REMARK       I    between atoms: N_11  and  C_12 
REMARK       I    between atoms: C_12  and  N_21 
REMARK    4  A    between atoms: N_21  and  CA_22 
REMARK    5  A    between atoms: CA_22  and  C_23 
REMARK    6  A    between atoms: CA_22  and  CB_25 
REMARK    7  A    between atoms: C_23  and  O_24 
REMARK    8  A    between atoms: CB_25  and  CG_26 
ROOT
HETATM    1  N   UNK A   0     -42.399  60.831 -56.031  1.00  0.00    -0.309 N 
HETATM    2  C   UNK A   0     -42.296  61.510 -57.202  1.00  0.00     0.321 C 
HETATM    3  O   UNK A   0     -42.635  62.694 -57.222  1.00  0.00    -0.247 OA
HETATM    4  H   UNK A   0     -42.693  61.470 -55.302  1.00  0.00     0.170 HD
ATOM      5  N   TRP A   1     -41.792  60.873 -58.290  1.00  0.00    -0.336 N 
ATOM      6  H   TRP A   1     -41.014  60.268 -58.066  1.00  0.00     0.164 HD
ENDROOT
BRANCH   1   7
HETATM    7  C   UNK A   0     -42.293  59.482 -55.652  1.00  0.00     0.036 A 
HETATM    8  C   UNK A   0     -42.740  58.390 -56.395  1.00  0.00     0.030 A 
HETATM    9  C   UNK A   0     -42.624  57.079 -55.898  1.00  0.00     0.019 A 
HETATM   10  C   UNK A   0     -42.080  56.842 -54.631  1.00  0.00     0.032 A 
HETATM   11  C   UNK A   0     -41.619  57.938 -53.890  1.00  0.00     0.019 A 
HETATM   12  C   UNK A   0     -41.726  59.238 -54.395  1.00  0.00     0.030 A 
BRANCH  10  13
HETATM   13  C   UNK A   0     -41.973  55.488 -53.995  1.00  0.00     0.256 C 
HETATM   14  N   UNK A   0     -40.718  54.901 -53.996  1.00  0.00    -0.323 N 
HETATM   15  H   UNK A   0     -39.944  55.431 -54.363  1.00  0.00     0.169 HD
HETATM   16  O   UNK A   0     -42.997  54.988 -53.542  1.00  0.00    -0.267 OA
BRANCH  14  17
HETATM   17  C   UNK A   0     -40.394  53.587 -53.584  1.00  0.00     0.035 A 
HETATM   18  C   UNK A   0     -40.188  52.520 -54.460  1.00  0.00     0.029 A 
HETATM   19  C   UNK A   0     -39.829  51.258 -53.973  1.00  0.00     0.002 A 
HETATM   20  C   UNK A   0     -39.681  51.050 -52.605  1.00  0.00     0.000 A 
HETATM   21  C   UNK A   0     -39.890  52.104 -51.720  1.00  0.00     0.002 A 
HETATM   22  C   UNK A   0     -40.239  53.367 -52.208  1.00  0.00     0.029 A 
ENDBRANCH  14  17
ENDBRANCH  10  13
ENDBRANCH   1   7
BRANCH   5  23
ATOM     23  CA  TRP A   1     -41.600  61.615 -59.547  1.00  0.00     0.114 C 
BRANCH  23  24
ATOM     24  C   TRP A   1     -40.248  62.352 -59.507  1.00  0.00     0.189 C 
BRANCH  24  25
ATOM     25  O   TRP A   1     -39.856  62.729 -60.829  1.00  0.00    -0.399 OA
ATOM     26  H   TRP A   1     -38.885  62.797 -60.818  1.00  0.00     0.209 HD
ENDBRANCH  24  25
ENDBRANCH  23  24
BRANCH  23  27
ATOM     27  CB  TRP A   1     -41.679  60.678 -60.772  1.00  0.00     0.068 C 
BRANCH  27  28
ATOM     28  CG  TRP A   1     -42.871  59.765 -60.723  1.00  0.00    -0.028 A 
ATOM     29  CD2 TRP A   1     -42.895  58.379 -60.365  1.00  0.00    -0.002 A 
ATOM     30  CE2 TRP A   1     -44.223  57.954 -60.418  1.00  0.00     0.042 A 
ATOM     31  CE3 TRP A   1     -41.910  57.441 -59.993  1.00  0.00     0.014 A 
ATOM     32  CZ2 TRP A   1     -44.618  56.650 -60.097  1.00  0.00     0.030 A 
ATOM     33  NE1 TRP A   1     -44.976  59.030 -60.823  1.00  0.00    -0.365 N 
ATOM     34  CH2 TRP A   1     -43.622  55.748 -59.710  1.00  0.00     0.002 A 
ATOM     35  CZ3 TRP A   1     -42.285  56.134 -59.661  1.00  0.00     0.001 A 
ATOM     36  HE1 TRP A   1     -45.978  59.011 -60.951  1.00  0.00     0.165 HD
ATOM     37  CD1 TRP A   1     -44.175  60.122 -61.017  1.00  0.00     0.096 A 
ENDBRANCH  27  28
ENDBRANCH  23  27
ENDBRANCH   5  23
TORSDOF 8
ENDMDL
MODEL 8
REMARK VINA RESULT:      -8.0      5.409      8.527
REMARK  8 active torsions:
REMARK  status: ('A' for Active; 'I' for Inactive)
REMARK    1  A    between atoms: C_4  and  N_5 
REMARK       I    between atoms: N_5  and  C_6 
REMARK    2  A    between atoms: C_6  and  C_7 
REMARK    3  A    between atoms: C_10  and  N_11 
REMARK       I    between atoms: N_11  and  C_12 
REMARK       I    between atoms: C_12  and  N_21 
REMARK    4  A    between atoms: N_21  and  CA_22 
REMARK    5  A    between atoms: CA_22  and  C_23 
REMARK    6  A    between atoms: CA_22  and  CB_25 
REMARK    7  A    between atoms: C_23  and  O_24 
REMARK    8  A    between atoms: CB_25  and  CG_26 
ROOT
HETATM    1  N   UNK A   0     -41.714  59.871 -51.606  1.00  0.00    -0.309 N 
HETATM    2  C   UNK A   0     -42.752  60.730 -51.441  1.00  0.00     0.321 C 
HETATM    3  O   UNK A   0     -42.523  61.836 -50.951  1.00  0.00    -0.247 OA
HETATM    4  H   UNK A   0     -40.853  60.338 -51.344  1.00  0.00     0.170 HD
ATOM      5  N   TRP A   1     -43.990  60.353 -51.854  1.00  0.00    -0.336 N 
ATOM      6  H   TRP A   1     -43.975  59.848 -52.729  1.00  0.00     0.164 HD
ENDROOT
BRANCH   1   7
HETATM    7  C   UNK A   0     -41.592  58.513 -51.943  1.00  0.00     0.036 A 
HETATM    8  C   UNK A   0     -41.251  58.013 -53.199  1.00  0.00     0.030 A 
HETATM    9  C   UNK A   0     -41.201  56.627 -53.439  1.00  0.00     0.019 A 
HETATM   10  C   UNK A   0     -41.518  55.717 -52.425  1.00  0.00     0.032 A 
HETATM   11  C   UNK A   0     -41.847  56.218 -51.160  1.00  0.00     0.019 A 
HETATM   12  C   UNK A   0     -41.884  57.596 -50.925  1.00  0.00     0.030 A 
BRANCH  10  13
HETATM   13  C   UNK A   0     -41.551  54.228 -52.605  1.00  0.00     0.256 C 
HETATM   14  N   UNK A   0     -40.331  53.572 -52.568  1.00  0.00    -0.323 N 
HETATM   15  H   UNK A   0     -39.505  54.113 -52.366  1.00  0.00     0.169 HD
HETATM   16  O   UNK A   0     -42.642  53.700 -52.793  1.00  0.00    -0.267 OA
BRANCH  14  17
HETATM   17  C   UNK A   0     -40.091  52.206 -52.846  1.00  0.00     0.035 A 
HETATM   18  C   UNK A   0     -40.153  51.643 -54.121  1.00  0.00     0.029 A 
HETATM   19  C   UNK A   0     -39.861  50.289 -54.316  1.00  0.00     0.002 A 
HETATM   20  C   UNK A   0     -39.511  49.483 -53.236  1.00  0.00     0.000 A 
HETATM   21  C   UNK A   0     -39.453  50.031 -51.958  1.00  0.00     0.002 A 
HETATM   22  C   UNK A   0     -39.735  51.386 -51.765  1.00  0.00     0.029 A 
ENDBRANCH  14  17
ENDBRANCH  10  13
ENDBRANCH   1   7
BRANCH   5  23
ATOM     23  CA  TRP A   1     -45.113  61.299 -51.755  1.00  0.00     0.114 C 
BRANCH  23  24
ATOM     24  C   TRP A   1     -45.969  61.215 -53.033  1.00  0.00     0.189 C 
BRANCH  24  25
ATOM     25  O   TRP A   1     -47.351  61.095 -52.690  1.00  0.00    -0.399 OA
ATOM     26  H   TRP A   1     -47.457  61.525 -51.823  1.00  0.00     0.209 HD
ENDBRANCH  24  25
ENDBRANCH  23  24
BRANCH  23  27
ATOM     27  CB  TRP A   1     -45.971  61.027 -50.500  1.00  0.00     0.068 C 
BRANCH  27  28
ATOM     28  CG  TRP A   1     -45.806  62.087 -49.448  1.00  0.00    -0.028 A 
ATOM     29  CD2 TRP A   1     -45.578  61.898 -48.048  1.00  0.00    -0.002 A 
ATOM     30  CE2 TRP A   1     -45.445  63.162 -47.470  1.00  0.00     0.042 A 
ATOM     31  CE3 TRP A   1     -45.465  60.769 -47.212  1.00  0.00     0.014 A 
ATOM     32  CZ2 TRP A   1     -45.183  63.351 -46.108  1.00  0.00     0.030 A 
ATOM     33  NE1 TRP A   1     -45.617  64.085 -48.473  1.00  0.00    -0.365 N 
ATOM     34  CH2 TRP A   1     -45.054  62.212 -45.308  1.00  0.00     0.002 A 
ATOM     35  CZ3 TRP A   1     -45.196  60.937 -45.849  1.00  0.00     0.001 A 
ATOM     36  HE1 TRP A   1     -45.575  65.086 -48.342  1.00  0.00     0.165 HD
ATOM     37  CD1 TRP A   1     -45.841  63.453 -49.665  1.00  0.00     0.096 A 
ENDBRANCH  27  28
ENDBRANCH  23  27
ENDBRANCH   5  23
TORSDOF 8
ENDMDL
MODEL 9
REMARK VINA RESULT:      -8.0      2.399      8.973
REMARK  8 active torsions:
REMARK  status: ('A' for Active; 'I' for Inactive)
REMARK    1  A    between atoms: C_4  and  N_5 
REMARK       I    between atoms: N_5  and  C_6 
REMARK    2  A    between atoms: C_6  and  C_7 
REMARK    3  A    between atoms: C_10  and  N_11 
REMARK       I    between atoms: N_11  and  C_12 
REMARK       I    between atoms: C_12  and  N_21 
REMARK    4  A    between atoms: N_21  and  CA_22 
REMARK    5  A    between atoms: CA_22  and  C_23 
REMARK    6  A    between atoms: CA_22  and  CB_25 
REMARK    7  A    between atoms: C_23  and  O_24 
REMARK    8  A    between atoms: CB_25  and  CG_26 
ROOT
HETATM    1  N   UNK A   0     -42.571  58.179 -52.934  1.00  0.00    -0.309 N 
HETATM    2  C   UNK A   0     -42.215  57.305 -51.958  1.00  0.00     0.321 C 
HETATM    3  O   UNK A   0     -41.747  57.755 -50.912  1.00  0.00    -0.247 OA
HETATM    4  H   UNK A   0     -42.448  59.126 -52.591  1.00  0.00     0.170 HD
ATOM      5  N   TRP A   1     -42.421  55.978 -52.158  1.00  0.00    -0.336 N 
ATOM      6  H   TRP A   1     -43.297  55.782 -52.623  1.00  0.00     0.164 HD
ENDROOT
BRANCH   1   7
HETATM    7  C   UNK A   0     -42.952  58.064 -54.281  1.00  0.00     0.036 A 
HETATM    8  C   UNK A   0     -42.103  57.759 -55.344  1.00  0.00     0.030 A 
HETATM    9  C   UNK A   0     -42.585  57.714 -56.666  1.00  0.00     0.019 A 
HETATM   10  C   UNK A   0     -43.925  58.001 -56.947  1.00  0.00     0.032 A 
HETATM   11  C   UNK A   0     -44.780  58.295 -55.877  1.00  0.00     0.019 A 
HETATM   12  C   UNK A   0     -44.299  58.327 -54.565  1.00  0.00     0.030 A 
BRANCH  10  13
HETATM   13  C   UNK A   0     -44.511  58.037 -58.327  1.00  0.00     0.256 C 
HETATM   14  N   UNK A   0     -45.884  57.880 -58.421  1.00  0.00    -0.323 N 
HETATM   15  H   UNK A   0     -46.416  57.812 -57.568  1.00  0.00     0.169 HD
HETATM   16  O   UNK A   0     -43.740  58.180 -59.271  1.00  0.00    -0.267 OA
BRANCH  14  17
HETATM   17  C   UNK A   0     -46.645  57.743 -59.605  1.00  0.00     0.035 A 
HETATM   18  C   UNK A   0     -46.924  56.521 -60.221  1.00  0.00     0.029 A 
HETATM   19  C   UNK A   0     -47.720  56.468 -61.369  1.00  0.00     0.002 A 
HETATM   20  C   UNK A   0     -48.239  57.636 -61.919  1.00  0.00     0.000 A 
HETATM   21  C   UNK A   0     -47.963  58.862 -61.320  1.00  0.00     0.002 A 
HETATM   22  C   UNK A   0     -47.175  58.914 -60.166  1.00  0.00     0.029 A 
ENDBRANCH  14  17
ENDBRANCH  10  13
ENDBRANCH   1   7
BRANCH   5  23
ATOM     23  CA  TRP A   1     -42.115  55.020 -51.082  1.00  0.00     0.114 C 
BRANCH  23  24
ATOM     24  C   TRP A   1     -43.131  53.863 -51.120  1.00  0.00     0.189 C 
BRANCH  24  25
ATOM     25  O   TRP A   1     -44.400  54.310 -50.639  1.00  0.00    -0.399 OA
ATOM     26  H   TRP A   1     -44.864  54.695 -51.404  1.00  0.00     0.209 HD
ENDBRANCH  24  25
ENDBRANCH  23  24
BRANCH  23  27
ATOM     27  CB  TRP A   1     -40.670  54.488 -51.196  1.00  0.00     0.068 C 
BRANCH  27  28
ATOM     28  CG  TRP A   1     -40.469  53.620 -52.406  1.00  0.00    -0.028 A 
ATOM     29  CD2 TRP A   1     -40.121  52.232 -52.437  1.00  0.00    -0.002 A 
ATOM     30  CE2 TRP A   1     -40.088  51.837 -53.775  1.00  0.00     0.042 A 
ATOM     31  CE3 TRP A   1     -39.837  51.267 -51.450  1.00  0.00     0.014 A 
ATOM     32  CZ2 TRP A   1     -39.807  50.524 -54.173  1.00  0.00     0.030 A 
ATOM     33  NE1 TRP A   1     -40.373  52.947 -54.532  1.00  0.00    -0.365 N 
ATOM     34  CH2 TRP A   1     -39.550  49.584 -53.172  1.00  0.00     0.002 A 
ATOM     35  CZ3 TRP A   1     -39.561  49.948 -51.828  1.00  0.00     0.001 A 
ATOM     36  HE1 TRP A   1     -40.416  52.956 -55.541  1.00  0.00     0.165 HD
ATOM     37  CD1 TRP A   1     -40.597  54.027 -53.722  1.00  0.00     0.096 A 
ENDBRANCH  27  28
ENDBRANCH  23  27
ENDBRANCH   5  23
TORSDOF 8
ENDMDL
MODEL 10
REMARK VINA RESULT:      -8.0      3.162      9.153
REMARK  8 active torsions:
REMARK  status: ('A' for Active; 'I' for Inactive)
REMARK    1  A    between atoms: C_4  and  N_5 
REMARK       I    between atoms: N_5  and  C_6 
REMARK    2  A    between atoms: C_6  and  C_7 
REMARK    3  A    between atoms: C_10  and  N_11 
REMARK       I    between atoms: N_11  and  C_12 
REMARK       I    between atoms: C_12  and  N_21 
REMARK    4  A    between atoms: N_21  and  CA_22 
REMARK    5  A    between atoms: CA_22  and  C_23 
REMARK    6  A    between atoms: CA_22  and  CB_25 
REMARK    7  A    between atoms: C_23  and  O_24 
REMARK    8  A    between atoms: CB_25  and  CG_26 
ROOT
HETATM    1  N   UNK A   0     -44.536  58.189 -52.241  1.00  0.00    -0.309 N 
HETATM    2  C   UNK A   0     -44.097  57.098 -51.564  1.00  0.00     0.321 C 
HETATM    3  O   UNK A   0     -44.745  56.715 -50.590  1.00  0.00    -0.247 OA
HETATM    4  H   UNK A   0     -45.421  58.488 -51.849  1.00  0.00     0.170 HD
ATOM      5  N   TRP A   1     -42.986  56.453 -52.005  1.00  0.00    -0.336 N 
ATOM      6  H   TRP A   1     -42.943  56.389 -53.013  1.00  0.00     0.164 HD
ENDROOT
BRANCH   1   7
HETATM    7  C   UNK A   0     -44.006  59.015 -53.247  1.00  0.00     0.036 A 
HETATM    8  C   UNK A   0     -43.211  60.141 -53.040  1.00  0.00     0.030 A 
HETATM    9  C   UNK A   0     -42.770  60.925 -54.123  1.00  0.00     0.019 A 
HETATM   10  C   UNK A   0     -43.143  60.606 -55.433  1.00  0.00     0.032 A 
HETATM   11  C   UNK A   0     -43.931  59.467 -55.642  1.00  0.00     0.019 A 
HETATM   12  C   UNK A   0     -44.356  58.685 -54.563  1.00  0.00     0.030 A 
BRANCH  10  13
HETATM   13  C   UNK A   0     -42.772  61.417 -56.640  1.00  0.00     0.256 C 
HETATM   14  N   UNK A   0     -41.973  60.792 -57.583  1.00  0.00    -0.323 N 
HETATM   15  H   UNK A   0     -41.736  59.823 -57.441  1.00  0.00     0.169 HD
HETATM   16  O   UNK A   0     -43.180  62.572 -56.698  1.00  0.00    -0.267 OA
BRANCH  14  17
HETATM   17  C   UNK A   0     -41.384  61.385 -58.725  1.00  0.00     0.035 A 
HETATM   18  C   UNK A   0     -41.862  61.221 -60.027  1.00  0.00     0.029 A 
HETATM   19  C   UNK A   0     -41.245  61.876 -61.098  1.00  0.00     0.002 A 
HETATM   20  C   UNK A   0     -40.140  62.694 -60.880  1.00  0.00     0.000 A 
HETATM   21  C   UNK A   0     -39.650  62.860 -59.588  1.00  0.00     0.002 A 
HETATM   22  C   UNK A   0     -40.272  62.213 -58.516  1.00  0.00     0.029 A 
ENDBRANCH  14  17
ENDBRANCH  10  13
ENDBRANCH   1   7
BRANCH   5  23
ATOM     23  CA  TRP A   1     -42.538  55.223 -51.331  1.00  0.00     0.114 C 
BRANCH  23  24
ATOM     24  C   TRP A   1     -43.319  54.019 -51.890  1.00  0.00     0.189 C 
BRANCH  24  25
ATOM     25  O   TRP A   1     -44.476  53.771 -51.089  1.00  0.00    -0.399 OA
ATOM     26  H   TRP A   1     -44.675  54.605 -50.628  1.00  0.00     0.209 HD
ENDBRANCH  24  25
ENDBRANCH  23  24
BRANCH  23  27
ATOM     27  CB  TRP A   1     -41.017  55.015 -51.490  1.00  0.00     0.068 C 
BRANCH  27  28
ATOM     28  CG  TRP A   1     -40.680  54.038 -52.581  1.00  0.00    -0.028 A 
ATOM     29  CD2 TRP A   1     -40.256  52.679 -52.435  1.00  0.00    -0.002 A 
ATOM     30  CE2 TRP A   1     -40.102  52.147 -53.716  1.00  0.00     0.042 A 
ATOM     31  CE3 TRP A   1     -39.992  51.843 -51.331  1.00  0.00     0.014 A 
ATOM     32  CZ2 TRP A   1     -39.721  50.820 -53.948  1.00  0.00     0.030 A 
ATOM     33  NE1 TRP A   1     -40.391  53.151 -54.609  1.00  0.00    -0.365 N 
ATOM     34  CH2 TRP A   1     -39.488  50.008 -52.834  1.00  0.00     0.002 A 
ATOM     35  CZ3 TRP A   1     -39.618  50.511 -51.542  1.00  0.00     0.001 A 
ATOM     36  HE1 TRP A   1     -40.359  53.050 -55.614  1.00  0.00     0.165 HD
ATOM     37  CD1 TRP A   1     -40.733  54.294 -53.940  1.00  0.00     0.096 A 
ENDBRANCH  27  28
ENDBRANCH  23  27
ENDBRANCH   5  23
TORSDOF 8
ENDMDL
