MODEL 1
REMARK VINA RESULT:      -9.1      0.000      0.000
REMARK  9 active torsions:
REMARK  status: ('A' for Active; 'I' for Inactive)
REMARK    1  A    between atoms: O_2  and  C_3 
REMARK    2  A    between atoms: C_5  and  O_6 
REMARK    3  A    between atoms: C_8  and  N_9 
REMARK    4  A    between atoms: C_10  and  C_12 
REMARK    5  A    between atoms: C_10  and  O_11 
REMARK       I    between atoms: C_12  and  N_13 
REMARK    6  A    between atoms: N_13  and  C_14 
REMARK    7  A    between atoms: C_14  and  C_15 
REMARK    8  A    between atoms: C_15  and  N_16 
REMARK    9  A    between atoms: N_20  and  C_21 
ROOT
HETATM    1  N   UNL     1     -42.019  55.766 -51.725  1.00  0.00    -0.251 N 
HETATM    2  C   UNL     1     -41.716  55.352 -53.099  1.00  0.00     0.256 C 
HETATM    3  C   UNL     1     -41.149  53.940 -53.165  1.00  0.00     0.034 A 
HETATM    4  C   UNL     1     -40.491  53.451 -52.038  1.00  0.00     0.048 A 
HETATM    5  N   UNL     1     -40.487  54.211 -50.874  1.00  0.00    -0.308 N 
HETATM    6  C   UNL     1     -41.251  55.319 -50.661  1.00  0.00     0.330 C 
HETATM    7  O   UNL     1     -41.220  55.848 -49.551  1.00  0.00    -0.246 OA
HETATM    8  C   UNL     1     -41.158  53.139 -54.321  1.00  0.00     0.015 A 
HETATM    9  C   UNL     1     -40.523  51.894 -54.338  1.00  0.00     0.001 A 
HETATM   10  C   UNL     1     -39.860  51.436 -53.204  1.00  0.00     0.002 A 
HETATM   11  C   UNL     1     -39.840  52.216 -52.050  1.00  0.00     0.030 A 
HETATM   12  H   UNL     1     -40.009  53.869 -50.049  1.00  0.00     0.170 HD
ENDROOT
BRANCH   2  13
HETATM   13  C   UNL     1     -42.946  55.499 -54.122  1.00  0.00     0.279 C 
HETATM   14  N   UNL     1     -43.076  56.565 -54.981  1.00  0.00    -0.355 N 
HETATM   15  H   UNL     1     -43.995  56.564 -55.413  1.00  0.00     0.162 HD
HETATM   16  O   UNL     1     -43.845  54.656 -54.233  1.00  0.00    -0.268 OA
BRANCH  14  17
HETATM   17  C   UNL     1     -42.168  57.653 -55.301  1.00  0.00     0.150 C 
BRANCH  17  18
HETATM   18  C   UNL     1     -42.836  59.035 -55.488  1.00  0.00     0.254 C 
BRANCH  18  19
HETATM   19  N   UNL     1     -43.046  59.445 -56.948  1.00  0.00    -0.067 N 
HETATM   20  H   UNL     1     -42.770  60.427 -57.068  1.00  0.00     0.280 HD
HETATM   21  C   UNL     1     -42.109  58.593 -57.837  1.00  0.00     0.254 C 
HETATM   22  C   UNL     1     -42.368  58.817 -59.343  1.00  0.00     0.150 C 
HETATM   23  N   UNL     1     -43.791  58.603 -59.666  1.00  0.00    -0.378 N 
HETATM   24  C   UNL     1     -44.655  59.546 -58.926  1.00  0.00     0.150 C 
HETATM   25  C   UNL     1     -44.509  59.317 -57.406  1.00  0.00     0.254 C 
BRANCH  23  26
HETATM   26  C   UNL     1     -44.281  57.299 -59.857  1.00  0.00     0.030 A 
HETATM   27  C   UNL     1     -43.468  56.154 -59.795  1.00  0.00     0.029 A 
HETATM   28  C   UNL     1     -43.984  54.861 -59.962  1.00  0.00     0.002 A 
HETATM   29  C   UNL     1     -45.334  54.674 -60.223  1.00  0.00     0.000 A 
HETATM   30  C   UNL     1     -46.158  55.783 -60.342  1.00  0.00     0.002 A 
HETATM   31  C   UNL     1     -45.633  57.071 -60.173  1.00  0.00     0.029 A 
ENDBRANCH  23  26
ENDBRANCH  18  19
ENDBRANCH  17  18
ENDBRANCH  14  17
ENDBRANCH   2  13
BRANCH   2  32
HETATM   32  O   UNL     1     -40.617  56.178 -53.509  1.00  0.00    -0.359 OA
HETATM   33  H   UNL     1     -40.985  56.669 -54.264  1.00  0.00     0.213 HD
ENDBRANCH   2  32
BRANCH   1  34
HETATM   34  C   UNL     1     -42.875  56.886 -51.497  1.00  0.00     0.076 A 
HETATM   35  C   UNL     1     -42.363  58.195 -51.593  1.00  0.00     0.098 A 
HETATM   36  C   UNL     1     -43.229  59.283 -51.455  1.00  0.00     0.075 A 
HETATM   37  C   UNL     1     -44.596  59.067 -51.278  1.00  0.00     0.070 A 
HETATM   38  C   UNL     1     -45.109  57.776 -51.182  1.00  0.00     0.039 A 
HETATM   39  C   UNL     1     -44.251  56.684 -51.306  1.00  0.00     0.035 A 
BRANCH  35  40
HETATM   40  O   UNL     1     -41.030  58.297 -51.887  1.00  0.00    -0.354 OA
HETATM   41  C   UNL     1     -40.202  59.002 -50.970  1.00  0.00     0.210 C 
ENDBRANCH  35  40
BRANCH  37  42
HETATM   42  O   UNL     1     -45.399  60.170 -51.176  1.00  0.00    -0.356 OA
HETATM   43  C   UNL     1     -45.387  60.701 -49.848  1.00  0.00     0.210 C 
ENDBRANCH  37  42
ENDBRANCH   1  34
TORSDOF 9
ENDMDL
MODEL 2
REMARK VINA RESULT:      -8.7      1.741      3.219
REMARK  9 active torsions:
REMARK  status: ('A' for Active; 'I' for Inactive)
REMARK    1  A    between atoms: O_2  and  C_3 
REMARK    2  A    between atoms: C_5  and  O_6 
REMARK    3  A    between atoms: C_8  and  N_9 
REMARK    4  A    between atoms: C_10  and  C_12 
REMARK    5  A    between atoms: C_10  and  O_11 
REMARK       I    between atoms: C_12  and  N_13 
REMARK    6  A    between atoms: N_13  and  C_14 
REMARK    7  A    between atoms: C_14  and  C_15 
REMARK    8  A    between atoms: C_15  and  N_16 
REMARK    9  A    between atoms: N_20  and  C_21 
ROOT
HETATM    1  N   UNL     1     -41.798  55.412 -51.828  1.00  0.00    -0.251 N 
HETATM    2  C   UNL     1     -41.621  54.914 -53.196  1.00  0.00     0.256 C 
HETATM    3  C   UNL     1     -41.040  53.506 -53.227  1.00  0.00     0.034 A 
HETATM    4  C   UNL     1     -40.268  53.098 -52.140  1.00  0.00     0.048 A 
HETATM    5  N   UNL     1     -40.166  53.931 -51.033  1.00  0.00    -0.308 N 
HETATM    6  C   UNL     1     -40.923  55.043 -50.817  1.00  0.00     0.330 C 
HETATM    7  O   UNL     1     -40.795  55.643 -49.751  1.00  0.00    -0.246 OA
HETATM    8  C   UNL     1     -41.146  52.632 -54.323  1.00  0.00     0.015 A 
HETATM    9  C   UNL     1     -40.495  51.395 -54.322  1.00  0.00     0.001 A 
HETATM   10  C   UNL     1     -39.718  51.018 -53.232  1.00  0.00     0.002 A 
HETATM   11  C   UNL     1     -39.601  51.871 -52.137  1.00  0.00     0.030 A 
HETATM   12  H   UNL     1     -39.604  53.649 -50.238  1.00  0.00     0.170 HD
ENDROOT
BRANCH   2  13
HETATM   13  C   UNL     1     -42.946  54.981 -54.102  1.00  0.00     0.279 C 
HETATM   14  N   UNL     1     -43.065  55.822 -55.184  1.00  0.00    -0.355 N 
HETATM   15  H   UNL     1     -44.025  55.844 -55.513  1.00  0.00     0.162 HD
HETATM   16  O   UNL     1     -43.938  54.267 -53.914  1.00  0.00    -0.268 OA
BRANCH  14  17
HETATM   17  C   UNL     1     -42.091  56.669 -55.850  1.00  0.00     0.150 C 
BRANCH  17  18
HETATM   18  C   UNL     1     -42.537  58.132 -56.079  1.00  0.00     0.254 C 
BRANCH  18  19
HETATM   19  N   UNL     1     -42.998  58.438 -57.506  1.00  0.00    -0.067 N 
HETATM   20  H   UNL     1     -43.770  57.808 -57.755  1.00  0.00     0.280 HD
HETATM   21  C   UNL     1     -43.555  59.882 -57.543  1.00  0.00     0.254 C 
HETATM   22  C   UNL     1     -43.892  60.341 -58.978  1.00  0.00     0.150 C 
HETATM   23  N   UNL     1     -42.730  60.168 -59.870  1.00  0.00    -0.378 N 
HETATM   24  C   UNL     1     -42.323  58.750 -59.946  1.00  0.00     0.150 C 
HETATM   25  C   UNL     1     -41.888  58.247 -58.554  1.00  0.00     0.254 C 
BRANCH  23  26
HETATM   26  C   UNL     1     -41.707  61.132 -59.886  1.00  0.00     0.030 A 
HETATM   27  C   UNL     1     -41.030  61.557 -58.730  1.00  0.00     0.029 A 
HETATM   28  C   UNL     1     -39.994  62.501 -58.776  1.00  0.00     0.002 A 
HETATM   29  C   UNL     1     -39.617  63.070 -59.984  1.00  0.00     0.000 A 
HETATM   30  C   UNL     1     -40.296  62.713 -61.139  1.00  0.00     0.002 A 
HETATM   31  C   UNL     1     -41.330  61.769 -61.084  1.00  0.00     0.029 A 
ENDBRANCH  23  26
ENDBRANCH  18  19
ENDBRANCH  17  18
ENDBRANCH  14  17
ENDBRANCH   2  13
BRANCH   2  32
HETATM   32  O   UNL     1     -40.580  55.722 -53.762  1.00  0.00    -0.359 OA
HETATM   33  H   UNL     1     -40.582  56.510 -53.189  1.00  0.00     0.213 HD
ENDBRANCH   2  32
BRANCH   1  34
HETATM   34  C   UNL     1     -42.647  56.535 -51.590  1.00  0.00     0.076 A 
HETATM   35  C   UNL     1     -42.176  57.840 -51.841  1.00  0.00     0.098 A 
HETATM   36  C   UNL     1     -43.043  58.924 -51.688  1.00  0.00     0.075 A 
HETATM   37  C   UNL     1     -44.378  58.705 -51.342  1.00  0.00     0.070 A 
HETATM   38  C   UNL     1     -44.849  57.419 -51.093  1.00  0.00     0.039 A 
HETATM   39  C   UNL     1     -43.988  56.332 -51.230  1.00  0.00     0.035 A 
BRANCH  35  40
HETATM   40  O   UNL     1     -40.886  57.936 -52.290  1.00  0.00    -0.354 OA
HETATM   41  C   UNL     1     -40.533  59.086 -53.049  1.00  0.00     0.210 C 
ENDBRANCH  35  40
BRANCH  37  42
HETATM   42  O   UNL     1     -45.187  59.803 -51.234  1.00  0.00    -0.356 OA
HETATM   43  C   UNL     1     -44.658  60.748 -50.300  1.00  0.00     0.210 C 
ENDBRANCH  37  42
ENDBRANCH   1  34
TORSDOF 9
ENDMDL
MODEL 3
REMARK VINA RESULT:      -8.5      2.970      7.694
REMARK  9 active torsions:
REMARK  status: ('A' for Active; 'I' for Inactive)
REMARK    1  A    between atoms: O_2  and  C_3 
REMARK    2  A    between atoms: C_5  and  O_6 
REMARK    3  A    between atoms: C_8  and  N_9 
REMARK    4  A    between atoms: C_10  and  C_12 
REMARK    5  A    between atoms: C_10  and  O_11 
REMARK       I    between atoms: C_12  and  N_13 
REMARK    6  A    between atoms: N_13  and  C_14 
REMARK    7  A    between atoms: C_14  and  C_15 
REMARK    8  A    between atoms: C_15  and  N_16 
REMARK    9  A    between atoms: N_20  and  C_21 
ROOT
HETATM    1  N   UNL     1     -43.951  60.906 -52.003  1.00  0.00    -0.251 N 
HETATM    2  C   UNL     1     -44.100  60.272 -50.689  1.00  0.00     0.256 C 
HETATM    3  C   UNL     1     -44.481  61.273 -49.606  1.00  0.00     0.034 A 
HETATM    4  C   UNL     1     -44.118  62.606 -49.795  1.00  0.00     0.048 A 
HETATM    5  N   UNL     1     -43.543  62.984 -51.002  1.00  0.00    -0.308 N 
HETATM    6  C   UNL     1     -43.481  62.205 -52.118  1.00  0.00     0.330 C 
HETATM    7  O   UNL     1     -43.026  62.695 -53.151  1.00  0.00    -0.246 OA
HETATM    8  C   UNL     1     -45.084  60.924 -48.384  1.00  0.00     0.015 A 
HETATM    9  C   UNL     1     -45.308  61.882 -47.392  1.00  0.00     0.001 A 
HETATM   10  C   UNL     1     -44.921  63.202 -47.600  1.00  0.00     0.002 A 
HETATM   11  C   UNL     1     -44.323  63.567 -48.803  1.00  0.00     0.030 A 
HETATM   12  H   UNL     1     -43.270  63.949 -51.151  1.00  0.00     0.170 HD
ENDROOT
BRANCH   2  13
HETATM   13  C   UNL     1     -45.111  59.024 -50.665  1.00  0.00     0.279 C 
HETATM   14  N   UNL     1     -44.699  57.729 -50.871  1.00  0.00    -0.355 N 
HETATM   15  H   UNL     1     -45.500  57.116 -50.991  1.00  0.00     0.162 HD
HETATM   16  O   UNL     1     -46.322  59.132 -50.433  1.00  0.00    -0.268 OA
BRANCH  14  17
HETATM   17  C   UNL     1     -43.370  57.154 -50.986  1.00  0.00     0.150 C 
BRANCH  17  18
HETATM   18  C   UNL     1     -43.332  55.655 -51.366  1.00  0.00     0.254 C 
BRANCH  18  19
HETATM   19  N   UNL     1     -42.709  55.364 -52.733  1.00  0.00    -0.067 N 
HETATM   20  H   UNL     1     -42.953  56.119 -53.385  1.00  0.00     0.280 HD
HETATM   21  C   UNL     1     -41.168  55.370 -52.583  1.00  0.00     0.254 C 
HETATM   22  C   UNL     1     -40.453  54.921 -53.875  1.00  0.00     0.150 C 
HETATM   23  N   UNL     1     -40.964  53.614 -54.330  1.00  0.00    -0.378 N 
HETATM   24  C   UNL     1     -42.409  53.681 -54.627  1.00  0.00     0.150 C 
HETATM   25  C   UNL     1     -43.198  54.043 -53.351  1.00  0.00     0.254 C 
BRANCH  23  26
HETATM   26  C   UNL     1     -40.483  52.429 -53.746  1.00  0.00     0.030 A 
HETATM   27  C   UNL     1     -39.993  52.362 -52.430  1.00  0.00     0.029 A 
HETATM   28  C   UNL     1     -39.543  51.162 -51.861  1.00  0.00     0.002 A 
HETATM   29  C   UNL     1     -39.546  49.990 -52.603  1.00  0.00     0.000 A 
HETATM   30  C   UNL     1     -39.975  50.027 -53.921  1.00  0.00     0.002 A 
HETATM   31  C   UNL     1     -40.422  51.231 -54.482  1.00  0.00     0.029 A 
ENDBRANCH  23  26
ENDBRANCH  18  19
ENDBRANCH  17  18
ENDBRANCH  14  17
ENDBRANCH   2  13
BRANCH   2  32
HETATM   32  O   UNL     1     -42.778  59.859 -50.316  1.00  0.00    -0.359 OA
HETATM   33  H   UNL     1     -42.210  60.471 -50.816  1.00  0.00     0.213 HD
ENDBRANCH   2  32
BRANCH   1  34
HETATM   34  C   UNL     1     -43.955  60.098 -53.181  1.00  0.00     0.076 A 
HETATM   35  C   UNL     1     -42.770  59.464 -53.604  1.00  0.00     0.098 A 
HETATM   36  C   UNL     1     -42.807  58.607 -54.707  1.00  0.00     0.075 A 
HETATM   37  C   UNL     1     -44.020  58.343 -55.344  1.00  0.00     0.070 A 
HETATM   38  C   UNL     1     -45.195  58.966 -54.931  1.00  0.00     0.039 A 
HETATM   39  C   UNL     1     -45.166  59.834 -53.840  1.00  0.00     0.035 A 
BRANCH  35  40
HETATM   40  O   UNL     1     -41.659  59.696 -52.839  1.00  0.00    -0.354 OA
HETATM   41  C   UNL     1     -40.516  58.881 -53.067  1.00  0.00     0.210 C 
ENDBRANCH  35  40
BRANCH  37  42
HETATM   42  O   UNL     1     -43.999  57.474 -56.401  1.00  0.00    -0.356 OA
HETATM   43  C   UNL     1     -42.755  56.772 -56.471  1.00  0.00     0.210 C 
ENDBRANCH  37  42
ENDBRANCH   1  34
TORSDOF 9
ENDMDL
MODEL 4
REMARK VINA RESULT:      -8.5      1.520      5.017
REMARK  9 active torsions:
REMARK  status: ('A' for Active; 'I' for Inactive)
REMARK    1  A    between atoms: O_2  and  C_3 
REMARK    2  A    between atoms: C_5  and  O_6 
REMARK    3  A    between atoms: C_8  and  N_9 
REMARK    4  A    between atoms: C_10  and  C_12 
REMARK    5  A    between atoms: C_10  and  O_11 
REMARK       I    between atoms: C_12  and  N_13 
REMARK    6  A    between atoms: N_13  and  C_14 
REMARK    7  A    between atoms: C_14  and  C_15 
REMARK    8  A    between atoms: C_15  and  N_16 
REMARK    9  A    between atoms: N_20  and  C_21 
ROOT
HETATM    1  N   UNL     1     -42.292  57.170 -52.285  1.00  0.00    -0.251 N 
HETATM    2  C   UNL     1     -43.703  57.405 -52.607  1.00  0.00     0.256 C 
HETATM    3  C   UNL     1     -44.132  58.836 -52.312  1.00  0.00     0.034 A 
HETATM    4  C   UNL     1     -43.424  59.539 -51.338  1.00  0.00     0.048 A 
HETATM    5  N   UNL     1     -42.295  58.959 -50.773  1.00  0.00    -0.308 N 
HETATM    6  C   UNL     1     -41.682  57.832 -51.230  1.00  0.00     0.330 C 
HETATM    7  O   UNL     1     -40.635  57.474 -50.693  1.00  0.00    -0.246 OA
HETATM    8  C   UNL     1     -45.256  59.458 -52.884  1.00  0.00     0.015 A 
HETATM    9  C   UNL     1     -45.651  60.738 -52.486  1.00  0.00     0.001 A 
HETATM   10  C   UNL     1     -44.937  61.411 -51.500  1.00  0.00     0.002 A 
HETATM   11  C   UNL     1     -43.821  60.811 -50.922  1.00  0.00     0.030 A 
HETATM   12  H   UNL     1     -41.774  59.457 -50.060  1.00  0.00     0.170 HD
ENDROOT
BRANCH   2  13
HETATM   13  C   UNL     1     -44.116  57.005 -54.107  1.00  0.00     0.279 C 
HETATM   14  N   UNL     1     -43.701  57.717 -55.208  1.00  0.00    -0.355 N 
HETATM   15  H   UNL     1     -44.204  57.415 -56.037  1.00  0.00     0.162 HD
HETATM   16  O   UNL     1     -44.809  56.018 -54.383  1.00  0.00    -0.268 OA
BRANCH  14  17
HETATM   17  C   UNL     1     -42.746  58.803 -55.341  1.00  0.00     0.150 C 
BRANCH  17  18
HETATM   18  C   UNL     1     -43.302  60.093 -55.988  1.00  0.00     0.254 C 
BRANCH  18  19
HETATM   19  N   UNL     1     -43.188  60.137 -57.513  1.00  0.00    -0.067 N 
HETATM   20  H   UNL     1     -42.820  61.052 -57.800  1.00  0.00     0.280 HD
HETATM   21  C   UNL     1     -42.162  59.069 -57.961  1.00  0.00     0.254 C 
HETATM   22  C   UNL     1     -42.102  58.923 -59.497  1.00  0.00     0.150 C 
HETATM   23  N   UNL     1     -43.445  58.673 -60.052  1.00  0.00    -0.378 N 
HETATM   24  C   UNL     1     -44.364  59.791 -59.752  1.00  0.00     0.150 C 
HETATM   25  C   UNL     1     -44.538  59.939 -58.225  1.00  0.00     0.254 C 
BRANCH  23  26
HETATM   26  C   UNL     1     -43.985  57.375 -60.029  1.00  0.00     0.030 A 
HETATM   27  C   UNL     1     -43.222  56.228 -59.753  1.00  0.00     0.029 A 
HETATM   28  C   UNL     1     -43.789  54.946 -59.709  1.00  0.00     0.002 A 
HETATM   29  C   UNL     1     -45.141  54.769 -59.967  1.00  0.00     0.000 A 
HETATM   30  C   UNL     1     -45.916  55.871 -60.293  1.00  0.00     0.002 A 
HETATM   31  C   UNL     1     -45.341  57.148 -60.335  1.00  0.00     0.029 A 
ENDBRANCH  23  26
ENDBRANCH  18  19
ENDBRANCH  17  18
ENDBRANCH  14  17
ENDBRANCH   2  13
BRANCH   2  32
HETATM   32  O   UNL     1     -44.443  56.628 -51.655  1.00  0.00    -0.359 OA
HETATM   33  H   UNL     1     -45.138  56.220 -52.201  1.00  0.00     0.213 HD
ENDBRANCH   2  32
BRANCH   1  34
HETATM   34  C   UNL     1     -41.626  56.025 -52.820  1.00  0.00     0.076 A 
HETATM   35  C   UNL     1     -41.799  54.764 -52.215  1.00  0.00     0.098 A 
HETATM   36  C   UNL     1     -41.214  53.637 -52.798  1.00  0.00     0.075 A 
HETATM   37  C   UNL     1     -40.513  53.758 -53.998  1.00  0.00     0.070 A 
HETATM   38  C   UNL     1     -40.339  55.001 -54.602  1.00  0.00     0.039 A 
HETATM   39  C   UNL     1     -40.907  56.133 -54.020  1.00  0.00     0.035 A 
BRANCH  35  40
HETATM   40  O   UNL     1     -42.603  54.735 -51.108  1.00  0.00    -0.354 OA
HETATM   41  C   UNL     1     -42.007  54.384 -49.865  1.00  0.00     0.210 C 
ENDBRANCH  35  40
BRANCH  37  42
HETATM   42  O   UNL     1     -39.986  52.616 -54.537  1.00  0.00    -0.356 OA
HETATM   43  C   UNL     1     -39.721  51.640 -53.525  1.00  0.00     0.210 C 
ENDBRANCH  37  42
ENDBRANCH   1  34
TORSDOF 9
ENDMDL
MODEL 5
REMARK VINA RESULT:      -8.4      1.490      4.985
REMARK  9 active torsions:
REMARK  status: ('A' for Active; 'I' for Inactive)
REMARK    1  A    between atoms: O_2  and  C_3 
REMARK    2  A    between atoms: C_5  and  O_6 
REMARK    3  A    between atoms: C_8  and  N_9 
REMARK    4  A    between atoms: C_10  and  C_12 
REMARK    5  A    between atoms: C_10  and  O_11 
REMARK       I    between atoms: C_12  and  N_13 
REMARK    6  A    between atoms: N_13  and  C_14 
REMARK    7  A    between atoms: C_14  and  C_15 
REMARK    8  A    between atoms: C_15  and  N_16 
REMARK    9  A    between atoms: N_20  and  C_21 
ROOT
HETATM    1  N   UNL     1     -42.942  55.816 -51.808  1.00  0.00    -0.251 N 
HETATM    2  C   UNL     1     -43.014  56.993 -52.680  1.00  0.00     0.256 C 
HETATM    3  C   UNL     1     -43.793  58.136 -52.042  1.00  0.00     0.034 A 
HETATM    4  C   UNL     1     -44.751  57.814 -51.082  1.00  0.00     0.048 A 
HETATM    5  N   UNL     1     -44.868  56.494 -50.660  1.00  0.00    -0.308 N 
HETATM    6  C   UNL     1     -43.984  55.499 -50.952  1.00  0.00     0.330 C 
HETATM    7  O   UNL     1     -44.157  54.394 -50.440  1.00  0.00    -0.246 OA
HETATM    8  C   UNL     1     -43.681  59.483 -52.432  1.00  0.00     0.015 A 
HETATM    9  C   UNL     1     -44.506  60.464 -51.875  1.00  0.00     0.001 A 
HETATM   10  C   UNL     1     -45.465  60.113 -50.931  1.00  0.00     0.002 A 
HETATM   11  C   UNL     1     -45.591  58.784 -50.533  1.00  0.00     0.030 A 
HETATM   12  H   UNL     1     -45.563  56.245 -49.967  1.00  0.00     0.170 HD
ENDROOT
BRANCH   2  13
HETATM   13  C   UNL     1     -41.589  57.522 -53.200  1.00  0.00     0.279 C 
HETATM   14  N   UNL     1     -41.360  57.878 -54.507  1.00  0.00    -0.355 N 
HETATM   15  H   UNL     1     -40.367  58.015 -54.670  1.00  0.00     0.162 HD
HETATM   16  O   UNL     1     -40.608  57.675 -52.461  1.00  0.00    -0.268 OA
BRANCH  14  17
HETATM   17  C   UNL     1     -42.266  58.027 -55.632  1.00  0.00     0.150 C 
BRANCH  17  18
HETATM   18  C   UNL     1     -42.566  59.486 -56.049  1.00  0.00     0.254 C 
BRANCH  18  19
HETATM   19  N   UNL     1     -42.747  59.691 -57.555  1.00  0.00    -0.067 N 
HETATM   20  H   UNL     1     -42.403  60.623 -57.814  1.00  0.00     0.280 HD
HETATM   21  C   UNL     1     -41.870  58.655 -58.300  1.00  0.00     0.254 C 
HETATM   22  C   UNL     1     -42.113  58.674 -59.825  1.00  0.00     0.150 C 
HETATM   23  N   UNL     1     -43.547  58.512 -60.129  1.00  0.00    -0.378 N 
HETATM   24  C   UNL     1     -44.344  59.609 -59.543  1.00  0.00     0.150 C 
HETATM   25  C   UNL     1     -44.215  59.597 -58.005  1.00  0.00     0.254 C 
BRANCH  23  26
HETATM   26  C   UNL     1     -44.124  57.230 -60.132  1.00  0.00     0.030 A 
HETATM   27  C   UNL     1     -43.381  56.049 -59.962  1.00  0.00     0.029 A 
HETATM   28  C   UNL     1     -43.985  54.783 -59.943  1.00  0.00     0.002 A 
HETATM   29  C   UNL     1     -45.355  54.657 -60.117  1.00  0.00     0.000 A 
HETATM   30  C   UNL     1     -46.115  55.796 -60.337  1.00  0.00     0.002 A 
HETATM   31  C   UNL     1     -45.504  57.057 -60.356  1.00  0.00     0.029 A 
ENDBRANCH  23  26
ENDBRANCH  18  19
ENDBRANCH  17  18
ENDBRANCH  14  17
ENDBRANCH   2  13
BRANCH   2  32
HETATM   32  O   UNL     1     -43.839  56.596 -53.784  1.00  0.00    -0.359 OA
HETATM   33  H   UNL     1     -43.763  55.626 -53.773  1.00  0.00     0.213 HD
ENDBRANCH   2  32
BRANCH   1  34
HETATM   34  C   UNL     1     -41.970  54.803 -52.070  1.00  0.00     0.076 A 
HETATM   35  C   UNL     1     -40.950  54.546 -51.132  1.00  0.00     0.098 A 
HETATM   36  C   UNL     1     -40.058  53.495 -51.358  1.00  0.00     0.075 A 
HETATM   37  C   UNL     1     -40.217  52.675 -52.477  1.00  0.00     0.070 A 
HETATM   38  C   UNL     1     -41.223  52.922 -53.407  1.00  0.00     0.039 A 
HETATM   39  C   UNL     1     -42.109  53.978 -53.197  1.00  0.00     0.035 A 
BRANCH  35  40
HETATM   40  O   UNL     1     -40.954  55.331 -50.011  1.00  0.00    -0.354 OA
HETATM   41  C   UNL     1     -40.985  54.681 -48.746  1.00  0.00     0.210 C 
ENDBRANCH  35  40
BRANCH  37  42
HETATM   42  O   UNL     1     -39.331  51.644 -52.631  1.00  0.00    -0.356 OA
HETATM   43  C   UNL     1     -39.485  50.668 -51.596  1.00  0.00     0.210 C 
ENDBRANCH  37  42
ENDBRANCH   1  34
TORSDOF 9
ENDMDL
MODEL 6
REMARK VINA RESULT:      -8.1      1.771      5.261
REMARK  9 active torsions:
REMARK  status: ('A' for Active; 'I' for Inactive)
REMARK    1  A    between atoms: O_2  and  C_3 
REMARK    2  A    between atoms: C_5  and  O_6 
REMARK    3  A    between atoms: C_8  and  N_9 
REMARK    4  A    between atoms: C_10  and  C_12 
REMARK    5  A    between atoms: C_10  and  O_11 
REMARK       I    between atoms: C_12  and  N_13 
REMARK    6  A    between atoms: N_13  and  C_14 
REMARK    7  A    between atoms: C_14  and  C_15 
REMARK    8  A    between atoms: C_15  and  N_16 
REMARK    9  A    between atoms: N_20  and  C_21 
ROOT
HETATM    1  N   UNL     1     -43.491  57.927 -52.046  1.00  0.00    -0.251 N 
HETATM    2  C   UNL     1     -43.262  59.243 -52.650  1.00  0.00     0.256 C 
HETATM    3  C   UNL     1     -43.465  60.378 -51.654  1.00  0.00     0.034 A 
HETATM    4  C   UNL     1     -44.315  60.150 -50.573  1.00  0.00     0.048 A 
HETATM    5  N   UNL     1     -44.838  58.877 -50.381  1.00  0.00    -0.308 N 
HETATM    6  C   UNL     1     -44.433  57.757 -51.043  1.00  0.00     0.330 C 
HETATM    7  O   UNL     1     -44.915  56.674 -50.714  1.00  0.00    -0.246 OA
HETATM    8  C   UNL     1     -42.931  61.669 -51.809  1.00  0.00     0.015 A 
HETATM    9  C   UNL     1     -43.246  62.691 -50.910  1.00  0.00     0.001 A 
HETATM   10  C   UNL     1     -44.110  62.442 -49.848  1.00  0.00     0.002 A 
HETATM   11  C   UNL     1     -44.649  61.169 -49.679  1.00  0.00     0.030 A 
HETATM   12  H   UNL     1     -45.461  58.698 -49.602  1.00  0.00     0.170 HD
ENDROOT
BRANCH   2  13
HETATM   13  C   UNL     1     -41.840  59.400 -53.381  1.00  0.00     0.279 C 
HETATM   14  N   UNL     1     -41.708  59.453 -54.748  1.00  0.00    -0.355 N 
HETATM   15  H   UNL     1     -40.731  59.376 -55.014  1.00  0.00     0.162 HD
HETATM   16  O   UNL     1     -40.770  59.513 -52.771  1.00  0.00    -0.268 OA
BRANCH  14  17
HETATM   17  C   UNL     1     -42.702  59.543 -55.803  1.00  0.00     0.150 C 
BRANCH  17  18
HETATM   18  C   UNL     1     -42.801  60.921 -56.499  1.00  0.00     0.254 C 
BRANCH  18  19
HETATM   19  N   UNL     1     -42.998  60.852 -58.015  1.00  0.00    -0.067 N 
HETATM   20  H   UNL     1     -42.836  61.781 -58.421  1.00  0.00     0.280 HD
HETATM   21  C   UNL     1     -41.931  59.900 -58.607  1.00  0.00     0.254 C 
HETATM   22  C   UNL     1     -42.153  59.636 -60.112  1.00  0.00     0.150 C 
HETATM   23  N   UNL     1     -43.526  59.158 -60.362  1.00  0.00    -0.378 N 
HETATM   24  C   UNL     1     -44.526  60.161 -59.939  1.00  0.00     0.150 C 
HETATM   25  C   UNL     1     -44.416  60.412 -58.420  1.00  0.00     0.254 C 
BRANCH  23  26
HETATM   26  C   UNL     1     -43.849  57.806 -60.158  1.00  0.00     0.030 A 
HETATM   27  C   UNL     1     -42.884  56.811 -59.922  1.00  0.00     0.029 A 
HETATM   28  C   UNL     1     -43.233  55.471 -59.694  1.00  0.00     0.002 A 
HETATM   29  C   UNL     1     -44.564  55.080 -59.720  1.00  0.00     0.000 A 
HETATM   30  C   UNL     1     -45.540  56.023 -59.998  1.00  0.00     0.002 A 
HETATM   31  C   UNL     1     -45.182  57.359 -60.225  1.00  0.00     0.029 A 
ENDBRANCH  23  26
ENDBRANCH  18  19
ENDBRANCH  17  18
ENDBRANCH  14  17
ENDBRANCH   2  13
BRANCH   2  32
HETATM   32  O   UNL     1     -44.334  59.421 -53.587  1.00  0.00    -0.359 OA
HETATM   33  H   UNL     1     -43.946  60.021 -54.248  1.00  0.00     0.213 HD
ENDBRANCH   2  32
BRANCH   1  34
HETATM   34  C   UNL     1     -43.008  56.755 -52.704  1.00  0.00     0.076 A 
HETATM   35  C   UNL     1     -41.872  56.085 -52.205  1.00  0.00     0.098 A 
HETATM   36  C   UNL     1     -41.462  54.892 -52.804  1.00  0.00     0.075 A 
HETATM   37  C   UNL     1     -42.205  54.345 -53.851  1.00  0.00     0.070 A 
HETATM   38  C   UNL     1     -43.328  55.001 -54.348  1.00  0.00     0.039 A 
HETATM   39  C   UNL     1     -43.738  56.199 -53.765  1.00  0.00     0.035 A 
BRANCH  35  40
HETATM   40  O   UNL     1     -41.285  56.641 -51.101  1.00  0.00    -0.354 OA
HETATM   41  C   UNL     1     -41.344  55.913 -49.881  1.00  0.00     0.210 C 
ENDBRANCH  35  40
BRANCH  37  42
HETATM   42  O   UNL     1     -41.771  53.160 -54.379  1.00  0.00    -0.356 OA
HETATM   43  C   UNL     1     -40.602  52.688 -53.703  1.00  0.00     0.210 C 
ENDBRANCH  37  42
ENDBRANCH   1  34
TORSDOF 9
ENDMDL
MODEL 7
REMARK VINA RESULT:      -8.1      1.329      2.153
REMARK  9 active torsions:
REMARK  status: ('A' for Active; 'I' for Inactive)
REMARK    1  A    between atoms: O_2  and  C_3 
REMARK    2  A    between atoms: C_5  and  O_6 
REMARK    3  A    between atoms: C_8  and  N_9 
REMARK    4  A    between atoms: C_10  and  C_12 
REMARK    5  A    between atoms: C_10  and  O_11 
REMARK       I    between atoms: C_12  and  N_13 
REMARK    6  A    between atoms: N_13  and  C_14 
REMARK    7  A    between atoms: C_14  and  C_15 
REMARK    8  A    between atoms: C_15  and  N_16 
REMARK    9  A    between atoms: N_20  and  C_21 
ROOT
HETATM    1  N   UNL     1     -42.019  55.584 -51.908  1.00  0.00    -0.251 N 
HETATM    2  C   UNL     1     -41.950  55.026 -53.262  1.00  0.00     0.256 C 
HETATM    3  C   UNL     1     -41.290  53.654 -53.289  1.00  0.00     0.034 A 
HETATM    4  C   UNL     1     -40.390  53.346 -52.270  1.00  0.00     0.048 A 
HETATM    5  N   UNL     1     -40.228  54.240 -51.218  1.00  0.00    -0.308 N 
HETATM    6  C   UNL     1     -41.027  55.317 -50.977  1.00  0.00     0.330 C 
HETATM    7  O   UNL     1     -40.829  55.977 -49.958  1.00  0.00    -0.246 OA
HETATM    8  C   UNL     1     -41.452  52.720 -54.327  1.00  0.00     0.015 A 
HETATM    9  C   UNL     1     -40.730  51.523 -54.337  1.00  0.00     0.001 A 
HETATM   10  C   UNL     1     -39.826  51.247 -53.317  1.00  0.00     0.002 A 
HETATM   11  C   UNL     1     -39.652  52.161 -52.280  1.00  0.00     0.030 A 
HETATM   12  H   UNL     1     -39.573  54.031 -50.473  1.00  0.00     0.170 HD
ENDROOT
BRANCH   2  13
HETATM   13  C   UNL     1     -43.361  54.973 -54.030  1.00  0.00     0.279 C 
HETATM   14  N   UNL     1     -43.603  55.669 -55.190  1.00  0.00    -0.355 N 
HETATM   15  H   UNL     1     -44.592  55.645 -55.419  1.00  0.00     0.162 HD
HETATM   16  O   UNL     1     -44.316  54.283 -53.652  1.00  0.00    -0.268 OA
BRANCH  14  17
HETATM   17  C   UNL     1     -42.717  56.430 -56.053  1.00  0.00     0.150 C 
BRANCH  17  18
HETATM   18  C   UNL     1     -42.110  55.639 -57.235  1.00  0.00     0.254 C 
BRANCH  18  19
HETATM   19  N   UNL     1     -42.482  56.180 -58.618  1.00  0.00    -0.067 N 
HETATM   20  H   UNL     1     -41.778  55.878 -59.301  1.00  0.00     0.280 HD
HETATM   21  C   UNL     1     -43.832  55.554 -59.043  1.00  0.00     0.254 C 
HETATM   22  C   UNL     1     -44.373  56.166 -60.353  1.00  0.00     0.150 C 
HETATM   23  N   UNL     1     -44.447  57.636 -60.252  1.00  0.00    -0.378 N 
HETATM   24  C   UNL     1     -43.113  58.223 -60.011  1.00  0.00     0.150 C 
HETATM   25  C   UNL     1     -42.546  57.717 -58.667  1.00  0.00     0.254 C 
BRANCH  23  26
HETATM   26  C   UNL     1     -45.541  58.242 -59.610  1.00  0.00     0.030 A 
HETATM   27  C   UNL     1     -46.153  57.709 -58.462  1.00  0.00     0.029 A 
HETATM   28  C   UNL     1     -47.226  58.347 -57.823  1.00  0.00     0.002 A 
HETATM   29  C   UNL     1     -47.739  59.532 -58.330  1.00  0.00     0.000 A 
HETATM   30  C   UNL     1     -47.194  60.062 -59.489  1.00  0.00     0.002 A 
HETATM   31  C   UNL     1     -46.123  59.418 -60.121  1.00  0.00     0.029 A 
ENDBRANCH  23  26
ENDBRANCH  18  19
ENDBRANCH  17  18
ENDBRANCH  14  17
ENDBRANCH   2  13
BRANCH   2  32
HETATM   32  O   UNL     1     -41.022  55.862 -53.969  1.00  0.00    -0.359 OA
HETATM   33  H   UNL     1     -41.602  56.386 -54.549  1.00  0.00     0.213 HD
ENDBRANCH   2  32
BRANCH   1  34
HETATM   34  C   UNL     1     -42.907  56.669 -51.635  1.00  0.00     0.076 A 
HETATM   35  C   UNL     1     -42.540  57.984 -51.983  1.00  0.00     0.098 A 
HETATM   36  C   UNL     1     -43.452  59.024 -51.792  1.00  0.00     0.075 A 
HETATM   37  C   UNL     1     -44.732  58.749 -51.309  1.00  0.00     0.070 A 
HETATM   38  C   UNL     1     -45.101  57.452 -50.963  1.00  0.00     0.039 A 
HETATM   39  C   UNL     1     -44.193  56.409 -51.138  1.00  0.00     0.035 A 
BRANCH  35  40
HETATM   40  O   UNL     1     -41.306  58.130 -52.559  1.00  0.00    -0.354 OA
HETATM   41  C   UNL     1     -40.353  58.943 -51.886  1.00  0.00     0.210 C 
ENDBRANCH  35  40
BRANCH  37  42
HETATM   42  O   UNL     1     -45.592  59.804 -51.169  1.00  0.00    -0.356 OA
HETATM   43  C   UNL     1     -44.881  61.041 -51.060  1.00  0.00     0.210 C 
ENDBRANCH  37  42
ENDBRANCH   1  34
TORSDOF 9
ENDMDL
MODEL 8
REMARK VINA RESULT:      -8.1      3.782      9.202
REMARK  9 active torsions:
REMARK  status: ('A' for Active; 'I' for Inactive)
REMARK    1  A    between atoms: O_2  and  C_3 
REMARK    2  A    between atoms: C_5  and  O_6 
REMARK    3  A    between atoms: C_8  and  N_9 
REMARK    4  A    between atoms: C_10  and  C_12 
REMARK    5  A    between atoms: C_10  and  O_11 
REMARK       I    between atoms: C_12  and  N_13 
REMARK    6  A    between atoms: N_13  and  C_14 
REMARK    7  A    between atoms: C_14  and  C_15 
REMARK    8  A    between atoms: C_15  and  N_16 
REMARK    9  A    between atoms: N_20  and  C_21 
ROOT
HETATM    1  N   UNL     1     -43.977  60.178 -60.022  1.00  0.00    -0.251 N 
HETATM    2  C   UNL     1     -43.962  58.858 -59.384  1.00  0.00     0.256 C 
HETATM    3  C   UNL     1     -45.061  57.947 -59.915  1.00  0.00     0.034 A 
HETATM    4  C   UNL     1     -46.203  58.547 -60.444  1.00  0.00     0.048 A 
HETATM    5  N   UNL     1     -46.239  59.930 -60.579  1.00  0.00    -0.308 N 
HETATM    6  C   UNL     1     -45.168  60.759 -60.429  1.00  0.00     0.330 C 
HETATM    7  O   UNL     1     -45.317  61.957 -60.665  1.00  0.00    -0.246 OA
HETATM    8  C   UNL     1     -45.043  56.545 -59.813  1.00  0.00     0.015 A 
HETATM    9  C   UNL     1     -46.137  55.779 -60.227  1.00  0.00     0.001 A 
HETATM   10  C   UNL     1     -47.270  56.404 -60.737  1.00  0.00     0.002 A 
HETATM   11  C   UNL     1     -47.307  57.792 -60.845  1.00  0.00     0.030 A 
HETATM   12  H   UNL     1     -47.065  60.379 -60.958  1.00  0.00     0.170 HD
ENDROOT
BRANCH   2  13
HETATM   13  C   UNL     1     -42.544  58.105 -59.451  1.00  0.00     0.279 C 
HETATM   14  N   UNL     1     -41.864  57.698 -58.327  1.00  0.00    -0.355 N 
HETATM   15  H   UNL     1     -40.922  57.405 -58.569  1.00  0.00     0.162 HD
HETATM   16  O   UNL     1     -41.978  57.811 -60.511  1.00  0.00    -0.268 OA
BRANCH  14  17
HETATM   17  C   UNL     1     -42.253  57.676 -56.928  1.00  0.00     0.150 C 
BRANCH  17  18
HETATM   18  C   UNL     1     -42.784  56.318 -56.413  1.00  0.00     0.254 C 
BRANCH  18  19
HETATM   19  N   UNL     1     -42.728  56.151 -54.893  1.00  0.00    -0.067 N 
HETATM   20  H   UNL     1     -43.241  56.921 -54.448  1.00  0.00     0.280 HD
HETATM   21  C   UNL     1     -43.454  54.838 -54.515  1.00  0.00     0.254 C 
HETATM   22  C   UNL     1     -43.306  54.498 -53.016  1.00  0.00     0.150 C 
HETATM   23  N   UNL     1     -41.886  54.483 -52.621  1.00  0.00    -0.378 N 
HETATM   24  C   UNL     1     -41.257  55.802 -52.837  1.00  0.00     0.150 C 
HETATM   25  C   UNL     1     -41.293  56.168 -54.336  1.00  0.00     0.254 C 
BRANCH  23  26
HETATM   26  C   UNL     1     -41.097  53.347 -52.875  1.00  0.00     0.030 A 
HETATM   27  C   UNL     1     -41.103  52.664 -54.104  1.00  0.00     0.029 A 
HETATM   28  C   UNL     1     -40.287  51.549 -54.342  1.00  0.00     0.002 A 
HETATM   29  C   UNL     1     -39.453  51.064 -53.344  1.00  0.00     0.000 A 
HETATM   30  C   UNL     1     -39.457  51.681 -52.103  1.00  0.00     0.002 A 
HETATM   31  C   UNL     1     -40.276  52.794 -51.873  1.00  0.00     0.029 A 
ENDBRANCH  23  26
ENDBRANCH  18  19
ENDBRANCH  17  18
ENDBRANCH  14  17
ENDBRANCH   2  13
BRANCH   2  32
HETATM   32  O   UNL     1     -44.346  59.092 -58.021  1.00  0.00    -0.359 OA
HETATM   33  H   UNL     1     -45.301  59.265 -58.093  1.00  0.00     0.213 HD
ENDBRANCH   2  32
BRANCH   1  34
HETATM   34  C   UNL     1     -42.829  61.022 -59.925  1.00  0.00     0.076 A 
HETATM   35  C   UNL     1     -42.019  61.242 -61.057  1.00  0.00     0.098 A 
HETATM   36  C   UNL     1     -40.951  62.139 -60.973  1.00  0.00     0.075 A 
HETATM   37  C   UNL     1     -40.728  62.847 -59.791  1.00  0.00     0.070 A 
HETATM   38  C   UNL     1     -41.525  62.635 -58.670  1.00  0.00     0.039 A 
HETATM   39  C   UNL     1     -42.585  61.733 -58.740  1.00  0.00     0.035 A 
BRANCH  35  40
HETATM   40  O   UNL     1     -42.395  60.589 -62.200  1.00  0.00    -0.354 OA
HETATM   41  C   UNL     1     -42.530  61.358 -63.389  1.00  0.00     0.210 C 
ENDBRANCH  35  40
BRANCH  37  42
HETATM   42  O   UNL     1     -39.684  63.732 -59.776  1.00  0.00    -0.356 OA
HETATM   43  C   UNL     1     -39.610  64.425 -58.526  1.00  0.00     0.210 C 
ENDBRANCH  37  42
ENDBRANCH   1  34
TORSDOF 9
ENDMDL
MODEL 9
REMARK VINA RESULT:      -8.0      1.880      5.520
REMARK  9 active torsions:
REMARK  status: ('A' for Active; 'I' for Inactive)
REMARK    1  A    between atoms: O_2  and  C_3 
REMARK    2  A    between atoms: C_5  and  O_6 
REMARK    3  A    between atoms: C_8  and  N_9 
REMARK    4  A    between atoms: C_10  and  C_12 
REMARK    5  A    between atoms: C_10  and  O_11 
REMARK       I    between atoms: C_12  and  N_13 
REMARK    6  A    between atoms: N_13  and  C_14 
REMARK    7  A    between atoms: C_14  and  C_15 
REMARK    8  A    between atoms: C_15  and  N_16 
REMARK    9  A    between atoms: N_20  and  C_21 
ROOT
HETATM    1  N   UNL     1     -42.994  55.845 -51.860  1.00  0.00    -0.251 N 
HETATM    2  C   UNL     1     -43.133  56.968 -52.793  1.00  0.00     0.256 C 
HETATM    3  C   UNL     1     -43.871  58.146 -52.172  1.00  0.00     0.034 A 
HETATM    4  C   UNL     1     -44.758  57.881 -51.129  1.00  0.00     0.048 A 
HETATM    5  N   UNL     1     -44.838  56.589 -50.622  1.00  0.00    -0.308 N 
HETATM    6  C   UNL     1     -43.972  55.579 -50.914  1.00  0.00     0.330 C 
HETATM    7  O   UNL     1     -44.102  54.506 -50.326  1.00  0.00    -0.246 OA
HETATM    8  C   UNL     1     -43.793  59.467 -52.648  1.00  0.00     0.015 A 
HETATM    9  C   UNL     1     -44.582  60.479 -52.095  1.00  0.00     0.001 A 
HETATM   10  C   UNL     1     -45.471  60.184 -51.066  1.00  0.00     0.002 A 
HETATM   11  C   UNL     1     -45.562  58.882 -50.581  1.00  0.00     0.030 A 
HETATM   12  H   UNL     1     -45.481  56.382 -49.867  1.00  0.00     0.170 HD
ENDROOT
BRANCH   2  13
HETATM   13  C   UNL     1     -41.750  57.466 -53.443  1.00  0.00     0.279 C 
HETATM   14  N   UNL     1     -41.593  57.667 -54.793  1.00  0.00    -0.355 N 
HETATM   15  H   UNL     1     -40.613  57.808 -55.020  1.00  0.00     0.162 HD
HETATM   16  O   UNL     1     -40.742  57.731 -52.777  1.00  0.00    -0.268 OA
BRANCH  14  17
HETATM   17  C   UNL     1     -42.555  57.656 -55.881  1.00  0.00     0.150 C 
BRANCH  17  18
HETATM   18  C   UNL     1     -42.665  56.320 -56.652  1.00  0.00     0.254 C 
BRANCH  18  19
HETATM   19  N   UNL     1     -43.671  56.333 -57.805  1.00  0.00    -0.067 N 
HETATM   20  H   UNL     1     -44.315  55.540 -57.703  1.00  0.00     0.280 HD
HETATM   21  C   UNL     1     -44.516  57.626 -57.703  1.00  0.00     0.254 C 
HETATM   22  C   UNL     1     -45.449  57.811 -58.920  1.00  0.00     0.150 C 
HETATM   23  N   UNL     1     -44.686  57.741 -60.180  1.00  0.00    -0.378 N 
HETATM   24  C   UNL     1     -44.022  56.430 -60.330  1.00  0.00     0.150 C 
HETATM   25  C   UNL     1     -43.007  56.215 -59.187  1.00  0.00     0.254 C 
BRANCH  23  26
HETATM   26  C   UNL     1     -43.988  58.871 -60.643  1.00  0.00     0.030 A 
HETATM   27  C   UNL     1     -44.626  60.021 -61.137  1.00  0.00     0.029 A 
HETATM   28  C   UNL     1     -43.907  61.146 -61.569  1.00  0.00     0.002 A 
HETATM   29  C   UNL     1     -42.520  61.145 -61.541  1.00  0.00     0.000 A 
HETATM   30  C   UNL     1     -41.855  60.009 -61.107  1.00  0.00     0.002 A 
HETATM   31  C   UNL     1     -42.581  58.890 -60.678  1.00  0.00     0.029 A 
ENDBRANCH  23  26
ENDBRANCH  18  19
ENDBRANCH  17  18
ENDBRANCH  14  17
ENDBRANCH   2  13
BRANCH   2  32
HETATM   32  O   UNL     1     -44.031  56.504 -53.811  1.00  0.00    -0.359 OA
HETATM   33  H   UNL     1     -43.786  57.048 -54.581  1.00  0.00     0.213 HD
ENDBRANCH   2  32
BRANCH   1  34
HETATM   34  C   UNL     1     -42.037  54.818 -52.128  1.00  0.00     0.076 A 
HETATM   35  C   UNL     1     -40.985  54.582 -51.221  1.00  0.00     0.098 A 
HETATM   36  C   UNL     1     -40.108  53.519 -51.450  1.00  0.00     0.075 A 
HETATM   37  C   UNL     1     -40.311  52.669 -52.538  1.00  0.00     0.070 A 
HETATM   38  C   UNL     1     -41.349  52.897 -53.438  1.00  0.00     0.039 A 
HETATM   39  C   UNL     1     -42.222  53.964 -53.226  1.00  0.00     0.035 A 
BRANCH  35  40
HETATM   40  O   UNL     1     -40.944  55.398 -50.123  1.00  0.00    -0.354 OA
HETATM   41  C   UNL     1     -40.952  54.784 -48.840  1.00  0.00     0.210 C 
ENDBRANCH  35  40
BRANCH  37  42
HETATM   42  O   UNL     1     -39.438  51.628 -52.696  1.00  0.00    -0.356 OA
HETATM   43  C   UNL     1     -39.487  50.736 -51.579  1.00  0.00     0.210 C 
ENDBRANCH  37  42
ENDBRANCH   1  34
TORSDOF 9
ENDMDL
MODEL 10
REMARK VINA RESULT:      -7.9      2.741      7.723
REMARK  9 active torsions:
REMARK  status: ('A' for Active; 'I' for Inactive)
REMARK    1  A    between atoms: O_2  and  C_3 
REMARK    2  A    between atoms: C_5  and  O_6 
REMARK    3  A    between atoms: C_8  and  N_9 
REMARK    4  A    between atoms: C_10  and  C_12 
REMARK    5  A    between atoms: C_10  and  O_11 
REMARK       I    between atoms: C_12  and  N_13 
REMARK    6  A    between atoms: N_13  and  C_14 
REMARK    7  A    between atoms: C_14  and  C_15 
REMARK    8  A    between atoms: C_15  and  N_16 
REMARK    9  A    between atoms: N_20  and  C_21 
ROOT
HETATM    1  N   UNL     1     -44.926  58.952 -57.698  1.00  0.00    -0.251 N 
HETATM    2  C   UNL     1     -44.200  57.679 -57.752  1.00  0.00     0.256 C 
HETATM    3  C   UNL     1     -44.619  56.826 -58.943  1.00  0.00     0.034 A 
HETATM    4  C   UNL     1     -45.898  57.020 -59.464  1.00  0.00     0.048 A 
HETATM    5  N   UNL     1     -46.681  58.055 -58.965  1.00  0.00    -0.308 N 
HETATM    6  C   UNL     1     -46.237  59.044 -58.139  1.00  0.00     0.330 C 
HETATM    7  O   UNL     1     -47.012  59.952 -57.843  1.00  0.00    -0.246 OA
HETATM    8  C   UNL     1     -43.840  55.788 -59.484  1.00  0.00     0.015 A 
HETATM    9  C   UNL     1     -44.335  54.977 -60.509  1.00  0.00     0.001 A 
HETATM   10  C   UNL     1     -45.620  55.181 -61.000  1.00  0.00     0.002 A 
HETATM   11  C   UNL     1     -46.406  56.205 -60.476  1.00  0.00     0.030 A 
HETATM   12  H   UNL     1     -47.614  58.204 -59.331  1.00  0.00     0.170 HD
ENDROOT
BRANCH   2  13
HETATM   13  C   UNL     1     -42.601  57.825 -57.717  1.00  0.00     0.279 C 
HETATM   14  N   UNL     1     -41.841  57.422 -56.644  1.00  0.00    -0.355 N 
HETATM   15  H   UNL     1     -40.886  57.755 -56.740  1.00  0.00     0.162 HD
HETATM   16  O   UNL     1     -41.937  58.281 -58.656  1.00  0.00    -0.268 OA
BRANCH  14  17
HETATM   17  C   UNL     1     -42.193  56.681 -55.446  1.00  0.00     0.150 C 
BRANCH  17  18
HETATM   18  C   UNL     1     -42.356  57.535 -54.167  1.00  0.00     0.254 C 
BRANCH  18  19
HETATM   19  N   UNL     1     -42.423  56.726 -52.869  1.00  0.00    -0.067 N 
HETATM   20  H   UNL     1     -42.953  57.254 -52.167  1.00  0.00     0.280 HD
HETATM   21  C   UNL     1     -43.204  55.418 -53.145  1.00  0.00     0.254 C 
HETATM   22  C   UNL     1     -43.182  54.458 -51.937  1.00  0.00     0.150 C 
HETATM   23  N   UNL     1     -41.797  54.198 -51.500  1.00  0.00    -0.378 N 
HETATM   24  C   UNL     1     -41.126  55.447 -51.082  1.00  0.00     0.150 C 
HETATM   25  C   UNL     1     -41.037  56.425 -52.272  1.00  0.00     0.254 C 
BRANCH  23  26
HETATM   26  C   UNL     1     -41.015  53.244 -52.172  1.00  0.00     0.030 A 
HETATM   27  C   UNL     1     -41.080  53.034 -53.561  1.00  0.00     0.029 A 
HETATM   28  C   UNL     1     -40.269  52.093 -54.213  1.00  0.00     0.002 A 
HETATM   29  C   UNL     1     -39.381  51.312 -53.488  1.00  0.00     0.000 A 
HETATM   30  C   UNL     1     -39.324  51.455 -52.111  1.00  0.00     0.002 A 
HETATM   31  C   UNL     1     -40.138  52.397 -51.467  1.00  0.00     0.029 A 
ENDBRANCH  23  26
ENDBRANCH  18  19
ENDBRANCH  17  18
ENDBRANCH  14  17
ENDBRANCH   2  13
BRANCH   2  32
HETATM   32  O   UNL     1     -44.665  56.930 -56.620  1.00  0.00    -0.359 OA
HETATM   33  H   UNL     1     -43.867  56.448 -56.337  1.00  0.00     0.213 HD
ENDBRANCH   2  32
BRANCH   1  34
HETATM   34  C   UNL     1     -44.426  60.016 -56.887  1.00  0.00     0.076 A 
HETATM   35  C   UNL     1     -43.791  61.121 -57.488  1.00  0.00     0.098 A 
HETATM   36  C   UNL     1     -43.385  62.195 -56.692  1.00  0.00     0.075 A 
HETATM   37  C   UNL     1     -43.658  62.191 -55.324  1.00  0.00     0.070 A 
HETATM   38  C   UNL     1     -44.285  61.103 -54.724  1.00  0.00     0.039 A 
HETATM   39  C   UNL     1     -44.682  60.020 -55.507  1.00  0.00     0.035 A 
BRANCH  35  40
HETATM   40  O   UNL     1     -43.678  61.079 -58.851  1.00  0.00    -0.354 OA
HETATM   41  C   UNL     1     -44.427  62.023 -59.608  1.00  0.00     0.210 C 
ENDBRANCH  35  40
BRANCH  37  42
HETATM   42  O   UNL     1     -43.262  63.283 -54.600  1.00  0.00    -0.356 OA
HETATM   43  C   UNL     1     -43.259  63.002 -53.197  1.00  0.00     0.210 C 
ENDBRANCH  37  42
ENDBRANCH   1  34
TORSDOF 9
ENDMDL
