MODEL 1
REMARK VINA RESULT:      -8.3      0.000      0.000
REMARK  3 active torsions:
REMARK  status: ('A' for Active; 'I' for Inactive)
REMARK    1  A    between atoms: C_2  and  N_3 
REMARK       I    between atoms: N_3  and  C_4 
REMARK    2  A    between atoms: C_4  and  C_5 
REMARK    3  A    between atoms: C_5  and  C_6 
ROOT
HETATM    1  C   UNL     1     -42.508  55.826 -51.069  1.00  0.00     0.286 C 
HETATM    2  N   UNL     1     -41.152  56.497 -50.877  1.00  0.00    -0.056 N 
HETATM    3  H   UNL     1     -41.052  56.615 -49.846  1.00  0.00     0.278 HD
HETATM    4  H   UNL     1     -40.384  55.881 -51.169  1.00  0.00     0.278 HD
HETATM    5  C   UNL     1     -41.029  57.859 -51.502  1.00  0.00     0.209 C 
HETATM    6  C   UNL     1     -42.191  58.754 -51.006  1.00  0.00     0.115 C 
HETATM    7  N   UNL     1     -43.498  58.108 -51.125  1.00  0.00    -0.353 N 
HETATM    8  C   UNL     1     -43.701  56.777 -50.840  1.00  0.00     0.249 C 
HETATM    9  O   UNL     1     -44.815  56.376 -50.523  1.00  0.00    -0.271 OA
HETATM   10  C   UNL     1     -40.968  57.736 -53.026  1.00  0.00     0.035 C 
HETATM   11  C   UNL     1     -40.933  59.112 -53.684  1.00  0.00     0.002 C 
HETATM   12  C   UNL     1     -42.116  59.971 -53.243  1.00  0.00     0.002 C 
HETATM   13  C   UNL     1     -42.179  60.109 -51.722  1.00  0.00     0.027 C 
HETATM   14  H   UNL     1     -44.321  58.671 -50.914  1.00  0.00     0.163 HD
ENDROOT
BRANCH   1  15
HETATM   15  C   UNL     1     -42.619  54.559 -50.206  1.00  0.00     0.146 C 
BRANCH  15  16
HETATM   16  C   UNL     1     -41.341  54.319 -49.444  1.00  0.00     0.224 C 
HETATM   17  N   UNL     1     -40.403  53.426 -49.850  1.00  0.00    -0.327 N 
HETATM   18  H   UNL     1     -39.671  53.313 -49.154  1.00  0.00     0.169 HD
HETATM   19  O   UNL     1     -41.126  54.999 -48.430  1.00  0.00    -0.273 OA
BRANCH  17  20
HETATM   20  C   UNL     1     -40.229  52.654 -51.017  1.00  0.00     0.034 A 
HETATM   21  C   UNL     1     -40.322  53.129 -52.326  1.00  0.00     0.031 A 
HETATM   22  C   UNL     1     -40.091  52.273 -53.413  1.00  0.00     0.026 A 
HETATM   23  C   UNL     1     -39.759  50.939 -53.198  1.00  0.00     0.034 A 
HETATM   24  C   UNL     1     -39.655  50.452 -51.902  1.00  0.00     0.026 A 
HETATM   25 CL   UNL     1     -39.466  49.903 -54.536  1.00  0.00    -0.084 Cl
HETATM   26  C   UNL     1     -39.884  51.308 -50.820  1.00  0.00     0.031 A 
ENDBRANCH  17  20
ENDBRANCH  15  16
ENDBRANCH   1  15
TORSDOF 3
ENDMDL
MODEL 2
REMARK VINA RESULT:      -7.8      2.350      3.135
REMARK  3 active torsions:
REMARK  status: ('A' for Active; 'I' for Inactive)
REMARK    1  A    between atoms: C_2  and  N_3 
REMARK       I    between atoms: N_3  and  C_4 
REMARK    2  A    between atoms: C_4  and  C_5 
REMARK    3  A    between atoms: C_5  and  C_6 
ROOT
HETATM    1  C   UNL     1     -43.021  55.971 -53.103  1.00  0.00     0.286 C 
HETATM    2  N   UNL     1     -41.824  56.766 -53.615  1.00  0.00    -0.056 N 
HETATM    3  H   UNL     1     -41.019  56.106 -53.564  1.00  0.00     0.278 HD
HETATM    4  H   UNL     1     -41.931  57.008 -54.607  1.00  0.00     0.278 HD
HETATM    5  C   UNL     1     -41.471  57.973 -52.791  1.00  0.00     0.209 C 
HETATM    6  C   UNL     1     -41.292  57.547 -51.313  1.00  0.00     0.115 C 
HETATM    7  N   UNL     1     -42.401  56.733 -50.817  1.00  0.00    -0.353 N 
HETATM    8  C   UNL     1     -43.008  55.758 -51.576  1.00  0.00     0.249 C 
HETATM    9  O   UNL     1     -43.595  54.829 -51.032  1.00  0.00    -0.271 OA
HETATM   10  C   UNL     1     -42.524  59.067 -52.983  1.00  0.00     0.035 C 
HETATM   11  C   UNL     1     -42.233  60.267 -52.086  1.00  0.00     0.002 C 
HETATM   12  C   UNL     1     -42.120  59.855 -50.620  1.00  0.00     0.002 C 
HETATM   13  C   UNL     1     -41.063  58.770 -50.418  1.00  0.00     0.027 C 
HETATM   14  H   UNL     1     -42.405  56.499 -49.826  1.00  0.00     0.163 HD
ENDROOT
BRANCH   1  15
HETATM   15  C   UNL     1     -43.158  54.641 -53.861  1.00  0.00     0.146 C 
BRANCH  15  16
HETATM   16  C   UNL     1     -42.110  54.529 -54.938  1.00  0.00     0.224 C 
HETATM   17  N   UNL     1     -40.971  53.807 -54.779  1.00  0.00    -0.327 N 
HETATM   18  H   UNL     1     -40.333  53.943 -55.559  1.00  0.00     0.169 HD
HETATM   19  O   UNL     1     -42.323  55.086 -56.024  1.00  0.00    -0.273 OA
BRANCH  17  20
HETATM   20  C   UNL     1     -40.509  52.915 -53.790  1.00  0.00     0.034 A 
HETATM   21  C   UNL     1     -40.358  53.212 -52.434  1.00  0.00     0.031 A 
HETATM   22  C   UNL     1     -39.924  52.229 -51.533  1.00  0.00     0.026 A 
HETATM   23  C   UNL     1     -39.645  50.941 -51.980  1.00  0.00     0.034 A 
HETATM   24  C   UNL     1     -39.797  50.626 -53.323  1.00  0.00     0.026 A 
HETATM   25 CL   UNL     1     -39.126  49.742 -50.865  1.00  0.00    -0.084 Cl
HETATM   26  C   UNL     1     -40.231  51.608 -54.220  1.00  0.00     0.031 A 
ENDBRANCH  17  20
ENDBRANCH  15  16
ENDBRANCH   1  15
TORSDOF 3
ENDMDL
MODEL 3
REMARK VINA RESULT:      -7.6      1.519      2.135
REMARK  3 active torsions:
REMARK  status: ('A' for Active; 'I' for Inactive)
REMARK    1  A    between atoms: C_2  and  N_3 
REMARK       I    between atoms: N_3  and  C_4 
REMARK    2  A    between atoms: C_4  and  C_5 
REMARK    3  A    between atoms: C_5  and  C_6 
ROOT
HETATM    1  C   UNL     1     -42.756  55.724 -51.556  1.00  0.00     0.286 C 
HETATM    2  N   UNL     1     -43.380  56.827 -50.707  1.00  0.00    -0.056 N 
HETATM    3  H   UNL     1     -44.273  56.422 -50.352  1.00  0.00     0.278 HD
HETATM    4  H   UNL     1     -42.810  57.030 -49.877  1.00  0.00     0.278 HD
HETATM    5  C   UNL     1     -43.720  58.084 -51.459  1.00  0.00     0.209 C 
HETATM    6  C   UNL     1     -44.604  57.725 -52.679  1.00  0.00     0.115 C 
HETATM    7  N   UNL     1     -44.055  56.628 -53.476  1.00  0.00    -0.353 N 
HETATM    8  C   UNL     1     -43.460  55.522 -52.913  1.00  0.00     0.249 C 
HETATM    9  O   UNL     1     -43.415  54.464 -53.531  1.00  0.00    -0.271 OA
HETATM   10  C   UNL     1     -42.442  58.834 -51.837  1.00  0.00     0.035 C 
HETATM   11  C   UNL     1     -42.760  60.067 -52.678  1.00  0.00     0.002 C 
HETATM   12  C   UNL     1     -43.577  59.702 -53.915  1.00  0.00     0.002 C 
HETATM   13  C   UNL     1     -44.862  58.962 -53.547  1.00  0.00     0.027 C 
HETATM   14  H   UNL     1     -44.526  56.402 -54.350  1.00  0.00     0.163 HD
ENDROOT
BRANCH   1  15
HETATM   15  C   UNL     1     -42.663  54.410 -50.764  1.00  0.00     0.146 C 
BRANCH  15  16
HETATM   16  C   UNL     1     -41.398  54.369 -49.946  1.00  0.00     0.224 C 
HETATM   17  N   UNL     1     -40.401  53.478 -50.182  1.00  0.00    -0.327 N 
HETATM   18  H   UNL     1     -39.686  53.521 -49.462  1.00  0.00     0.169 HD
HETATM   19  O   UNL     1     -41.250  55.213 -49.050  1.00  0.00    -0.273 OA
BRANCH  17  20
HETATM   20  C   UNL     1     -40.151  52.541 -51.206  1.00  0.00     0.034 A 
HETATM   21  C   UNL     1     -39.804  51.202 -51.015  1.00  0.00     0.031 A 
HETATM   22  C   UNL     1     -39.615  50.351 -52.115  1.00  0.00     0.026 A 
HETATM   23  C   UNL     1     -39.778  50.831 -53.410  1.00  0.00     0.034 A 
HETATM   24  C   UNL     1     -40.130  52.158 -53.618  1.00  0.00     0.026 A 
HETATM   25 CL   UNL     1     -39.555  49.777 -54.748  1.00  0.00    -0.084 Cl
HETATM   26  C   UNL     1     -40.319  53.004 -52.520  1.00  0.00     0.031 A 
ENDBRANCH  17  20
ENDBRANCH  15  16
ENDBRANCH   1  15
TORSDOF 3
ENDMDL
MODEL 4
REMARK VINA RESULT:      -7.5     14.857     17.118
REMARK  3 active torsions:
REMARK  status: ('A' for Active; 'I' for Inactive)
REMARK    1  A    between atoms: C_2  and  N_3 
REMARK       I    between atoms: N_3  and  C_4 
REMARK    2  A    between atoms: C_4  and  C_5 
REMARK    3  A    between atoms: C_5  and  C_6 
ROOT
HETATM    1  C   UNL     1     -34.526  40.885 -53.717  1.00  0.00     0.286 C 
HETATM    2  N   UNL     1     -34.393  41.759 -52.473  1.00  0.00    -0.056 N 
HETATM    3  H   UNL     1     -33.837  42.585 -52.782  1.00  0.00     0.278 HD
HETATM    4  H   UNL     1     -35.304  42.126 -52.173  1.00  0.00     0.278 HD
HETATM    5  C   UNL     1     -33.657  41.119 -51.330  1.00  0.00     0.209 C 
HETATM    6  C   UNL     1     -32.281  40.612 -51.829  1.00  0.00     0.115 C 
HETATM    7  N   UNL     1     -32.377  39.821 -53.055  1.00  0.00    -0.353 N 
HETATM    8  C   UNL     1     -33.225  40.147 -54.089  1.00  0.00     0.249 C 
HETATM    9  O   UNL     1     -32.984  39.763 -55.229  1.00  0.00    -0.271 OA
HETATM   10  C   UNL     1     -34.515  40.020 -50.700  1.00  0.00     0.035 C 
HETATM   11  C   UNL     1     -33.751  39.297 -49.595  1.00  0.00     0.002 C 
HETATM   12  C   UNL     1     -32.423  38.742 -50.105  1.00  0.00     0.002 C 
HETATM   13  C   UNL     1     -31.554  39.835 -50.726  1.00  0.00     0.027 C 
HETATM   14  H   UNL     1     -31.527  39.368 -53.389  1.00  0.00     0.163 HD
ENDROOT
BRANCH   1  15
HETATM   15  C   UNL     1     -35.076  41.697 -54.900  1.00  0.00     0.146 C 
BRANCH  15  16
HETATM   16  C   UNL     1     -36.503  42.110 -54.647  1.00  0.00     0.224 C 
HETATM   17  N   UNL     1     -37.453  42.097 -55.617  1.00  0.00    -0.327 N 
HETATM   18  H   UNL     1     -38.320  42.517 -55.294  1.00  0.00     0.169 HD
HETATM   19  O   UNL     1     -36.825  42.433 -53.494  1.00  0.00    -0.273 OA
BRANCH  17  20
HETATM   20  C   UNL     1     -37.490  41.616 -56.941  1.00  0.00     0.034 A 
HETATM   21  C   UNL     1     -36.975  42.274 -58.060  1.00  0.00     0.031 A 
HETATM   22  C   UNL     1     -37.036  41.678 -59.329  1.00  0.00     0.026 A 
HETATM   23  C   UNL     1     -37.605  40.419 -59.486  1.00  0.00     0.034 A 
HETATM   24  C   UNL     1     -38.115  39.746 -58.383  1.00  0.00     0.026 A 
HETATM   25 CL   UNL     1     -37.664  39.693 -61.042  1.00  0.00    -0.084 Cl
HETATM   26  C   UNL     1     -38.052  40.342 -57.119  1.00  0.00     0.031 A 
ENDBRANCH  17  20
ENDBRANCH  15  16
ENDBRANCH   1  15
TORSDOF 3
ENDMDL
MODEL 5
REMARK VINA RESULT:      -7.3      2.692      3.374
REMARK  3 active torsions:
REMARK  status: ('A' for Active; 'I' for Inactive)
REMARK    1  A    between atoms: C_2  and  N_3 
REMARK       I    between atoms: N_3  and  C_4 
REMARK    2  A    between atoms: C_4  and  C_5 
REMARK    3  A    between atoms: C_5  and  C_6 
ROOT
HETATM    1  C   UNL     1     -42.801  56.097 -53.466  1.00  0.00     0.286 C 
HETATM    2  N   UNL     1     -42.658  55.988 -51.951  1.00  0.00    -0.056 N 
HETATM    3  H   UNL     1     -43.485  55.435 -51.641  1.00  0.00     0.278 HD
HETATM    4  H   UNL     1     -41.832  55.435 -51.691  1.00  0.00     0.278 HD
HETATM    5  C   UNL     1     -42.691  57.301 -51.219  1.00  0.00     0.209 C 
HETATM    6  C   UNL     1     -43.967  58.079 -51.624  1.00  0.00     0.115 C 
HETATM    7  N   UNL     1     -44.157  58.146 -53.072  1.00  0.00    -0.353 N 
HETATM    8  C   UNL     1     -43.901  57.083 -53.908  1.00  0.00     0.249 C 
HETATM    9  O   UNL     1     -44.461  57.004 -54.996  1.00  0.00    -0.271 OA
HETATM   10  C   UNL     1     -41.399  58.080 -51.477  1.00  0.00     0.035 C 
HETATM   11  C   UNL     1     -41.450  59.455 -50.816  1.00  0.00     0.002 C 
HETATM   12  C   UNL     1     -42.676  60.246 -51.266  1.00  0.00     0.002 C 
HETATM   13  C   UNL     1     -43.972  59.480 -51.002  1.00  0.00     0.027 C 
HETATM   14  H   UNL     1     -44.919  58.726 -53.419  1.00  0.00     0.163 HD
ENDROOT
BRANCH   1  15
HETATM   15  C   UNL     1     -42.993  54.710 -54.098  1.00  0.00     0.146 C 
BRANCH  15  16
HETATM   16  C   UNL     1     -41.968  54.469 -55.177  1.00  0.00     0.224 C 
HETATM   17  N   UNL     1     -40.870  53.694 -54.984  1.00  0.00    -0.327 N 
HETATM   18  H   UNL     1     -40.237  53.743 -55.778  1.00  0.00     0.169 HD
HETATM   19  O   UNL     1     -42.165  54.967 -56.295  1.00  0.00    -0.273 OA
BRANCH  17  20
HETATM   20  C   UNL     1     -40.447  52.842 -53.944  1.00  0.00     0.034 A 
HETATM   21  C   UNL     1     -40.318  53.200 -52.601  1.00  0.00     0.031 A 
HETATM   22  C   UNL     1     -39.922  52.252 -51.645  1.00  0.00     0.026 A 
HETATM   23  C   UNL     1     -39.658  50.940 -52.024  1.00  0.00     0.034 A 
HETATM   24  C   UNL     1     -39.788  50.565 -53.355  1.00  0.00     0.026 A 
HETATM   25 CL   UNL     1     -39.185  49.786 -50.844  1.00  0.00    -0.084 Cl
HETATM   26  C   UNL     1     -40.184  51.511 -54.306  1.00  0.00     0.031 A 
ENDBRANCH  17  20
ENDBRANCH  15  16
ENDBRANCH   1  15
TORSDOF 3
ENDMDL
MODEL 6
REMARK VINA RESULT:      -7.2      4.005      4.619
REMARK  3 active torsions:
REMARK  status: ('A' for Active; 'I' for Inactive)
REMARK    1  A    between atoms: C_2  and  N_3 
REMARK       I    between atoms: N_3  and  C_4 
REMARK    2  A    between atoms: C_4  and  C_5 
REMARK    3  A    between atoms: C_5  and  C_6 
ROOT
HETATM    1  C   UNL     1     -43.570  55.876 -55.133  1.00  0.00     0.286 C 
HETATM    2  N   UNL     1     -42.300  55.973 -55.972  1.00  0.00    -0.056 N 
HETATM    3  H   UNL     1     -41.673  56.613 -55.439  1.00  0.00     0.278 HD
HETATM    4  H   UNL     1     -41.811  55.071 -56.019  1.00  0.00     0.278 HD
HETATM    5  C   UNL     1     -42.492  56.564 -57.340  1.00  0.00     0.209 C 
HETATM    6  C   UNL     1     -43.203  57.933 -57.209  1.00  0.00     0.115 C 
HETATM    7  N   UNL     1     -44.393  57.878 -56.361  1.00  0.00    -0.353 N 
HETATM    8  C   UNL     1     -44.446  57.143 -55.198  1.00  0.00     0.249 C 
HETATM    9  O   UNL     1     -45.238  57.446 -54.312  1.00  0.00    -0.271 OA
HETATM   10  C   UNL     1     -43.239  55.577 -58.240  1.00  0.00     0.035 C 
HETATM   11  C   UNL     1     -43.524  56.193 -59.607  1.00  0.00     0.002 C 
HETATM   12  C   UNL     1     -44.282  57.512 -59.479  1.00  0.00     0.002 C 
HETATM   13  C   UNL     1     -43.538  58.508 -58.591  1.00  0.00     0.027 C 
HETATM   14  H   UNL     1     -44.971  58.715 -56.307  1.00  0.00     0.163 HD
ENDROOT
BRANCH   1  15
HETATM   15  C   UNL     1     -43.241  55.486 -53.684  1.00  0.00     0.146 C 
BRANCH  15  16
HETATM   16  C   UNL     1     -41.917  56.069 -53.262  1.00  0.00     0.224 C 
HETATM   17  N   UNL     1     -40.834  55.300 -52.981  1.00  0.00    -0.327 N 
HETATM   18  H   UNL     1     -40.072  55.855 -52.602  1.00  0.00     0.169 HD
HETATM   19  O   UNL     1     -41.808  57.303 -53.212  1.00  0.00    -0.273 OA
BRANCH  17  20
HETATM   20  C   UNL     1     -40.549  53.926 -53.121  1.00  0.00     0.034 A 
HETATM   21  C   UNL     1     -40.545  53.215 -54.323  1.00  0.00     0.031 A 
HETATM   22  C   UNL     1     -40.208  51.853 -54.344  1.00  0.00     0.026 A 
HETATM   23  C   UNL     1     -39.865  51.196 -53.167  1.00  0.00     0.034 A 
HETATM   24  C   UNL     1     -39.856  51.890 -51.964  1.00  0.00     0.026 A 
HETATM   25 CL   UNL     1     -39.442  49.532 -53.207  1.00  0.00    -0.084 Cl
HETATM   26  C   UNL     1     -40.191  53.248 -51.945  1.00  0.00     0.031 A 
ENDBRANCH  17  20
ENDBRANCH  15  16
ENDBRANCH   1  15
TORSDOF 3
ENDMDL
MODEL 7
REMARK VINA RESULT:      -7.2      4.444      5.947
REMARK  3 active torsions:
REMARK  status: ('A' for Active; 'I' for Inactive)
REMARK    1  A    between atoms: C_2  and  N_3 
REMARK       I    between atoms: N_3  and  C_4 
REMARK    2  A    between atoms: C_4  and  C_5 
REMARK    3  A    between atoms: C_5  and  C_6 
ROOT
HETATM    1  C   UNL     1     -42.350  57.396 -55.490  1.00  0.00     0.286 C 
HETATM    2  N   UNL     1     -43.424  58.097 -56.316  1.00  0.00    -0.056 N 
HETATM    3  H   UNL     1     -44.328  57.716 -55.963  1.00  0.00     0.278 HD
HETATM    4  H   UNL     1     -43.446  59.105 -56.124  1.00  0.00     0.278 HD
HETATM    5  C   UNL     1     -43.363  57.822 -57.793  1.00  0.00     0.209 C 
HETATM    6  C   UNL     1     -43.363  56.291 -58.026  1.00  0.00     0.115 C 
HETATM    7  N   UNL     1     -42.381  55.589 -57.201  1.00  0.00    -0.353 N 
HETATM    8  C   UNL     1     -42.137  55.921 -55.888  1.00  0.00     0.249 C 
HETATM    9  O   UNL     1     -41.672  55.089 -55.117  1.00  0.00    -0.271 OA
HETATM   10  C   UNL     1     -42.155  58.528 -58.410  1.00  0.00     0.035 C 
HETATM   11  C   UNL     1     -42.023  58.189 -59.892  1.00  0.00     0.002 C 
HETATM   12  C   UNL     1     -41.958  56.680 -60.116  1.00  0.00     0.002 C 
HETATM   13  C   UNL     1     -43.167  55.966 -59.512  1.00  0.00     0.027 C 
HETATM   14  H   UNL     1     -42.251  54.593 -57.371  1.00  0.00     0.163 HD
ENDROOT
BRANCH   1  15
HETATM   15  C   UNL     1     -42.633  57.543 -53.987  1.00  0.00     0.146 C 
BRANCH  15  16
HETATM   16  C   UNL     1     -43.888  56.802 -53.604  1.00  0.00     0.224 C 
HETATM   17  N   UNL     1     -43.897  55.802 -52.686  1.00  0.00    -0.327 N 
HETATM   18  H   UNL     1     -44.803  55.343 -52.645  1.00  0.00     0.169 HD
HETATM   19  O   UNL     1     -44.958  57.154 -54.121  1.00  0.00    -0.273 OA
BRANCH  17  20
HETATM   20  C   UNL     1     -42.938  55.293 -51.787  1.00  0.00     0.034 A 
HETATM   21  C   UNL     1     -42.329  54.039 -51.872  1.00  0.00     0.031 A 
HETATM   22  C   UNL     1     -41.356  53.654 -50.937  1.00  0.00     0.026 A 
HETATM   23  C   UNL     1     -40.983  54.521 -49.916  1.00  0.00     0.034 A 
HETATM   24  C   UNL     1     -41.572  55.774 -49.820  1.00  0.00     0.026 A 
HETATM   25 CL   UNL     1     -39.783  54.043 -48.783  1.00  0.00    -0.084 Cl
HETATM   26  C   UNL     1     -42.540  56.157 -50.755  1.00  0.00     0.031 A 
ENDBRANCH  17  20
ENDBRANCH  15  16
ENDBRANCH   1  15
TORSDOF 3
ENDMDL
MODEL 8
REMARK VINA RESULT:      -7.1     14.838     17.558
REMARK  3 active torsions:
REMARK  status: ('A' for Active; 'I' for Inactive)
REMARK    1  A    between atoms: C_2  and  N_3 
REMARK       I    between atoms: N_3  and  C_4 
REMARK    2  A    between atoms: C_4  and  C_5 
REMARK    3  A    between atoms: C_5  and  C_6 
ROOT
HETATM    1  C   UNL     1     -34.690  39.909 -53.901  1.00  0.00     0.286 C 
HETATM    2  N   UNL     1     -33.686  40.916 -54.456  1.00  0.00    -0.056 N 
HETATM    3  H   UNL     1     -34.253  41.569 -55.038  1.00  0.00     0.278 HD
HETATM    4  H   UNL     1     -33.275  41.486 -53.707  1.00  0.00     0.278 HD
HETATM    5  C   UNL     1     -32.625  40.325 -55.340  1.00  0.00     0.209 C 
HETATM    6  C   UNL     1     -33.299  39.503 -56.466  1.00  0.00     0.115 C 
HETATM    7  N   UNL     1     -34.309  38.571 -55.964  1.00  0.00    -0.353 N 
HETATM    8  C   UNL     1     -35.183  38.894 -54.952  1.00  0.00     0.249 C 
HETATM    9  O   UNL     1     -36.257  38.309 -54.854  1.00  0.00    -0.271 OA
HETATM   10  C   UNL     1     -31.636  39.510 -54.504  1.00  0.00     0.035 C 
HETATM   11  C   UNL     1     -30.601  38.827 -55.395  1.00  0.00     0.002 C 
HETATM   12  C   UNL     1     -31.267  37.965 -56.465  1.00  0.00     0.002 C 
HETATM   13  C   UNL     1     -32.249  38.774 -57.312  1.00  0.00     0.027 C 
HETATM   14  H   UNL     1     -34.724  37.924 -56.633  1.00  0.00     0.163 HD
ENDROOT
BRANCH   1  15
HETATM   15  C   UNL     1     -35.860  40.627 -53.211  1.00  0.00     0.146 C 
BRANCH  15  16
HETATM   16  C   UNL     1     -35.910  42.078 -53.615  1.00  0.00     0.224 C 
HETATM   17  N   UNL     1     -36.270  42.479 -54.861  1.00  0.00    -0.327 N 
HETATM   18  H   UNL     1     -36.131  43.479 -54.984  1.00  0.00     0.169 HD
HETATM   19  O   UNL     1     -35.652  42.935 -52.757  1.00  0.00    -0.273 OA
BRANCH  17  20
HETATM   20  C   UNL     1     -36.800  41.816 -55.986  1.00  0.00     0.034 A 
HETATM   21  C   UNL     1     -38.034  41.165 -56.039  1.00  0.00     0.031 A 
HETATM   22  C   UNL     1     -38.475  40.570 -57.231  1.00  0.00     0.026 A 
HETATM   23  C   UNL     1     -37.690  40.628 -58.377  1.00  0.00     0.034 A 
HETATM   24  C   UNL     1     -36.464  41.278 -58.345  1.00  0.00     0.026 A 
HETATM   25 CL   UNL     1     -38.246  39.906 -59.833  1.00  0.00    -0.084 Cl
HETATM   26  C   UNL     1     -36.026  41.872 -57.156  1.00  0.00     0.031 A 
ENDBRANCH  17  20
ENDBRANCH  15  16
ENDBRANCH   1  15
TORSDOF 3
ENDMDL
MODEL 9
REMARK VINA RESULT:      -7.1      4.637      5.781
REMARK  3 active torsions:
REMARK  status: ('A' for Active; 'I' for Inactive)
REMARK    1  A    between atoms: C_2  and  N_3 
REMARK       I    between atoms: N_3  and  C_4 
REMARK    2  A    between atoms: C_4  and  C_5 
REMARK    3  A    between atoms: C_5  and  C_6 
ROOT
HETATM    1  C   UNL     1     -42.870  57.719 -56.023  1.00  0.00     0.286 C 
HETATM    2  N   UNL     1     -42.657  56.554 -56.985  1.00  0.00    -0.056 N 
HETATM    3  H   UNL     1     -41.674  56.247 -56.825  1.00  0.00     0.278 HD
HETATM    4  H   UNL     1     -43.249  55.751 -56.739  1.00  0.00     0.278 HD
HETATM    5  C   UNL     1     -42.790  56.906 -58.440  1.00  0.00     0.209 C 
HETATM    6  C   UNL     1     -41.857  58.098 -58.763  1.00  0.00     0.115 C 
HETATM    7  N   UNL     1     -42.001  59.206 -57.819  1.00  0.00    -0.353 N 
HETATM    8  C   UNL     1     -42.162  59.015 -56.465  1.00  0.00     0.249 C 
HETATM    9  O   UNL     1     -41.844  59.898 -55.676  1.00  0.00    -0.271 OA
HETATM   10  C   UNL     1     -44.256  57.173 -58.786  1.00  0.00     0.035 C 
HETATM   11  C   UNL     1     -44.402  57.620 -60.238  1.00  0.00     0.002 C 
HETATM   12  C   UNL     1     -43.530  58.836 -60.538  1.00  0.00     0.002 C 
HETATM   13  C   UNL     1     -42.061  58.575 -60.206  1.00  0.00     0.027 C 
HETATM   14  H   UNL     1     -41.494  60.066 -58.023  1.00  0.00     0.163 HD
ENDROOT
BRANCH   1  15
HETATM   15  C   UNL     1     -42.486  57.322 -54.589  1.00  0.00     0.146 C 
BRANCH  15  16
HETATM   16  C   UNL     1     -43.643  56.657 -53.891  1.00  0.00     0.224 C 
HETATM   17  N   UNL     1     -43.602  55.367 -53.471  1.00  0.00    -0.327 N 
HETATM   18  H   UNL     1     -44.509  55.057 -53.131  1.00  0.00     0.169 HD
HETATM   19  O   UNL     1     -44.655  57.334 -53.656  1.00  0.00    -0.273 OA
BRANCH  17  20
HETATM   20  C   UNL     1     -42.582  54.397 -53.393  1.00  0.00     0.034 A 
HETATM   21  C   UNL     1     -42.085  53.652 -54.464  1.00  0.00     0.031 A 
HETATM   22  C   UNL     1     -41.038  52.738 -54.272  1.00  0.00     0.026 A 
HETATM   23  C   UNL     1     -40.477  52.568 -53.011  1.00  0.00     0.034 A 
HETATM   24  C   UNL     1     -40.954  53.305 -51.935  1.00  0.00     0.026 A 
HETATM   25 CL   UNL     1     -39.188  51.455 -52.790  1.00  0.00    -0.084 Cl
HETATM   26  C   UNL     1     -41.997  54.217 -52.129  1.00  0.00     0.031 A 
ENDBRANCH  17  20
ENDBRANCH  15  16
ENDBRANCH   1  15
TORSDOF 3
ENDMDL
MODEL 10
REMARK VINA RESULT:      -7.1      3.237      3.985
REMARK  3 active torsions:
REMARK  status: ('A' for Active; 'I' for Inactive)
REMARK    1  A    between atoms: C_2  and  N_3 
REMARK       I    between atoms: N_3  and  C_4 
REMARK    2  A    between atoms: C_4  and  C_5 
REMARK    3  A    between atoms: C_5  and  C_6 
ROOT
HETATM    1  C   UNL     1     -42.822  56.283 -54.364  1.00  0.00     0.286 C 
HETATM    2  N   UNL     1     -43.506  57.640 -54.233  1.00  0.00    -0.056 N 
HETATM    3  H   UNL     1     -44.490  57.422 -53.964  1.00  0.00     0.278 HD
HETATM    4  H   UNL     1     -43.113  58.185 -53.457  1.00  0.00     0.278 HD
HETATM    5  C   UNL     1     -43.553  58.446 -55.500  1.00  0.00     0.209 C 
HETATM    6  C   UNL     1     -44.181  57.590 -56.627  1.00  0.00     0.115 C 
HETATM    7  N   UNL     1     -43.580  56.260 -56.733  1.00  0.00    -0.353 N 
HETATM    8  C   UNL     1     -43.230  55.510 -55.634  1.00  0.00     0.249 C 
HETATM    9  O   UNL     1     -43.154  54.289 -55.719  1.00  0.00    -0.271 OA
HETATM   10  C   UNL     1     -42.157  58.969 -55.844  1.00  0.00     0.035 C 
HETATM   11  C   UNL     1     -42.165  59.716 -57.175  1.00  0.00     0.002 C 
HETATM   12  C   UNL     1     -42.725  58.846 -58.299  1.00  0.00     0.002 C 
HETATM   13  C   UNL     1     -44.125  58.328 -57.969  1.00  0.00     0.027 C 
HETATM   14  H   UNL     1     -43.870  55.675 -57.515  1.00  0.00     0.163 HD
ENDROOT
BRANCH   1  15
HETATM   15  C   UNL     1     -43.029  55.441 -53.095  1.00  0.00     0.146 C 
BRANCH  15  16
HETATM   16  C   UNL     1     -41.992  55.777 -52.055  1.00  0.00     0.224 C 
HETATM   17  N   UNL     1     -40.991  54.925 -51.717  1.00  0.00    -0.327 N 
HETATM   18  H   UNL     1     -40.462  55.270 -50.920  1.00  0.00     0.169 HD
HETATM   19  O   UNL     1     -42.036  56.896 -51.523  1.00  0.00    -0.273 OA
BRANCH  17  20
HETATM   20  C   UNL     1     -40.533  53.699 -52.240  1.00  0.00     0.034 A 
HETATM   21  C   UNL     1     -40.142  52.589 -51.489  1.00  0.00     0.031 A 
HETATM   22  C   UNL     1     -39.738  51.404 -52.123  1.00  0.00     0.026 A 
HETATM   23  C   UNL     1     -39.728  51.320 -53.511  1.00  0.00     0.034 A 
HETATM   24  C   UNL     1     -40.121  52.411 -54.275  1.00  0.00     0.026 A 
HETATM   25 CL   UNL     1     -39.243  49.861 -54.277  1.00  0.00    -0.084 Cl
HETATM   26  C   UNL     1     -40.525  53.591 -53.640  1.00  0.00     0.031 A 
ENDBRANCH  17  20
ENDBRANCH  15  16
ENDBRANCH   1  15
TORSDOF 3
ENDMDL
