MODEL 1
REMARK VINA RESULT:      -9.7      0.000      0.000
REMARK  6 active torsions:
REMARK  status: ('A' for Active; 'I' for Inactive)
REMARK    1  A    between atoms: C_8  and  C_9 
REMARK    2  A    between atoms: C_9  and  C_10 
REMARK    3  A    between atoms: C_10  and  N_11 
REMARK       I    between atoms: N_11  and  C_12 
REMARK    4  A    between atoms: C_12  and  C_13 
REMARK    5  A    between atoms: C_18  and  C_19 
REMARK    6  A    between atoms: C_29  and  C_30 
ROOT
HETATM    1  C   UNL     1     -43.309  57.701 -55.345  1.00  0.00     0.148 A 
HETATM    2  N   UNL     1     -43.613  57.676 -54.026  1.00  0.00    -0.165 NA
HETATM    3  N   UNL     1     -42.634  56.922 -53.498  1.00  0.00    -0.240 N 
HETATM    4  C   UNL     1     -41.758  56.418 -54.417  1.00  0.00     0.123 A 
HETATM    5  N   UNL     1     -40.787  55.555 -54.061  1.00  0.00    -0.366 N 
HETATM    6  C   UNL     1     -40.753  54.910 -52.750  1.00  0.00     0.118 C 
HETATM    7  C   UNL     1     -42.081  55.102 -51.984  1.00  0.00     0.066 C 
HETATM    8  C   UNL     1     -42.615  56.540 -52.099  1.00  0.00     0.221 C 
HETATM    9  C   UNL     1     -42.134  56.948 -55.620  1.00  0.00     0.088 A 
HETATM   10  H   UNL     1     -40.141  55.178 -54.754  1.00  0.00     0.161 HD
ENDROOT
BRANCH   1  11
HETATM   11  C   UNL     1     -44.140  58.399 -56.338  1.00  0.00     0.272 C 
HETATM   12  N   UNL     1     -43.483  59.415 -56.996  1.00  0.00    -0.355 N 
HETATM   13  H   UNL     1     -42.474  59.424 -56.872  1.00  0.00     0.162 HD
HETATM   14  O   UNL     1     -45.310  58.098 -56.554  1.00  0.00    -0.266 OA
BRANCH  12  15
HETATM   15  C   UNL     1     -44.098  60.116 -58.102  1.00  0.00     0.127 C 
BRANCH  15  16
HETATM   16  C   UNL     1     -43.470  59.778 -59.454  1.00  0.00     0.060 C 
BRANCH  16  17
HETATM   17  C   UNL     1     -43.178  58.316 -59.607  1.00  0.00    -0.029 A 
HETATM   18  C   UNL     1     -44.124  57.262 -59.824  1.00  0.00    -0.002 A 
HETATM   19  C   UNL     1     -45.527  57.210 -59.949  1.00  0.00     0.014 A 
HETATM   20  C   UNL     1     -43.404  56.071 -59.926  1.00  0.00     0.042 A 
HETATM   21  C   UNL     1     -46.155  55.979 -60.172  1.00  0.00     0.001 A 
HETATM   22  C   UNL     1     -45.407  54.808 -60.271  1.00  0.00     0.002 A 
HETATM   23  C   UNL     1     -44.015  54.832 -60.149  1.00  0.00     0.030 A 
HETATM   24  N   UNL     1     -42.075  56.386 -59.772  1.00  0.00    -0.365 N 
HETATM   25  H   UNL     1     -41.321  55.715 -59.803  1.00  0.00     0.165 HD
HETATM   26  C   UNL     1     -41.927  57.732 -59.574  1.00  0.00     0.096 A 
ENDBRANCH  16  17
ENDBRANCH  15  16
ENDBRANCH  12  15
ENDBRANCH   1  11
BRANCH   8  27
HETATM   27  C   UNL     1     -41.804  57.531 -51.297  1.00  0.00     0.409 C 
HETATM   28  F   UNL     1     -40.812  58.096 -52.018  1.00  0.00    -0.169 F 
HETATM   29  F   UNL     1     -42.607  58.548 -50.885  1.00  0.00    -0.169 F 
HETATM   30  F   UNL     1     -41.256  57.004 -50.182  1.00  0.00    -0.169 F 
ENDBRANCH   8  27
BRANCH   6  31
HETATM   31  C   UNL     1     -40.427  53.439 -52.953  1.00  0.00    -0.033 A 
HETATM   32  C   UNL     1     -40.074  52.625 -51.858  1.00  0.00     0.049 A 
HETATM   33  C   UNL     1     -39.825  51.289 -52.084  1.00  0.00     0.105 A 
HETATM   34  C   UNL     1     -39.917  50.739 -53.339  1.00  0.00     0.105 A 
HETATM   35  O   UNL     1     -39.482  50.375 -51.138  1.00  0.00    -0.323 OA
HETATM   36  O   UNL     1     -39.644  49.407 -53.342  1.00  0.00    -0.323 OA
HETATM   37  C   UNL     1     -40.262  51.496 -54.438  1.00  0.00     0.040 A 
HETATM   38  C   UNL     1     -39.377  49.181 -51.942  1.00  0.00     0.352 A 
HETATM   39  C   UNL     1     -40.519  52.858 -54.239  1.00  0.00     0.012 A 
ENDBRANCH   6  31
TORSDOF 6
ENDMDL
MODEL 2
REMARK VINA RESULT:      -9.5      1.025      1.425
REMARK  6 active torsions:
REMARK  status: ('A' for Active; 'I' for Inactive)
REMARK    1  A    between atoms: C_8  and  C_9 
REMARK    2  A    between atoms: C_9  and  C_10 
REMARK    3  A    between atoms: C_10  and  N_11 
REMARK       I    between atoms: N_11  and  C_12 
REMARK    4  A    between atoms: C_12  and  C_13 
REMARK    5  A    between atoms: C_18  and  C_19 
REMARK    6  A    between atoms: C_29  and  C_30 
ROOT
HETATM    1  C   UNL     1     -43.642  57.681 -55.004  1.00  0.00     0.148 A 
HETATM    2  N   UNL     1     -43.756  57.683 -53.655  1.00  0.00    -0.165 NA
HETATM    3  N   UNL     1     -42.706  56.946 -53.255  1.00  0.00    -0.240 N 
HETATM    4  C   UNL     1     -41.965  56.428 -54.279  1.00  0.00     0.123 A 
HETATM    5  N   UNL     1     -40.945  55.578 -54.047  1.00  0.00    -0.366 N 
HETATM    6  C   UNL     1     -40.720  54.962 -52.740  1.00  0.00     0.118 C 
HETATM    7  C   UNL     1     -41.928  55.163 -51.798  1.00  0.00     0.066 C 
HETATM    8  C   UNL     1     -42.485  56.595 -51.866  1.00  0.00     0.221 C 
HETATM    9  C   UNL     1     -42.512  56.929 -55.427  1.00  0.00     0.088 A 
HETATM   10  H   UNL     1     -40.401  55.189 -54.816  1.00  0.00     0.161 HD
ENDROOT
BRANCH   1  11
HETATM   11  C   UNL     1     -44.612  58.352 -55.883  1.00  0.00     0.272 C 
HETATM   12  N   UNL     1     -44.104  59.458 -56.528  1.00  0.00    -0.355 N 
HETATM   13  H   UNL     1     -43.092  59.553 -56.484  1.00  0.00     0.162 HD
HETATM   14  O   UNL     1     -45.765  57.957 -56.024  1.00  0.00    -0.266 OA
BRANCH  12  15
HETATM   15  C   UNL     1     -44.869  60.159 -57.536  1.00  0.00     0.127 C 
BRANCH  15  16
HETATM   16  C   UNL     1     -44.354  59.922 -58.955  1.00  0.00     0.060 C 
BRANCH  16  17
HETATM   17  C   UNL     1     -45.037  58.774 -59.634  1.00  0.00    -0.029 A 
HETATM   18  C   UNL     1     -44.662  57.392 -59.586  1.00  0.00    -0.002 A 
HETATM   19  C   UNL     1     -43.621  56.676 -58.960  1.00  0.00     0.014 A 
HETATM   20  C   UNL     1     -45.591  56.681 -60.347  1.00  0.00     0.042 A 
HETATM   21  C   UNL     1     -43.548  55.287 -59.115  1.00  0.00     0.001 A 
HETATM   22  C   UNL     1     -44.493  54.607 -59.881  1.00  0.00     0.002 A 
HETATM   23  C   UNL     1     -45.534  55.293 -60.513  1.00  0.00     0.030 A 
HETATM   24  N   UNL     1     -46.492  57.594 -60.844  1.00  0.00    -0.365 N 
HETATM   25  H   UNL     1     -47.280  57.359 -61.430  1.00  0.00     0.165 HD
HETATM   26  C   UNL     1     -46.166  58.855 -60.426  1.00  0.00     0.096 A 
ENDBRANCH  16  17
ENDBRANCH  15  16
ENDBRANCH  12  15
ENDBRANCH   1  11
BRANCH   8  27
HETATM   27  C   UNL     1     -41.577  57.608 -51.208  1.00  0.00     0.409 C 
HETATM   28  F   UNL     1     -40.673  58.130 -52.064  1.00  0.00    -0.169 F 
HETATM   29  F   UNL     1     -42.318  58.651 -50.748  1.00  0.00    -0.169 F 
HETATM   30  F   UNL     1     -40.906  57.120 -50.144  1.00  0.00    -0.169 F 
ENDBRANCH   8  27
BRANCH   6  31
HETATM   31  C   UNL     1     -40.413  53.488 -52.956  1.00  0.00    -0.033 A 
HETATM   32  C   UNL     1     -40.045  52.666 -51.873  1.00  0.00     0.049 A 
HETATM   33  C   UNL     1     -39.814  51.329 -52.111  1.00  0.00     0.105 A 
HETATM   34  C   UNL     1     -39.940  50.785 -53.365  1.00  0.00     0.105 A 
HETATM   35  O   UNL     1     -39.460  50.407 -51.176  1.00  0.00    -0.323 OA
HETATM   36  O   UNL     1     -39.680  49.450 -53.380  1.00  0.00    -0.323 OA
HETATM   37  C   UNL     1     -40.302  51.550 -54.453  1.00  0.00     0.040 A 
HETATM   38  C   UNL     1     -39.384  49.216 -51.987  1.00  0.00     0.352 A 
HETATM   39  C   UNL     1     -40.540  52.914 -54.243  1.00  0.00     0.012 A 
ENDBRANCH   6  31
TORSDOF 6
ENDMDL
MODEL 3
REMARK VINA RESULT:      -9.3      1.385      2.098
REMARK  6 active torsions:
REMARK  status: ('A' for Active; 'I' for Inactive)
REMARK    1  A    between atoms: C_8  and  C_9 
REMARK    2  A    between atoms: C_9  and  C_10 
REMARK    3  A    between atoms: C_10  and  N_11 
REMARK       I    between atoms: N_11  and  C_12 
REMARK    4  A    between atoms: C_12  and  C_13 
REMARK    5  A    between atoms: C_18  and  C_19 
REMARK    6  A    between atoms: C_29  and  C_30 
ROOT
HETATM    1  C   UNL     1     -44.113  57.963 -55.200  1.00  0.00     0.148 A 
HETATM    2  N   UNL     1     -44.250  57.999 -53.853  1.00  0.00    -0.165 NA
HETATM    3  N   UNL     1     -43.155  57.355 -53.414  1.00  0.00    -0.240 N 
HETATM    4  C   UNL     1     -42.361  56.860 -54.409  1.00  0.00     0.123 A 
HETATM    5  N   UNL     1     -41.286  56.096 -54.134  1.00  0.00    -0.366 N 
HETATM    6  C   UNL     1     -41.038  55.540 -52.805  1.00  0.00     0.118 C 
HETATM    7  C   UNL     1     -42.274  55.681 -51.888  1.00  0.00     0.066 C 
HETATM    8  C   UNL     1     -42.933  57.065 -52.011  1.00  0.00     0.221 C 
HETATM    9  C   UNL     1     -42.923  57.283 -55.581  1.00  0.00     0.088 A 
HETATM   10  H   UNL     1     -40.701  55.725 -54.882  1.00  0.00     0.161 HD
ENDROOT
BRANCH   1  11
HETATM   11  C   UNL     1     -45.114  58.532 -56.114  1.00  0.00     0.272 C 
HETATM   12  N   UNL     1     -45.957  57.594 -56.667  1.00  0.00    -0.355 N 
HETATM   13  H   UNL     1     -45.925  56.677 -56.229  1.00  0.00     0.162 HD
HETATM   14  O   UNL     1     -45.184  59.732 -56.359  1.00  0.00    -0.266 OA
BRANCH  12  15
HETATM   15  C   UNL     1     -47.089  57.985 -57.478  1.00  0.00     0.127 C 
BRANCH  15  16
HETATM   16  C   UNL     1     -46.905  57.670 -58.963  1.00  0.00     0.060 C 
BRANCH  16  17
HETATM   17  C   UNL     1     -45.689  58.323 -59.547  1.00  0.00    -0.029 A 
HETATM   18  C   UNL     1     -44.380  57.757 -59.677  1.00  0.00    -0.002 A 
HETATM   19  C   UNL     1     -43.806  56.516 -59.333  1.00  0.00     0.014 A 
HETATM   20  C   UNL     1     -43.572  58.713 -60.293  1.00  0.00     0.042 A 
HETATM   21  C   UNL     1     -42.457  56.277 -59.617  1.00  0.00     0.001 A 
HETATM   22  C   UNL     1     -41.677  57.253 -60.235  1.00  0.00     0.002 A 
HETATM   23  C   UNL     1     -42.221  58.491 -60.585  1.00  0.00     0.030 A 
HETATM   24  N   UNL     1     -44.356  59.819 -60.524  1.00  0.00    -0.365 N 
HETATM   25  H   UNL     1     -44.032  60.668 -60.965  1.00  0.00     0.165 HD
HETATM   26  C   UNL     1     -45.629  59.598 -60.075  1.00  0.00     0.096 A 
ENDBRANCH  16  17
ENDBRANCH  15  16
ENDBRANCH  12  15
ENDBRANCH   1  11
BRANCH   8  27
HETATM   27  C   UNL     1     -42.114  58.162 -51.373  1.00  0.00     0.409 C 
HETATM   28  F   UNL     1     -41.290  58.774 -52.250  1.00  0.00    -0.169 F 
HETATM   29  F   UNL     1     -42.942  59.125 -50.888  1.00  0.00    -0.169 F 
HETATM   30  F   UNL     1     -41.367  57.742 -50.330  1.00  0.00    -0.169 F 
ENDBRANCH   8  27
BRANCH   6  31
HETATM   31  C   UNL     1     -40.620  54.087 -52.968  1.00  0.00    -0.033 A 
HETATM   32  C   UNL     1     -40.360  53.284 -51.840  1.00  0.00     0.049 A 
HETATM   33  C   UNL     1     -40.022  51.963 -52.036  1.00  0.00     0.105 A 
HETATM   34  C   UNL     1     -39.940  51.417 -53.292  1.00  0.00     0.105 A 
HETATM   35  O   UNL     1     -39.748  51.062 -51.056  1.00  0.00    -0.323 OA
HETATM   36  O   UNL     1     -39.605  50.099 -53.264  1.00  0.00    -0.323 OA
HETATM   37  C   UNL     1     -40.191  52.162 -54.424  1.00  0.00     0.040 A 
HETATM   38  C   UNL     1     -39.493  49.878 -51.842  1.00  0.00     0.352 A 
HETATM   39  C   UNL     1     -40.533  53.509 -54.257  1.00  0.00     0.012 A 
ENDBRANCH   6  31
TORSDOF 6
ENDMDL
MODEL 4
REMARK VINA RESULT:      -9.1      1.573      2.336
REMARK  6 active torsions:
REMARK  status: ('A' for Active; 'I' for Inactive)
REMARK    1  A    between atoms: C_8  and  C_9 
REMARK    2  A    between atoms: C_9  and  C_10 
REMARK    3  A    between atoms: C_10  and  N_11 
REMARK       I    between atoms: N_11  and  C_12 
REMARK    4  A    between atoms: C_12  and  C_13 
REMARK    5  A    between atoms: C_18  and  C_19 
REMARK    6  A    between atoms: C_29  and  C_30 
ROOT
HETATM    1  C   UNL     1     -42.956  58.749 -55.603  1.00  0.00     0.148 A 
HETATM    2  N   UNL     1     -44.014  58.385 -54.840  1.00  0.00    -0.165 NA
HETATM    3  N   UNL     1     -43.449  57.677 -53.847  1.00  0.00    -0.240 N 
HETATM    4  C   UNL     1     -42.098  57.521 -53.970  1.00  0.00     0.123 A 
HETATM    5  N   UNL     1     -41.401  56.746 -53.117  1.00  0.00    -0.366 N 
HETATM    6  C   UNL     1     -42.050  55.834 -52.177  1.00  0.00     0.118 C 
HETATM    7  C   UNL     1     -43.552  55.660 -52.495  1.00  0.00     0.066 C 
HETATM    8  C   UNL     1     -44.232  56.997 -52.834  1.00  0.00     0.221 C 
HETATM    9  C   UNL     1     -41.736  58.250 -55.069  1.00  0.00     0.088 A 
HETATM   10  H   UNL     1     -40.393  56.629 -53.218  1.00  0.00     0.161 HD
ENDROOT
BRANCH   1  11
HETATM   11  C   UNL     1     -43.101  59.528 -56.842  1.00  0.00     0.272 C 
HETATM   12  N   UNL     1     -41.964  59.553 -57.619  1.00  0.00    -0.355 N 
HETATM   13  H   UNL     1     -41.250  58.878 -57.356  1.00  0.00     0.162 HD
HETATM   14  O   UNL     1     -44.142  60.101 -57.148  1.00  0.00    -0.266 OA
BRANCH  12  15
HETATM   15  C   UNL     1     -41.966  60.151 -58.936  1.00  0.00     0.127 C 
BRANCH  15  16
HETATM   16  C   UNL     1     -42.032  59.123 -60.065  1.00  0.00     0.060 C 
BRANCH  16  17
HETATM   17  C   UNL     1     -43.414  58.585 -60.278  1.00  0.00    -0.029 A 
HETATM   18  C   UNL     1     -43.843  57.224 -60.149  1.00  0.00    -0.002 A 
HETATM   19  C   UNL     1     -43.196  56.015 -59.821  1.00  0.00     0.014 A 
HETATM   20  C   UNL     1     -45.211  57.191 -60.421  1.00  0.00     0.042 A 
HETATM   21  C   UNL     1     -43.935  54.827 -59.774  1.00  0.00     0.001 A 
HETATM   22  C   UNL     1     -45.300  54.829 -60.049  1.00  0.00     0.002 A 
HETATM   23  C   UNL     1     -45.965  56.013 -60.378  1.00  0.00     0.030 A 
HETATM   24  N   UNL     1     -45.599  58.478 -60.709  1.00  0.00    -0.365 N 
HETATM   25  H   UNL     1     -46.542  58.753 -60.941  1.00  0.00     0.165 HD
HETATM   26  C   UNL     1     -44.526  59.324 -60.631  1.00  0.00     0.096 A 
ENDBRANCH  16  17
ENDBRANCH  15  16
ENDBRANCH  12  15
ENDBRANCH   1  11
BRANCH   8  27
HETATM   27  C   UNL     1     -44.409  57.886 -51.625  1.00  0.00     0.409 C 
HETATM   28  F   UNL     1     -45.485  58.696 -51.728  1.00  0.00    -0.169 F 
HETATM   29  F   UNL     1     -44.611  57.118 -50.522  1.00  0.00    -0.169 F 
HETATM   30  F   UNL     1     -43.335  58.658 -51.360  1.00  0.00    -0.169 F 
ENDBRANCH   8  27
BRANCH   6  31
HETATM   31  C   UNL     1     -41.309  54.507 -52.214  1.00  0.00    -0.033 A 
HETATM   32  C   UNL     1     -41.276  53.736 -53.393  1.00  0.00     0.049 A 
HETATM   33  C   UNL     1     -40.560  52.559 -53.391  1.00  0.00     0.105 A 
HETATM   34  C   UNL     1     -39.880  52.129 -52.279  1.00  0.00     0.105 A 
HETATM   35  O   UNL     1     -40.427  51.710 -54.444  1.00  0.00    -0.323 OA
HETATM   36  O   UNL     1     -39.230  50.954 -52.491  1.00  0.00    -0.323 OA
HETATM   37  C   UNL     1     -39.880  52.852 -51.105  1.00  0.00     0.040 A 
HETATM   38  C   UNL     1     -39.574  50.698 -53.868  1.00  0.00     0.352 A 
HETATM   39  C   UNL     1     -40.602  54.051 -51.076  1.00  0.00     0.012 A 
ENDBRANCH   6  31
TORSDOF 6
ENDMDL
MODEL 5
REMARK VINA RESULT:      -8.9      2.260      3.659
REMARK  6 active torsions:
REMARK  status: ('A' for Active; 'I' for Inactive)
REMARK    1  A    between atoms: C_8  and  C_9 
REMARK    2  A    between atoms: C_9  and  C_10 
REMARK    3  A    between atoms: C_10  and  N_11 
REMARK       I    between atoms: N_11  and  C_12 
REMARK    4  A    between atoms: C_12  and  C_13 
REMARK    5  A    between atoms: C_18  and  C_19 
REMARK    6  A    between atoms: C_29  and  C_30 
ROOT
HETATM    1  C   UNL     1     -43.259  57.223 -56.231  1.00  0.00     0.148 A 
HETATM    2  N   UNL     1     -43.837  57.222 -55.006  1.00  0.00    -0.165 NA
HETATM    3  N   UNL     1     -42.942  56.571 -54.244  1.00  0.00    -0.240 N 
HETATM    4  C   UNL     1     -41.855  56.108 -54.929  1.00  0.00     0.123 A 
HETATM    5  N   UNL     1     -40.922  55.342 -54.330  1.00  0.00    -0.366 N 
HETATM    6  C   UNL     1     -41.123  54.751 -53.009  1.00  0.00     0.118 C 
HETATM    7  C   UNL     1     -42.596  54.860 -52.552  1.00  0.00     0.066 C 
HETATM    8  C   UNL     1     -43.196  56.244 -52.854  1.00  0.00     0.221 C 
HETATM    9  C   UNL     1     -42.001  56.560 -56.211  1.00  0.00     0.088 A 
HETATM   10  H   UNL     1     -40.117  54.994 -54.850  1.00  0.00     0.161 HD
ENDROOT
BRANCH   1  11
HETATM   11  C   UNL     1     -43.906  57.812 -57.413  1.00  0.00     0.272 C 
HETATM   12  N   UNL     1     -43.019  58.241 -58.376  1.00  0.00    -0.355 N 
HETATM   13  H   UNL     1     -42.063  57.917 -58.252  1.00  0.00     0.162 HD
HETATM   14  O   UNL     1     -45.124  57.911 -57.524  1.00  0.00    -0.266 OA
BRANCH  12  15
HETATM   15  C   UNL     1     -43.478  58.717 -59.662  1.00  0.00     0.127 C 
BRANCH  15  16
HETATM   16  C   UNL     1     -43.621  60.237 -59.727  1.00  0.00     0.060 C 
BRANCH  16  17
HETATM   17  C   UNL     1     -42.722  60.861 -60.750  1.00  0.00    -0.029 A 
HETATM   18  C   UNL     1     -41.579  61.689 -60.509  1.00  0.00    -0.002 A 
HETATM   19  C   UNL     1     -40.948  62.182 -59.348  1.00  0.00     0.014 A 
HETATM   20  C   UNL     1     -41.038  62.025 -61.750  1.00  0.00     0.042 A 
HETATM   21  C   UNL     1     -39.808  62.984 -59.469  1.00  0.00     0.001 A 
HETATM   22  C   UNL     1     -39.292  63.299 -60.724  1.00  0.00     0.002 A 
HETATM   23  C   UNL     1     -39.898  62.825 -61.890  1.00  0.00     0.030 A 
HETATM   24  N   UNL     1     -41.823  61.430 -62.709  1.00  0.00    -0.365 N 
HETATM   25  H   UNL     1     -41.663  61.500 -63.704  1.00  0.00     0.165 HD
HETATM   26  C   UNL     1     -42.841  60.732 -62.120  1.00  0.00     0.096 A 
ENDBRANCH  16  17
ENDBRANCH  15  16
ENDBRANCH  12  15
ENDBRANCH   1  11
BRANCH   8  27
HETATM   27  C   UNL     1     -42.650  57.327 -51.953  1.00  0.00     0.409 C 
HETATM   28  F   UNL     1     -41.516  57.881 -52.433  1.00  0.00    -0.169 F 
HETATM   29  F   UNL     1     -43.558  58.335 -51.853  1.00  0.00    -0.169 F 
HETATM   30  F   UNL     1     -42.405  56.910 -50.694  1.00  0.00    -0.169 F 
ENDBRANCH   8  27
BRANCH   6  31
HETATM   31  C   UNL     1     -40.655  53.305 -53.059  1.00  0.00    -0.033 A 
HETATM   32  C   UNL     1     -40.285  52.629 -51.879  1.00  0.00     0.049 A 
HETATM   33  C   UNL     1     -39.904  51.309 -51.968  1.00  0.00     0.105 A 
HETATM   34  C   UNL     1     -39.884  50.642 -53.168  1.00  0.00     0.105 A 
HETATM   35  O   UNL     1     -39.526  50.520 -50.927  1.00  0.00    -0.323 OA
HETATM   36  O   UNL     1     -39.491  49.347 -53.035  1.00  0.00    -0.323 OA
HETATM   37  C   UNL     1     -40.242  51.261 -54.347  1.00  0.00     0.040 A 
HETATM   38  C   UNL     1     -39.273  49.274 -51.610  1.00  0.00     0.352 A 
HETATM   39  C   UNL     1     -40.630  52.604 -54.288  1.00  0.00     0.012 A 
ENDBRANCH   6  31
TORSDOF 6
ENDMDL
MODEL 6
REMARK VINA RESULT:      -8.8      4.678      8.172
REMARK  6 active torsions:
REMARK  status: ('A' for Active; 'I' for Inactive)
REMARK    1  A    between atoms: C_8  and  C_9 
REMARK    2  A    between atoms: C_9  and  C_10 
REMARK    3  A    between atoms: C_10  and  N_11 
REMARK       I    between atoms: N_11  and  C_12 
REMARK    4  A    between atoms: C_12  and  C_13 
REMARK    5  A    between atoms: C_18  and  C_19 
REMARK    6  A    between atoms: C_29  and  C_30 
ROOT
HETATM    1  C   UNL     1     -42.395  59.080 -51.980  1.00  0.00     0.148 A 
HETATM    2  N   UNL     1     -42.130  59.046 -53.307  1.00  0.00    -0.165 NA
HETATM    3  N   UNL     1     -42.284  57.747 -53.619  1.00  0.00    -0.240 N 
HETATM    4  C   UNL     1     -42.574  56.947 -52.552  1.00  0.00     0.123 A 
HETATM    5  N   UNL     1     -42.650  55.608 -52.679  1.00  0.00    -0.366 N 
HETATM    6  C   UNL     1     -42.190  54.907 -53.877  1.00  0.00     0.118 C 
HETATM    7  C   UNL     1     -41.362  55.831 -54.797  1.00  0.00     0.066 C 
HETATM    8  C   UNL     1     -41.996  57.226 -54.941  1.00  0.00     0.221 C 
HETATM    9  C   UNL     1     -42.708  57.786 -51.480  1.00  0.00     0.088 A 
HETATM   10  H   UNL     1     -42.862  55.015 -51.877  1.00  0.00     0.161 HD
ENDROOT
BRANCH   1  11
HETATM   11  C   UNL     1     -42.318  60.316 -51.187  1.00  0.00     0.272 C 
HETATM   12  N   UNL     1     -43.085  61.346 -51.687  1.00  0.00    -0.355 N 
HETATM   13  H   UNL     1     -43.755  61.072 -52.402  1.00  0.00     0.162 HD
HETATM   14  O   UNL     1     -41.630  60.415 -50.176  1.00  0.00    -0.266 OA
BRANCH  12  15
HETATM   15  C   UNL     1     -43.241  62.588 -50.963  1.00  0.00     0.127 C 
BRANCH  15  16
HETATM   16  C   UNL     1     -44.657  62.800 -50.430  1.00  0.00     0.060 C 
BRANCH  16  17
HETATM   17  C   UNL     1     -44.858  62.207 -49.068  1.00  0.00    -0.029 A 
HETATM   18  C   UNL     1     -44.873  62.902 -47.815  1.00  0.00    -0.002 A 
HETATM   19  C   UNL     1     -44.713  64.250 -47.435  1.00  0.00     0.014 A 
HETATM   20  C   UNL     1     -45.111  61.956 -46.818  1.00  0.00     0.042 A 
HETATM   21  C   UNL     1     -44.797  64.601 -46.083  1.00  0.00     0.001 A 
HETATM   22  C   UNL     1     -45.037  63.631 -45.111  1.00  0.00     0.002 A 
HETATM   23  C   UNL     1     -45.199  62.288 -45.461  1.00  0.00     0.030 A 
HETATM   24  N   UNL     1     -45.230  60.734 -47.437  1.00  0.00    -0.365 N 
HETATM   25  H   UNL     1     -45.409  59.864 -46.957  1.00  0.00     0.165 HD
HETATM   26  C   UNL     1     -45.075  60.872 -48.789  1.00  0.00     0.096 A 
ENDBRANCH  16  17
ENDBRANCH  15  16
ENDBRANCH  12  15
ENDBRANCH   1  11
BRANCH   8  27
HETATM   27  C   UNL     1     -43.249  57.214 -55.784  1.00  0.00     0.409 C 
HETATM   28  F   UNL     1     -43.373  58.321 -56.547  1.00  0.00    -0.169 F 
HETATM   29  F   UNL     1     -43.211  56.159 -56.640  1.00  0.00    -0.169 F 
HETATM   30  F   UNL     1     -44.383  57.080 -55.064  1.00  0.00    -0.169 F 
ENDBRANCH   8  27
BRANCH   6  31
HETATM   31  C   UNL     1     -41.393  53.689 -53.437  1.00  0.00    -0.033 A 
HETATM   32  C   UNL     1     -41.256  52.575 -54.290  1.00  0.00     0.049 A 
HETATM   33  C   UNL     1     -40.493  51.510 -53.864  1.00  0.00     0.105 A 
HETATM   34  C   UNL     1     -39.865  51.513 -52.643  1.00  0.00     0.105 A 
HETATM   35  O   UNL     1     -40.259  50.371 -54.568  1.00  0.00    -0.323 OA
HETATM   36  O   UNL     1     -39.154  50.375 -52.423  1.00  0.00    -0.323 OA
HETATM   37  C   UNL     1     -39.968  52.581 -51.779  1.00  0.00     0.040 A 
HETATM   38  C   UNL     1     -39.402  49.659 -53.651  1.00  0.00     0.352 A 
HETATM   39  C   UNL     1     -40.740  53.677 -52.182  1.00  0.00     0.012 A 
ENDBRANCH   6  31
TORSDOF 6
ENDMDL
MODEL 7
REMARK VINA RESULT:      -8.8      3.455      6.295
REMARK  6 active torsions:
REMARK  status: ('A' for Active; 'I' for Inactive)
REMARK    1  A    between atoms: C_8  and  C_9 
REMARK    2  A    between atoms: C_9  and  C_10 
REMARK    3  A    between atoms: C_10  and  N_11 
REMARK       I    between atoms: N_11  and  C_12 
REMARK    4  A    between atoms: C_12  and  C_13 
REMARK    5  A    between atoms: C_18  and  C_19 
REMARK    6  A    between atoms: C_29  and  C_30 
ROOT
HETATM    1  C   UNL     1     -44.744  58.490 -55.090  1.00  0.00     0.148 A 
HETATM    2  N   UNL     1     -43.927  58.313 -56.156  1.00  0.00    -0.165 NA
HETATM    3  N   UNL     1     -43.561  57.024 -56.054  1.00  0.00    -0.240 N 
HETATM    4  C   UNL     1     -44.052  56.389 -54.949  1.00  0.00     0.123 A 
HETATM    5  N   UNL     1     -43.688  55.128 -54.645  1.00  0.00    -0.366 N 
HETATM    6  C   UNL     1     -42.576  54.451 -55.309  1.00  0.00     0.118 C 
HETATM    7  C   UNL     1     -41.724  55.435 -56.142  1.00  0.00     0.066 C 
HETATM    8  C   UNL     1     -42.591  56.419 -56.945  1.00  0.00     0.221 C 
HETATM    9  C   UNL     1     -44.869  57.294 -54.330  1.00  0.00     0.088 A 
HETATM   10  H   UNL     1     -44.054  54.662 -53.815  1.00  0.00     0.161 HD
ENDROOT
BRANCH   1  11
HETATM   11  C   UNL     1     -45.369  59.783 -54.774  1.00  0.00     0.272 C 
HETATM   12  N   UNL     1     -45.737  59.914 -53.454  1.00  0.00    -0.355 N 
HETATM   13  H   UNL     1     -45.354  59.208 -52.829  1.00  0.00     0.162 HD
HETATM   14  O   UNL     1     -45.543  60.659 -55.615  1.00  0.00    -0.266 OA
BRANCH  12  15
HETATM   15  C   UNL     1     -46.236  61.167 -52.933  1.00  0.00     0.127 C 
BRANCH  15  16
HETATM   16  C   UNL     1     -45.131  62.094 -52.429  1.00  0.00     0.060 C 
BRANCH  16  17
HETATM   17  C   UNL     1     -44.220  61.427 -51.443  1.00  0.00    -0.029 A 
HETATM   18  C   UNL     1     -43.029  60.685 -51.730  1.00  0.00    -0.002 A 
HETATM   19  C   UNL     1     -42.349  60.334 -52.914  1.00  0.00     0.014 A 
HETATM   20  C   UNL     1     -42.496  60.266 -50.510  1.00  0.00     0.042 A 
HETATM   21  C   UNL     1     -41.170  59.585 -52.837  1.00  0.00     0.001 A 
HETATM   22  C   UNL     1     -40.663  59.183 -51.603  1.00  0.00     0.002 A 
HETATM   23  C   UNL     1     -41.318  59.517 -50.414  1.00  0.00     0.030 A 
HETATM   24  N   UNL     1     -43.332  60.729 -49.521  1.00  0.00    -0.365 N 
HETATM   25  H   UNL     1     -43.189  60.576 -48.534  1.00  0.00     0.165 HD
HETATM   26  C   UNL     1     -44.374  61.424 -50.071  1.00  0.00     0.096 A 
ENDBRANCH  16  17
ENDBRANCH  15  16
ENDBRANCH  12  15
ENDBRANCH   1  11
BRANCH   8  27
HETATM   27  C   UNL     1     -43.292  55.762 -58.112  1.00  0.00     0.409 C 
HETATM   28  F   UNL     1     -42.507  55.670 -59.206  1.00  0.00    -0.169 F 
HETATM   29  F   UNL     1     -43.635  54.490 -57.777  1.00  0.00    -0.169 F 
HETATM   30  F   UNL     1     -44.435  56.382 -58.474  1.00  0.00    -0.169 F 
ENDBRANCH   8  27
BRANCH   6  31
HETATM   31  C   UNL     1     -41.747  53.745 -54.248  1.00  0.00    -0.033 A 
HETATM   32  C   UNL     1     -41.976  53.990 -52.879  1.00  0.00     0.049 A 
HETATM   33  C   UNL     1     -41.226  53.299 -51.953  1.00  0.00     0.105 A 
HETATM   34  C   UNL     1     -40.276  52.383 -52.330  1.00  0.00     0.105 A 
HETATM   35  O   UNL     1     -41.330  53.416 -50.603  1.00  0.00    -0.323 OA
HETATM   36  O   UNL     1     -39.660  51.805 -51.264  1.00  0.00    -0.323 OA
HETATM   37  C   UNL     1     -40.021  52.108 -53.657  1.00  0.00     0.040 A 
HETATM   38  C   UNL     1     -40.339  52.459 -50.172  1.00  0.00     0.352 A 
HETATM   39  C   UNL     1     -40.765  52.798 -54.622  1.00  0.00     0.012 A 
ENDBRANCH   6  31
TORSDOF 6
ENDMDL
MODEL 8
REMARK VINA RESULT:      -8.7      3.933      9.618
REMARK  6 active torsions:
REMARK  status: ('A' for Active; 'I' for Inactive)
REMARK    1  A    between atoms: C_8  and  C_9 
REMARK    2  A    between atoms: C_9  and  C_10 
REMARK    3  A    between atoms: C_10  and  N_11 
REMARK       I    between atoms: N_11  and  C_12 
REMARK    4  A    between atoms: C_12  and  C_13 
REMARK    5  A    between atoms: C_18  and  C_19 
REMARK    6  A    between atoms: C_29  and  C_30 
ROOT
HETATM    1  C   UNL     1     -43.246  57.227 -55.367  1.00  0.00     0.148 A 
HETATM    2  N   UNL     1     -44.420  57.635 -55.905  1.00  0.00    -0.165 NA
HETATM    3  N   UNL     1     -44.064  58.072 -57.126  1.00  0.00    -0.240 N 
HETATM    4  C   UNL     1     -42.722  58.019 -57.369  1.00  0.00     0.123 A 
HETATM    5  N   UNL     1     -42.194  58.522 -58.502  1.00  0.00    -0.366 N 
HETATM    6  C   UNL     1     -42.960  59.367 -59.416  1.00  0.00     0.118 C 
HETATM    7  C   UNL     1     -44.289  59.837 -58.782  1.00  0.00     0.066 C 
HETATM    8  C   UNL     1     -45.006  58.702 -58.030  1.00  0.00     0.221 C 
HETATM    9  C   UNL     1     -42.165  57.425 -56.271  1.00  0.00     0.088 A 
HETATM   10  H   UNL     1     -41.190  58.485 -58.675  1.00  0.00     0.161 HD
ENDROOT
BRANCH   1  11
HETATM   11  C   UNL     1     -43.143  56.691 -54.001  1.00  0.00     0.272 C 
HETATM   12  N   UNL     1     -42.773  55.365 -53.952  1.00  0.00    -0.355 N 
HETATM   13  H   UNL     1     -42.422  54.985 -54.828  1.00  0.00     0.162 HD
HETATM   14  O   UNL     1     -43.368  57.368 -53.003  1.00  0.00    -0.266 OA
BRANCH  12  15
HETATM   15  C   UNL     1     -42.487  54.710 -52.695  1.00  0.00     0.127 C 
BRANCH  15  16
HETATM   16  C   UNL     1     -40.994  54.650 -52.373  1.00  0.00     0.060 C 
BRANCH  16  17
HETATM   17  C   UNL     1     -40.568  53.311 -51.851  1.00  0.00    -0.029 A 
HETATM   18  C   UNL     1     -40.269  52.139 -52.618  1.00  0.00    -0.002 A 
HETATM   19  C   UNL     1     -40.274  51.835 -53.995  1.00  0.00     0.014 A 
HETATM   20  C   UNL     1     -39.898  51.137 -51.720  1.00  0.00     0.042 A 
HETATM   21  C   UNL     1     -39.909  50.553 -54.420  1.00  0.00     0.001 A 
HETATM   22  C   UNL     1     -39.541  49.576 -53.498  1.00  0.00     0.002 A 
HETATM   23  C   UNL     1     -39.529  49.850 -52.128  1.00  0.00     0.030 A 
HETATM   24  N   UNL     1     -39.973  51.676 -50.457  1.00  0.00    -0.365 N 
HETATM   25  H   UNL     1     -39.755  51.176 -49.608  1.00  0.00     0.165 HD
HETATM   26  C   UNL     1     -40.379  52.981 -50.524  1.00  0.00     0.096 A 
ENDBRANCH  16  17
ENDBRANCH  15  16
ENDBRANCH  12  15
ENDBRANCH   1  11
BRANCH   8  27
HETATM   27  C   UNL     1     -45.607  57.674 -58.960  1.00  0.00     0.409 C 
HETATM   28  F   UNL     1     -45.668  58.101 -60.239  1.00  0.00    -0.169 F 
HETATM   29  F   UNL     1     -44.831  56.557 -58.964  1.00  0.00    -0.169 F 
HETATM   30  F   UNL     1     -46.845  57.276 -58.597  1.00  0.00    -0.169 F 
ENDBRANCH   8  27
BRANCH   6  31
HETATM   31  C   UNL     1     -42.084  60.542 -59.823  1.00  0.00    -0.033 A 
HETATM   32  C   UNL     1     -41.410  61.306 -58.849  1.00  0.00     0.049 A 
HETATM   33  C   UNL     1     -40.598  62.337 -59.268  1.00  0.00     0.105 A 
HETATM   34  C   UNL     1     -40.427  62.628 -60.599  1.00  0.00     0.105 A 
HETATM   35  O   UNL     1     -39.879  63.158 -58.458  1.00  0.00    -0.323 OA
HETATM   36  O   UNL     1     -39.577  63.671 -60.796  1.00  0.00    -0.323 OA
HETATM   37  C   UNL     1     -41.062  61.905 -61.586  1.00  0.00     0.040 A 
HETATM   38  C   UNL     1     -39.227  63.997 -59.435  1.00  0.00     0.352 A 
HETATM   39  C   UNL     1     -41.897  60.853 -61.191  1.00  0.00     0.012 A 
ENDBRANCH   6  31
TORSDOF 6
ENDMDL
MODEL 9
REMARK VINA RESULT:      -8.7      3.301      8.256
REMARK  6 active torsions:
REMARK  status: ('A' for Active; 'I' for Inactive)
REMARK    1  A    between atoms: C_8  and  C_9 
REMARK    2  A    between atoms: C_9  and  C_10 
REMARK    3  A    between atoms: C_10  and  N_11 
REMARK       I    between atoms: N_11  and  C_12 
REMARK    4  A    between atoms: C_12  and  C_13 
REMARK    5  A    between atoms: C_18  and  C_19 
REMARK    6  A    between atoms: C_29  and  C_30 
ROOT
HETATM    1  C   UNL     1     -42.964  57.947 -53.240  1.00  0.00     0.148 A 
HETATM    2  N   UNL     1     -42.904  59.190 -53.773  1.00  0.00    -0.165 NA
HETATM    3  N   UNL     1     -43.890  59.183 -54.685  1.00  0.00    -0.240 N 
HETATM    4  C   UNL     1     -44.535  57.985 -54.803  1.00  0.00     0.123 A 
HETATM    5  N   UNL     1     -45.473  57.782 -55.749  1.00  0.00    -0.366 N 
HETATM    6  C   UNL     1     -45.687  58.715 -56.853  1.00  0.00     0.118 C 
HETATM    7  C   UNL     1     -44.543  59.749 -56.957  1.00  0.00     0.066 C 
HETATM    8  C   UNL     1     -44.129  60.298 -55.581  1.00  0.00     0.221 C 
HETATM    9  C   UNL     1     -43.996  57.175 -53.842  1.00  0.00     0.088 A 
HETATM   10  H   UNL     1     -45.945  56.883 -55.835  1.00  0.00     0.161 HD
ENDROOT
BRANCH   1  11
HETATM   11  C   UNL     1     -42.032  57.483 -52.201  1.00  0.00     0.272 C 
HETATM   12  N   UNL     1     -42.631  56.733 -51.213  1.00  0.00    -0.355 N 
HETATM   13  H   UNL     1     -43.577  56.422 -51.425  1.00  0.00     0.162 HD
HETATM   14  O   UNL     1     -40.833  57.744 -52.219  1.00  0.00    -0.266 OA
BRANCH  12  15
HETATM   15  C   UNL     1     -41.850  56.077 -50.188  1.00  0.00     0.127 C 
BRANCH  15  16
HETATM   16  C   UNL     1     -42.239  54.615 -49.976  1.00  0.00     0.060 C 
BRANCH  16  17
HETATM   17  C   UNL     1     -41.308  53.662 -50.663  1.00  0.00    -0.029 A 
HETATM   18  C   UNL     1     -41.200  53.421 -52.071  1.00  0.00    -0.002 A 
HETATM   19  C   UNL     1     -41.861  53.925 -53.209  1.00  0.00     0.014 A 
HETATM   20  C   UNL     1     -40.192  52.474 -52.255  1.00  0.00     0.042 A 
HETATM   21  C   UNL     1     -41.493  53.468 -54.480  1.00  0.00     0.001 A 
HETATM   22  C   UNL     1     -40.481  52.522 -54.629  1.00  0.00     0.002 A 
HETATM   23  C   UNL     1     -39.810  52.006 -53.517  1.00  0.00     0.030 A 
HETATM   24  N   UNL     1     -39.710  52.147 -51.009  1.00  0.00    -0.365 N 
HETATM   25  H   UNL     1     -38.968  51.483 -50.839  1.00  0.00     0.165 HD
HETATM   26  C   UNL     1     -40.377  52.851 -50.044  1.00  0.00     0.096 A 
ENDBRANCH  16  17
ENDBRANCH  15  16
ENDBRANCH  12  15
ENDBRANCH   1  11
BRANCH   8  27
HETATM   27  C   UNL     1     -45.159  61.233 -54.991  1.00  0.00     0.409 C 
HETATM   28  F   UNL     1     -46.039  61.684 -55.909  1.00  0.00    -0.169 F 
HETATM   29  F   UNL     1     -45.887  60.572 -54.052  1.00  0.00    -0.169 F 
HETATM   30  F   UNL     1     -44.623  62.305 -54.371  1.00  0.00    -0.169 F 
ENDBRANCH   8  27
BRANCH   6  31
HETATM   31  C   UNL     1     -45.836  57.909 -58.134  1.00  0.00    -0.033 A 
HETATM   32  C   UNL     1     -44.822  57.020 -58.544  1.00  0.00     0.049 A 
HETATM   33  C   UNL     1     -45.019  56.282 -59.691  1.00  0.00     0.105 A 
HETATM   34  C   UNL     1     -46.170  56.389 -60.431  1.00  0.00     0.105 A 
HETATM   35  O   UNL     1     -44.145  55.382 -60.213  1.00  0.00    -0.323 OA
HETATM   36  O   UNL     1     -46.168  55.567 -61.514  1.00  0.00    -0.323 OA
HETATM   37  C   UNL     1     -47.190  57.242 -60.065  1.00  0.00     0.040 A 
HETATM   38  C   UNL     1     -44.884  54.926 -61.366  1.00  0.00     0.352 A 
HETATM   39  C   UNL     1     -47.018  58.008 -58.906  1.00  0.00     0.012 A 
ENDBRANCH   6  31
TORSDOF 6
ENDMDL
MODEL 10
REMARK VINA RESULT:      -8.7      2.401      3.427
REMARK  6 active torsions:
REMARK  status: ('A' for Active; 'I' for Inactive)
REMARK    1  A    between atoms: C_8  and  C_9 
REMARK    2  A    between atoms: C_9  and  C_10 
REMARK    3  A    between atoms: C_10  and  N_11 
REMARK       I    between atoms: N_11  and  C_12 
REMARK    4  A    between atoms: C_12  and  C_13 
REMARK    5  A    between atoms: C_18  and  C_19 
REMARK    6  A    between atoms: C_29  and  C_30 
ROOT
HETATM    1  C   UNL     1     -43.513  56.908 -56.817  1.00  0.00     0.148 A 
HETATM    2  N   UNL     1     -44.088  57.065 -55.601  1.00  0.00    -0.165 NA
HETATM    3  N   UNL     1     -43.168  56.566 -54.758  1.00  0.00    -0.240 N 
HETATM    4  C   UNL     1     -42.067  56.046 -55.377  1.00  0.00     0.123 A 
HETATM    5  N   UNL     1     -41.105  55.409 -54.680  1.00  0.00    -0.366 N 
HETATM    6  C   UNL     1     -41.282  55.011 -53.284  1.00  0.00     0.118 C 
HETATM    7  C   UNL     1     -42.756  55.134 -52.837  1.00  0.00     0.066 C 
HETATM    8  C   UNL     1     -43.407  56.437 -53.334  1.00  0.00     0.221 C 
HETATM    9  C   UNL     1     -42.232  56.300 -56.710  1.00  0.00     0.088 A 
HETATM   10  H   UNL     1     -40.289  55.019 -55.149  1.00  0.00     0.161 HD
ENDROOT
BRANCH   1  11
HETATM   11  C   UNL     1     -44.184  57.294 -58.068  1.00  0.00     0.272 C 
HETATM   12  N   UNL     1     -44.361  56.250 -58.948  1.00  0.00    -0.355 N 
HETATM   13  H   UNL     1     -44.203  55.326 -58.554  1.00  0.00     0.162 HD
HETATM   14  O   UNL     1     -44.549  58.443 -58.299  1.00  0.00    -0.266 OA
BRANCH  12  15
HETATM   15  C   UNL     1     -45.126  56.414 -60.165  1.00  0.00     0.127 C 
BRANCH  15  16
HETATM   16  C   UNL     1     -46.629  56.226 -59.963  1.00  0.00     0.060 C 
BRANCH  16  17
HETATM   17  C   UNL     1     -47.447  57.025 -60.931  1.00  0.00    -0.029 A 
HETATM   18  C   UNL     1     -47.711  58.433 -60.887  1.00  0.00    -0.002 A 
HETATM   19  C   UNL     1     -47.350  59.474 -60.008  1.00  0.00     0.014 A 
HETATM   20  C   UNL     1     -48.498  58.744 -61.996  1.00  0.00     0.042 A 
HETATM   21  C   UNL     1     -47.782  60.779 -60.270  1.00  0.00     0.001 A 
HETATM   22  C   UNL     1     -48.566  61.057 -61.389  1.00  0.00     0.002 A 
HETATM   23  C   UNL     1     -48.939  60.043 -62.274  1.00  0.00     0.030 A 
HETATM   24  N   UNL     1     -48.709  57.573 -62.685  1.00  0.00    -0.365 N 
HETATM   25  H   UNL     1     -49.246  57.499 -63.538  1.00  0.00     0.165 HD
HETATM   26  C   UNL     1     -48.087  56.532 -62.052  1.00  0.00     0.096 A 
ENDBRANCH  16  17
ENDBRANCH  15  16
ENDBRANCH  12  15
ENDBRANCH   1  11
BRANCH   8  27
HETATM   27  C   UNL     1     -42.899  57.659 -52.605  1.00  0.00     0.409 C 
HETATM   28  F   UNL     1     -43.837  58.622 -52.488  1.00  0.00    -0.169 F 
HETATM   29  F   UNL     1     -42.539  57.316 -51.340  1.00  0.00    -0.169 F 
HETATM   30  F   UNL     1     -41.808  58.213 -53.175  1.00  0.00    -0.169 F 
ENDBRANCH   8  27
BRANCH   6  31
HETATM   31  C   UNL     1     -40.762  53.592 -53.126  1.00  0.00    -0.033 A 
HETATM   32  C   UNL     1     -40.544  53.046 -51.845  1.00  0.00     0.049 A 
HETATM   33  C   UNL     1     -40.109  51.742 -51.750  1.00  0.00     0.105 A 
HETATM   34  C   UNL     1     -39.890  50.970 -52.864  1.00  0.00     0.105 A 
HETATM   35  O   UNL     1     -39.860  51.072 -50.594  1.00  0.00    -0.323 OA
HETATM   36  O   UNL     1     -39.476  49.714 -52.551  1.00  0.00    -0.323 OA
HETATM   37  C   UNL     1     -40.094  51.460 -54.136  1.00  0.00     0.040 A 
HETATM   38  C   UNL     1     -39.467  49.782 -51.109  1.00  0.00     0.352 A 
HETATM   39  C   UNL     1     -40.533  52.783 -54.265  1.00  0.00     0.012 A 
ENDBRANCH   6  31
TORSDOF 6
ENDMDL
