MODEL 1
REMARK VINA RESULT:      -7.8      0.000      0.000
REMARK  4 active torsions:
REMARK  status: ('A' for Active; 'I' for Inactive)
REMARK    1  A    between atoms: C_6  and  C_7 
REMARK       I    between atoms: C_7  and  N_8 
REMARK    2  A    between atoms: N_8  and  C_9 
REMARK    3  A    between atoms: C_9  and  C_10 
REMARK    4  A    between atoms: C_19  and  O_20 
ROOT
HETATM    1  C   UNL     1     -40.602  55.045 -50.437  1.00  0.00     0.078 C 
HETATM    2  C   UNL     1     -40.457  53.873 -51.331  1.00  0.00     0.066 A 
HETATM    3  O   UNL     1     -40.016  52.730 -50.742  1.00  0.00    -0.314 OA
HETATM    4  C   UNL     1     -39.942  51.783 -51.711  1.00  0.00     0.087 A 
HETATM    5  C   UNL     1     -40.336  52.308 -52.940  1.00  0.00     0.019 A 
HETATM    6  C   UNL     1     -40.699  53.674 -52.684  1.00  0.00     0.074 A 
HETATM    7  C   UNL     1     -39.521  50.470 -51.507  1.00  0.00     0.041 A 
HETATM    8  C   UNL     1     -39.488  49.638 -52.629  1.00  0.00     0.039 A 
HETATM    9  C   UNL     1     -39.855  50.131 -53.879  1.00  0.00     0.066 A 
HETATM   10  C   UNL     1     -40.275  51.454 -54.060  1.00  0.00     0.052 A 
ENDROOT
BRANCH   6  11
HETATM   11  C   UNL     1     -41.211  54.716 -53.561  1.00  0.00     0.255 C 
HETATM   12  N   UNL     1     -42.582  54.791 -53.660  1.00  0.00    -0.353 N 
HETATM   13  H   UNL     1     -43.145  54.250 -53.021  1.00  0.00     0.163 HD
HETATM   14  O   UNL     1     -40.472  55.518 -54.126  1.00  0.00    -0.268 OA
BRANCH  12  15
HETATM   15  C   UNL     1     -43.186  55.924 -54.322  1.00  0.00     0.161 C 
BRANCH  15  16
HETATM   16  C   UNL     1     -43.801  56.907 -53.360  1.00  0.00    -0.041 A 
HETATM   17  C   UNL     1     -44.334  58.126 -53.811  1.00  0.00     0.009 A 
HETATM   18  C   UNL     1     -44.943  59.008 -52.917  1.00  0.00     0.001 A 
HETATM   19  C   UNL     1     -45.040  58.678 -51.567  1.00  0.00     0.000 A 
HETATM   20  C   UNL     1     -44.527  57.468 -51.108  1.00  0.00     0.001 A 
HETATM   21  C   UNL     1     -43.910  56.588 -51.999  1.00  0.00     0.009 A 
ENDBRANCH  15  16
ENDBRANCH  12  15
ENDBRANCH   6  11
BRANCH   9  22
HETATM   22  O   UNL     1     -39.816  49.333 -54.986  1.00  0.00    -0.361 OA
HETATM   23  H   UNL     1     -39.968  48.413 -54.717  1.00  0.00     0.217 HD
ENDBRANCH   9  22
TORSDOF 4
ENDMDL
MODEL 2
REMARK VINA RESULT:      -7.8      2.542      7.016
REMARK  4 active torsions:
REMARK  status: ('A' for Active; 'I' for Inactive)
REMARK    1  A    between atoms: C_6  and  C_7 
REMARK       I    between atoms: C_7  and  N_8 
REMARK    2  A    between atoms: N_8  and  C_9 
REMARK    3  A    between atoms: C_9  and  C_10 
REMARK    4  A    between atoms: C_19  and  O_20 
ROOT
HETATM    1  C   UNL     1     -41.554  54.201 -49.938  1.00  0.00     0.078 C 
HETATM    2  C   UNL     1     -41.494  55.441 -50.744  1.00  0.00     0.066 A 
HETATM    3  O   UNL     1     -41.384  56.600 -50.042  1.00  0.00    -0.314 OA
HETATM    4  C   UNL     1     -41.352  57.613 -50.943  1.00  0.00     0.087 A 
HETATM    5  C   UNL     1     -41.440  57.117 -52.241  1.00  0.00     0.019 A 
HETATM    6  C   UNL     1     -41.507  55.688 -52.111  1.00  0.00     0.074 A 
HETATM    7  C   UNL     1     -41.252  58.964 -50.615  1.00  0.00     0.041 A 
HETATM    8  C   UNL     1     -41.254  59.872 -51.676  1.00  0.00     0.039 A 
HETATM    9  C   UNL     1     -41.362  59.417 -52.988  1.00  0.00     0.066 A 
HETATM   10  C   UNL     1     -41.460  58.054 -53.295  1.00  0.00     0.052 A 
ENDROOT
BRANCH   6  11
HETATM   11  C   UNL     1     -41.584  54.631 -53.108  1.00  0.00     0.255 C 
HETATM   12  N   UNL     1     -40.382  54.243 -53.658  1.00  0.00    -0.353 N 
HETATM   13  H   UNL     1     -39.527  54.581 -53.241  1.00  0.00     0.163 HD
HETATM   14  O   UNL     1     -42.641  54.076 -53.396  1.00  0.00    -0.268 OA
BRANCH  12  15
HETATM   15  C   UNL     1     -40.327  53.059 -54.482  1.00  0.00     0.161 C 
BRANCH  15  16
HETATM   16  C   UNL     1     -39.988  51.815 -53.703  1.00  0.00    -0.041 A 
HETATM   17  C   UNL     1     -39.793  51.860 -52.313  1.00  0.00     0.009 A 
HETATM   18  C   UNL     1     -39.525  50.693 -51.595  1.00  0.00     0.001 A 
HETATM   19  C   UNL     1     -39.464  49.467 -52.253  1.00  0.00     0.000 A 
HETATM   20  C   UNL     1     -39.667  49.405 -53.629  1.00  0.00     0.001 A 
HETATM   21  C   UNL     1     -39.927  50.573 -54.350  1.00  0.00     0.009 A 
ENDBRANCH  15  16
ENDBRANCH  12  15
ENDBRANCH   6  11
BRANCH   9  22
HETATM   22  O   UNL     1     -41.378  60.293 -54.036  1.00  0.00    -0.361 OA
HETATM   23  H   UNL     1     -40.930  61.111 -53.768  1.00  0.00     0.217 HD
ENDBRANCH   9  22
TORSDOF 4
ENDMDL
MODEL 3
REMARK VINA RESULT:      -7.7      2.987      4.050
REMARK  4 active torsions:
REMARK  status: ('A' for Active; 'I' for Inactive)
REMARK    1  A    between atoms: C_6  and  C_7 
REMARK       I    between atoms: C_7  and  N_8 
REMARK    2  A    between atoms: N_8  and  C_9 
REMARK    3  A    between atoms: C_9  and  C_10 
REMARK    4  A    between atoms: C_19  and  O_20 
ROOT
HETATM    1  C   UNL     1     -41.689  56.168 -52.214  1.00  0.00     0.078 C 
HETATM    2  C   UNL     1     -41.361  54.809 -52.700  1.00  0.00     0.066 A 
HETATM    3  O   UNL     1     -40.471  54.108 -51.948  1.00  0.00    -0.314 OA
HETATM    4  C   UNL     1     -40.295  52.906 -52.551  1.00  0.00     0.087 A 
HETATM    5  C   UNL     1     -41.074  52.817 -53.702  1.00  0.00     0.019 A 
HETATM    6  C   UNL     1     -41.793  54.057 -53.785  1.00  0.00     0.074 A 
HETATM    7  C   UNL     1     -39.447  51.902 -52.086  1.00  0.00     0.041 A 
HETATM    8  C   UNL     1     -39.376  50.734 -52.849  1.00  0.00     0.039 A 
HETATM    9  C   UNL     1     -40.124  50.615 -54.018  1.00  0.00     0.066 A 
HETATM   10  C   UNL     1     -40.970  51.636 -54.466  1.00  0.00     0.052 A 
ENDROOT
BRANCH   6  11
HETATM   11  C   UNL     1     -42.774  54.540 -54.745  1.00  0.00     0.255 C 
HETATM   12  N   UNL     1     -42.299  54.772 -56.017  1.00  0.00    -0.353 N 
HETATM   13  H   UNL     1     -41.371  54.452 -56.254  1.00  0.00     0.163 HD
HETATM   14  O   UNL     1     -43.961  54.673 -54.459  1.00  0.00    -0.268 OA
BRANCH  12  15
HETATM   15  C   UNL     1     -43.232  55.034 -57.087  1.00  0.00     0.161 C 
BRANCH  15  16
HETATM   16  C   UNL     1     -42.833  56.209 -57.941  1.00  0.00    -0.041 A 
HETATM   17  C   UNL     1     -42.453  57.431 -57.362  1.00  0.00     0.009 A 
HETATM   18  C   UNL     1     -42.040  58.498 -58.162  1.00  0.00     0.001 A 
HETATM   19  C   UNL     1     -41.988  58.354 -59.546  1.00  0.00     0.000 A 
HETATM   20  C   UNL     1     -42.351  57.145 -60.134  1.00  0.00     0.001 A 
HETATM   21  C   UNL     1     -42.772  56.079 -59.336  1.00  0.00     0.009 A 
ENDBRANCH  15  16
ENDBRANCH  12  15
ENDBRANCH   6  11
BRANCH   9  22
HETATM   22  O   UNL     1     -40.055  49.484 -54.782  1.00  0.00    -0.361 OA
HETATM   23  H   UNL     1     -40.936  49.080 -54.825  1.00  0.00     0.217 HD
ENDBRANCH   9  22
TORSDOF 4
ENDMDL
MODEL 4
REMARK VINA RESULT:      -7.6      2.046      7.629
REMARK  4 active torsions:
REMARK  status: ('A' for Active; 'I' for Inactive)
REMARK    1  A    between atoms: C_6  and  C_7 
REMARK       I    between atoms: C_7  and  N_8 
REMARK    2  A    between atoms: N_8  and  C_9 
REMARK    3  A    between atoms: C_9  and  C_10 
REMARK    4  A    between atoms: C_19  and  O_20 
ROOT
HETATM    1  C   UNL     1     -43.235  54.284 -55.344  1.00  0.00     0.078 C 
HETATM    2  C   UNL     1     -43.434  55.347 -54.333  1.00  0.00     0.066 A 
HETATM    3  O   UNL     1     -44.105  56.450 -54.757  1.00  0.00    -0.314 OA
HETATM    4  C   UNL     1     -44.181  57.303 -53.705  1.00  0.00     0.087 A 
HETATM    5  C   UNL     1     -43.558  56.755 -52.586  1.00  0.00     0.019 A 
HETATM    6  C   UNL     1     -43.091  55.460 -52.992  1.00  0.00     0.074 A 
HETATM    7  C   UNL     1     -44.790  58.556 -53.741  1.00  0.00     0.041 A 
HETATM    8  C   UNL     1     -44.755  59.308 -52.564  1.00  0.00     0.039 A 
HETATM    9  C   UNL     1     -44.124  58.804 -51.429  1.00  0.00     0.066 A 
HETATM   10  C   UNL     1     -43.518  57.541 -51.416  1.00  0.00     0.052 A 
ENDROOT
BRANCH   6  11
HETATM   11  C   UNL     1     -42.395  54.412 -52.260  1.00  0.00     0.255 C 
HETATM   12  N   UNL     1     -41.054  54.278 -52.543  1.00  0.00    -0.353 N 
HETATM   13  H   UNL     1     -40.603  54.988 -53.100  1.00  0.00     0.163 HD
HETATM   14  O   UNL     1     -42.950  53.735 -51.398  1.00  0.00    -0.268 OA
BRANCH  12  15
HETATM   15  C   UNL     1     -40.234  53.426 -51.714  1.00  0.00     0.161 C 
BRANCH  15  16
HETATM   16  C   UNL     1     -39.965  52.081 -52.337  1.00  0.00    -0.041 A 
HETATM   17  C   UNL     1     -39.687  50.957 -51.544  1.00  0.00     0.009 A 
HETATM   18  C   UNL     1     -39.485  49.706 -52.130  1.00  0.00     0.001 A 
HETATM   19  C   UNL     1     -39.572  49.561 -53.513  1.00  0.00     0.000 A 
HETATM   20  C   UNL     1     -39.860  50.665 -54.312  1.00  0.00     0.001 A 
HETATM   21  C   UNL     1     -40.054  51.918 -53.727  1.00  0.00     0.009 A 
ENDBRANCH  15  16
ENDBRANCH  12  15
ENDBRANCH   6  11
BRANCH   9  22
HETATM   22  O   UNL     1     -44.070  59.532 -50.276  1.00  0.00    -0.361 OA
HETATM   23  H   UNL     1     -44.015  58.924 -49.522  1.00  0.00     0.217 HD
ENDBRANCH   9  22
TORSDOF 4
ENDMDL
MODEL 5
REMARK VINA RESULT:      -7.3      2.834      6.939
REMARK  4 active torsions:
REMARK  status: ('A' for Active; 'I' for Inactive)
REMARK    1  A    between atoms: C_6  and  C_7 
REMARK       I    between atoms: C_7  and  N_8 
REMARK    2  A    between atoms: N_8  and  C_9 
REMARK    3  A    between atoms: C_9  and  C_10 
REMARK    4  A    between atoms: C_19  and  O_20 
ROOT
HETATM    1  C   UNL     1     -40.846  59.112 -52.671  1.00  0.00     0.078 C 
HETATM    2  C   UNL     1     -41.425  58.388 -53.825  1.00  0.00     0.066 A 
HETATM    3  O   UNL     1     -41.564  59.110 -54.969  1.00  0.00    -0.314 OA
HETATM    4  C   UNL     1     -42.110  58.288 -55.899  1.00  0.00     0.087 A 
HETATM    5  C   UNL     1     -42.330  57.021 -55.363  1.00  0.00     0.019 A 
HETATM    6  C   UNL     1     -41.855  57.080 -54.010  1.00  0.00     0.074 A 
HETATM    7  C   UNL     1     -42.417  58.661 -57.206  1.00  0.00     0.041 A 
HETATM    8  C   UNL     1     -42.996  57.685 -58.021  1.00  0.00     0.039 A 
HETATM    9  C   UNL     1     -43.250  56.412 -57.517  1.00  0.00     0.066 A 
HETATM   10  C   UNL     1     -42.933  56.059 -56.199  1.00  0.00     0.052 A 
ENDROOT
BRANCH   6  11
HETATM   11  C   UNL     1     -41.793  56.070 -52.964  1.00  0.00     0.255 C 
HETATM   12  N   UNL     1     -40.883  55.057 -53.169  1.00  0.00    -0.353 N 
HETATM   13  H   UNL     1     -40.216  55.148 -53.922  1.00  0.00     0.163 HD
HETATM   14  O   UNL     1     -42.460  56.147 -51.936  1.00  0.00    -0.268 OA
BRANCH  12  15
HETATM   15  C   UNL     1     -40.588  54.138 -52.095  1.00  0.00     0.161 C 
BRANCH  15  16
HETATM   16  C   UNL     1     -40.327  52.734 -52.576  1.00  0.00    -0.041 A 
HETATM   17  C   UNL     1     -40.601  52.359 -53.901  1.00  0.00     0.009 A 
HETATM   18  C   UNL     1     -40.311  51.068 -54.348  1.00  0.00     0.001 A 
HETATM   19  C   UNL     1     -39.731  50.144 -53.483  1.00  0.00     0.000 A 
HETATM   20  C   UNL     1     -39.442  50.506 -52.170  1.00  0.00     0.001 A 
HETATM   21  C   UNL     1     -39.739  51.793 -51.718  1.00  0.00     0.009 A 
ENDBRANCH  15  16
ENDBRANCH  12  15
ENDBRANCH   6  11
BRANCH   9  22
HETATM   22  O   UNL     1     -43.827  55.451 -58.297  1.00  0.00    -0.361 OA
HETATM   23  H   UNL     1     -44.591  55.081 -57.825  1.00  0.00     0.217 HD
ENDBRANCH   9  22
TORSDOF 4
ENDMDL
MODEL 6
REMARK VINA RESULT:      -7.3      2.275      7.324
REMARK  4 active torsions:
REMARK  status: ('A' for Active; 'I' for Inactive)
REMARK    1  A    between atoms: C_6  and  C_7 
REMARK       I    between atoms: C_7  and  N_8 
REMARK    2  A    between atoms: N_8  and  C_9 
REMARK    3  A    between atoms: C_9  and  C_10 
REMARK    4  A    between atoms: C_19  and  O_20 
ROOT
HETATM    1  C   UNL     1     -43.141  54.637 -50.608  1.00  0.00     0.078 C 
HETATM    2  C   UNL     1     -43.647  55.795 -51.379  1.00  0.00     0.066 A 
HETATM    3  O   UNL     1     -44.227  56.785 -50.649  1.00  0.00    -0.314 OA
HETATM    4  C   UNL     1     -44.629  57.743 -51.522  1.00  0.00     0.087 A 
HETATM    5  C   UNL     1     -44.310  57.380 -52.828  1.00  0.00     0.019 A 
HETATM    6  C   UNL     1     -43.642  56.113 -52.731  1.00  0.00     0.074 A 
HETATM    7  C   UNL     1     -45.279  58.922 -51.161  1.00  0.00     0.041 A 
HETATM    8  C   UNL     1     -45.638  59.786 -52.199  1.00  0.00     0.039 A 
HETATM    9  C   UNL     1     -45.355  59.450 -53.520  1.00  0.00     0.066 A 
HETATM   10  C   UNL     1     -44.701  58.259 -53.859  1.00  0.00     0.052 A 
ENDROOT
BRANCH   6  11
HETATM   11  C   UNL     1     -43.054  55.252 -53.746  1.00  0.00     0.255 C 
HETATM   12  N   UNL     1     -41.678  55.248 -53.800  1.00  0.00    -0.353 N 
HETATM   13  H   UNL     1     -41.162  55.696 -53.056  1.00  0.00     0.163 HD
HETATM   14  O   UNL     1     -43.736  54.528 -54.467  1.00  0.00    -0.268 OA
BRANCH  12  15
HETATM   15  C   UNL     1     -41.001  54.266 -54.614  1.00  0.00     0.161 C 
BRANCH  15  16
HETATM   16  C   UNL     1     -40.463  53.109 -53.813  1.00  0.00    -0.041 A 
HETATM   17  C   UNL     1     -40.259  53.217 -52.428  1.00  0.00     0.009 A 
HETATM   18  C   UNL     1     -39.803  52.123 -51.689  1.00  0.00     0.001 A 
HETATM   19  C   UNL     1     -39.560  50.906 -52.322  1.00  0.00     0.000 A 
HETATM   20  C   UNL     1     -39.769  50.781 -53.693  1.00  0.00     0.001 A 
HETATM   21  C   UNL     1     -40.216  51.876 -54.435  1.00  0.00     0.009 A 
ENDBRANCH  15  16
ENDBRANCH  12  15
ENDBRANCH   6  11
BRANCH   9  22
HETATM   22  O   UNL     1     -45.712  60.277 -54.546  1.00  0.00    -0.361 OA
HETATM   23  H   UNL     1     -46.525  60.748 -54.303  1.00  0.00     0.217 HD
ENDBRANCH   9  22
TORSDOF 4
ENDMDL
MODEL 7
REMARK VINA RESULT:      -7.2      3.442      7.298
REMARK  4 active torsions:
REMARK  status: ('A' for Active; 'I' for Inactive)
REMARK    1  A    between atoms: C_6  and  C_7 
REMARK       I    between atoms: C_7  and  N_8 
REMARK    2  A    between atoms: N_8  and  C_9 
REMARK    3  A    between atoms: C_9  and  C_10 
REMARK    4  A    between atoms: C_19  and  O_20 
ROOT
HETATM    1  C   UNL     1     -41.830  59.360 -54.058  1.00  0.00     0.078 C 
HETATM    2  C   UNL     1     -42.067  58.674 -55.348  1.00  0.00     0.066 A 
HETATM    3  O   UNL     1     -41.832  59.413 -56.465  1.00  0.00    -0.314 OA
HETATM    4  C   UNL     1     -42.109  58.624 -57.533  1.00  0.00     0.087 A 
HETATM    5  C   UNL     1     -42.526  57.363 -57.116  1.00  0.00     0.019 A 
HETATM    6  C   UNL     1     -42.473  57.388 -55.681  1.00  0.00     0.074 A 
HETATM    7  C   UNL     1     -41.999  59.024 -58.864  1.00  0.00     0.041 A 
HETATM    8  C   UNL     1     -42.347  58.083 -59.836  1.00  0.00     0.039 A 
HETATM    9  C   UNL     1     -42.788  56.816 -59.458  1.00  0.00     0.066 A 
HETATM   10  C   UNL     1     -42.890  56.436 -58.114  1.00  0.00     0.052 A 
ENDROOT
BRANCH   6  11
HETATM   11  C   UNL     1     -42.763  56.365 -54.687  1.00  0.00     0.255 C 
HETATM   12  N   UNL     1     -41.665  55.805 -54.071  1.00  0.00    -0.353 N 
HETATM   13  H   UNL     1     -40.760  56.229 -54.214  1.00  0.00     0.163 HD
HETATM   14  O   UNL     1     -43.911  56.065 -54.371  1.00  0.00    -0.268 OA
BRANCH  12  15
HETATM   15  C   UNL     1     -41.854  54.952 -52.922  1.00  0.00     0.161 C 
BRANCH  15  16
HETATM   16  C   UNL     1     -41.104  53.649 -53.028  1.00  0.00    -0.041 A 
HETATM   17  C   UNL     1     -41.022  52.956 -54.246  1.00  0.00     0.009 A 
HETATM   18  C   UNL     1     -40.285  51.774 -54.342  1.00  0.00     0.001 A 
HETATM   19  C   UNL     1     -39.611  51.278 -53.228  1.00  0.00     0.000 A 
HETATM   20  C   UNL     1     -39.674  51.962 -52.016  1.00  0.00     0.001 A 
HETATM   21  C   UNL     1     -40.417  53.140 -51.916  1.00  0.00     0.009 A 
ENDBRANCH  15  16
ENDBRANCH  12  15
ENDBRANCH   6  11
BRANCH   9  22
HETATM   22  O   UNL     1     -43.144  55.890 -60.396  1.00  0.00    -0.361 OA
HETATM   23  H   UNL     1     -43.173  55.014 -59.977  1.00  0.00     0.217 HD
ENDBRANCH   9  22
TORSDOF 4
ENDMDL
MODEL 8
REMARK VINA RESULT:      -7.2      2.702      7.109
REMARK  4 active torsions:
REMARK  status: ('A' for Active; 'I' for Inactive)
REMARK    1  A    between atoms: C_6  and  C_7 
REMARK       I    between atoms: C_7  and  N_8 
REMARK    2  A    between atoms: N_8  and  C_9 
REMARK    3  A    between atoms: C_9  and  C_10 
REMARK    4  A    between atoms: C_19  and  O_20 
ROOT
HETATM    1  C   UNL     1     -42.387  58.040 -57.399  1.00  0.00     0.078 C 
HETATM    2  C   UNL     1     -42.189  58.068 -55.932  1.00  0.00     0.066 A 
HETATM    3  O   UNL     1     -42.287  59.290 -55.344  1.00  0.00    -0.314 OA
HETATM    4  C   UNL     1     -42.070  59.114 -54.017  1.00  0.00     0.087 A 
HETATM    5  C   UNL     1     -41.830  57.772 -53.733  1.00  0.00     0.019 A 
HETATM    6  C   UNL     1     -41.934  57.082 -54.988  1.00  0.00     0.074 A 
HETATM    7  C   UNL     1     -42.079  60.137 -53.069  1.00  0.00     0.041 A 
HETATM    8  C   UNL     1     -41.814  59.772 -51.747  1.00  0.00     0.039 A 
HETATM    9  C   UNL     1     -41.549  58.443 -51.425  1.00  0.00     0.066 A 
HETATM   10  C   UNL     1     -41.547  57.432 -52.394  1.00  0.00     0.052 A 
ENDROOT
BRANCH   6  11
HETATM   11  C   UNL     1     -41.813  55.671 -55.326  1.00  0.00     0.255 C 
HETATM   12  N   UNL     1     -40.581  55.105 -55.084  1.00  0.00    -0.353 N 
HETATM   13  H   UNL     1     -39.901  55.630 -54.555  1.00  0.00     0.163 HD
HETATM   14  O   UNL     1     -42.763  55.012 -55.739  1.00  0.00    -0.268 OA
BRANCH  12  15
HETATM   15  C   UNL     1     -40.428  53.672 -55.174  1.00  0.00     0.161 C 
BRANCH  15  16
HETATM   16  C   UNL     1     -40.258  53.013 -53.830  1.00  0.00    -0.041 A 
HETATM   17  C   UNL     1     -39.714  51.724 -53.718  1.00  0.00     0.009 A 
HETATM   18  C   UNL     1     -39.518  51.142 -52.464  1.00  0.00     0.001 A 
HETATM   19  C   UNL     1     -39.850  51.846 -51.308  1.00  0.00     0.000 A 
HETATM   20  C   UNL     1     -40.379  53.130 -51.404  1.00  0.00     0.001 A 
HETATM   21  C   UNL     1     -40.584  53.710 -52.657  1.00  0.00     0.009 A 
ENDBRANCH  15  16
ENDBRANCH  12  15
ENDBRANCH   6  11
BRANCH   9  22
HETATM   22  O   UNL     1     -41.276  58.073 -50.139  1.00  0.00    -0.361 OA
HETATM   23  H   UNL     1     -40.314  58.020 -50.026  1.00  0.00     0.217 HD
ENDBRANCH   9  22
TORSDOF 4
ENDMDL
MODEL 9
REMARK VINA RESULT:      -7.1     14.216     15.506
REMARK  4 active torsions:
REMARK  status: ('A' for Active; 'I' for Inactive)
REMARK    1  A    between atoms: C_6  and  C_7 
REMARK       I    between atoms: C_7  and  N_8 
REMARK    2  A    between atoms: N_8  and  C_9 
REMARK    3  A    between atoms: C_9  and  C_10 
REMARK    4  A    between atoms: C_19  and  O_20 
ROOT
HETATM    1  C   UNL     1     -38.032  40.399 -52.069  1.00  0.00     0.078 C 
HETATM    2  C   UNL     1     -36.656  40.263 -51.542  1.00  0.00     0.066 A 
HETATM    3  O   UNL     1     -36.491  39.359 -50.539  1.00  0.00    -0.314 OA
HETATM    4  C   UNL     1     -35.181  39.383 -50.188  1.00  0.00     0.087 A 
HETATM    5  C   UNL     1     -34.483  40.305 -50.965  1.00  0.00     0.019 A 
HETATM    6  C   UNL     1     -35.447  40.863 -51.871  1.00  0.00     0.074 A 
HETATM    7  C   UNL     1     -34.614  38.599 -49.185  1.00  0.00     0.041 A 
HETATM    8  C   UNL     1     -33.249  38.772 -48.946  1.00  0.00     0.039 A 
HETATM    9  C   UNL     1     -32.520  39.699 -49.687  1.00  0.00     0.066 A 
HETATM   10  C   UNL     1     -33.110  40.476 -50.692  1.00  0.00     0.052 A 
ENDROOT
BRANCH   6  11
HETATM   11  C   UNL     1     -35.314  41.849 -52.933  1.00  0.00     0.255 C 
HETATM   12  N   UNL     1     -35.132  41.339 -54.199  1.00  0.00    -0.353 N 
HETATM   13  H   UNL     1     -35.258  40.348 -54.346  1.00  0.00     0.163 HD
HETATM   14  O   UNL     1     -35.421  43.055 -52.726  1.00  0.00    -0.268 OA
BRANCH  12  15
HETATM   15  C   UNL     1     -35.214  42.221 -55.339  1.00  0.00     0.161 C 
BRANCH  15  16
HETATM   16  C   UNL     1     -36.230  41.773 -56.357  1.00  0.00    -0.041 A 
HETATM   17  C   UNL     1     -35.984  41.904 -57.734  1.00  0.00     0.009 A 
HETATM   18  C   UNL     1     -36.914  41.442 -58.668  1.00  0.00     0.001 A 
HETATM   19  C   UNL     1     -38.091  40.833 -58.240  1.00  0.00     0.000 A 
HETATM   20  C   UNL     1     -38.343  40.686 -56.878  1.00  0.00     0.001 A 
HETATM   21  C   UNL     1     -37.418  41.154 -55.942  1.00  0.00     0.009 A 
ENDBRANCH  15  16
ENDBRANCH  12  15
ENDBRANCH   6  11
BRANCH   9  22
HETATM   22  O   UNL     1     -31.187  39.889 -49.457  1.00  0.00    -0.361 OA
HETATM   23  H   UNL     1     -30.879  39.220 -48.824  1.00  0.00     0.217 HD
ENDBRANCH   9  22
TORSDOF 4
ENDMDL
MODEL 10
REMARK VINA RESULT:      -7.0      2.373      6.847
REMARK  4 active torsions:
REMARK  status: ('A' for Active; 'I' for Inactive)
REMARK    1  A    between atoms: C_6  and  C_7 
REMARK       I    between atoms: C_7  and  N_8 
REMARK    2  A    between atoms: N_8  and  C_9 
REMARK    3  A    between atoms: C_9  and  C_10 
REMARK    4  A    between atoms: C_19  and  O_20 
ROOT
HETATM    1  C   UNL     1     -44.860  58.487 -51.318  1.00  0.00     0.078 C 
HETATM    2  C   UNL     1     -44.371  58.018 -52.634  1.00  0.00     0.066 A 
HETATM    3  O   UNL     1     -45.025  58.511 -53.719  1.00  0.00    -0.314 OA
HETATM    4  C   UNL     1     -44.445  57.967 -54.818  1.00  0.00     0.087 A 
HETATM    5  C   UNL     1     -43.405  57.116 -54.452  1.00  0.00     0.019 A 
HETATM    6  C   UNL     1     -43.340  57.170 -53.019  1.00  0.00     0.074 A 
HETATM    7  C   UNL     1     -44.840  58.220 -56.131  1.00  0.00     0.041 A 
HETATM    8  C   UNL     1     -44.139  57.553 -57.139  1.00  0.00     0.039 A 
HETATM    9  C   UNL     1     -43.105  56.678 -56.813  1.00  0.00     0.066 A 
HETATM   10  C   UNL     1     -42.725  56.440 -55.487  1.00  0.00     0.052 A 
ENDROOT
BRANCH   6  11
HETATM   11  C   UNL     1     -42.448  56.523 -52.069  1.00  0.00     0.255 C 
HETATM   12  N   UNL     1     -42.588  55.158 -51.954  1.00  0.00    -0.353 N 
HETATM   13  H   UNL     1     -43.165  54.672 -52.625  1.00  0.00     0.163 HD
HETATM   14  O   UNL     1     -41.583  57.143 -51.455  1.00  0.00    -0.268 OA
BRANCH  12  15
HETATM   15  C   UNL     1     -41.607  54.402 -51.212  1.00  0.00     0.161 C 
BRANCH  15  16
HETATM   16  C   UNL     1     -40.906  53.366 -52.051  1.00  0.00    -0.041 A 
HETATM   17  C   UNL     1     -39.990  52.468 -51.479  1.00  0.00     0.009 A 
HETATM   18  C   UNL     1     -39.381  51.482 -52.257  1.00  0.00     0.001 A 
HETATM   19  C   UNL     1     -39.691  51.371 -53.611  1.00  0.00     0.000 A 
HETATM   20  C   UNL     1     -40.607  52.246 -54.189  1.00  0.00     0.001 A 
HETATM   21  C   UNL     1     -41.210  53.239 -53.414  1.00  0.00     0.009 A 
ENDBRANCH  15  16
ENDBRANCH  12  15
ENDBRANCH   6  11
BRANCH   9  22
HETATM   22  O   UNL     1     -42.419  56.010 -57.786  1.00  0.00    -0.361 OA
HETATM   23  H   UNL     1     -42.990  55.917 -58.566  1.00  0.00     0.217 HD
ENDBRANCH   9  22
TORSDOF 4
ENDMDL
