MODEL 1
REMARK VINA RESULT:      -9.1      0.000      0.000
REMARK  8 active torsions:
REMARK  status: ('A' for Active; 'I' for Inactive)
REMARK    1  A    between atoms: C_4  and  O_5 
REMARK    2  A    between atoms: O_5  and  C_6 
REMARK    3  A    between atoms: C_8  and  C_9 
REMARK    4  A    between atoms: C_9  and  N_10 
REMARK    5  A    between atoms: C_9  and  C_14 
REMARK       I    between atoms: N_10  and  C_11 
REMARK       I    between atoms: C_11  and  N_12 
REMARK    6  A    between atoms: C_14  and  C_15 
REMARK       I    between atoms: C_15  and  N_16 
REMARK    7  A    between atoms: N_16  and  N_17 
REMARK       I    between atoms: N_17  and  C_18 
REMARK    8  A    between atoms: C_18  and  C_19 
ROOT
HETATM    1  C   UNL     1     -43.048  55.484 -52.061  1.00  0.00     0.128 C 
ENDROOT
BRANCH   1   2
HETATM    2  C   UNL     1     -41.984  54.925 -51.120  1.00  0.00    -0.032 A 
HETATM    3  C   UNL     1     -40.987  54.033 -51.551  1.00  0.00     0.046 A 
HETATM    4  C   UNL     1     -40.030  53.538 -50.660  1.00  0.00     0.076 A 
HETATM    5  C   UNL     1     -40.023  53.960 -49.331  1.00  0.00     0.037 A 
HETATM    6  C   UNL     1     -41.018  54.824 -48.879  1.00  0.00     0.003 A 
HETATM    7  C   UNL     1     -41.997  55.289 -49.760  1.00  0.00     0.009 A 
BRANCH   4   8
HETATM    8  O   UNL     1     -39.079  52.696 -51.191  1.00  0.00    -0.311 OA
BRANCH   8   9
HETATM    9  C   UNL     1     -39.463  51.805 -52.168  1.00  0.00     0.076 A 
HETATM   10  C   UNL     1     -39.824  52.188 -53.462  1.00  0.00     0.037 A 
HETATM   11  C   UNL     1     -40.169  51.214 -54.402  1.00  0.00     0.003 A 
HETATM   12  C   UNL     1     -40.129  49.862 -54.057  1.00  0.00     0.000 A 
HETATM   13  C   UNL     1     -39.737  49.480 -52.774  1.00  0.00     0.003 A 
HETATM   14  C   UNL     1     -39.398  50.452 -51.831  1.00  0.00     0.037 A 
ENDBRANCH   8   9
ENDBRANCH   4   8
ENDBRANCH   1   2
BRANCH   1  15
HETATM   15  N   UNL     1     -44.074  56.255 -51.368  1.00  0.00    -0.334 N 
HETATM   16  C   UNL     1     -44.345  57.539 -51.731  1.00  0.00     0.314 C 
HETATM   17  N   UNL     1     -45.411  58.044 -51.062  1.00  0.00    -0.352 N 
HETATM   18  O   UNL     1     -43.724  58.195 -52.553  1.00  0.00    -0.248 OA
HETATM   19  H   UNL     1     -45.553  57.722 -50.116  1.00  0.00     0.160 HD
HETATM   20  H   UNL     1     -45.557  59.035 -51.211  1.00  0.00     0.160 HD
HETATM   21  H   UNL     1     -44.904  55.728 -51.112  1.00  0.00     0.165 HD
ENDBRANCH   1  15
BRANCH   1  22
HETATM   22  C   UNL     1     -43.687  54.395 -52.938  1.00  0.00     0.134 C 
BRANCH  22  23
HETATM   23  C   UNL     1     -43.551  54.731 -54.408  1.00  0.00     0.238 C 
HETATM   24  N   UNL     1     -44.141  55.923 -54.774  1.00  0.00    -0.267 N 
HETATM   25  H   UNL     1     -44.298  56.663 -54.090  1.00  0.00     0.190 HD
HETATM   26  O   UNL     1     -42.973  53.990 -55.204  1.00  0.00    -0.272 OA
BRANCH  24  27
HETATM   27  N   UNL     1     -43.923  56.373 -56.080  1.00  0.00    -0.262 N 
HETATM   28  C   UNL     1     -42.887  57.254 -56.319  1.00  0.00     0.288 C 
HETATM   29  O   UNL     1     -42.242  57.796 -55.425  1.00  0.00    -0.264 OA
HETATM   30  H   UNL     1     -44.304  55.821 -56.853  1.00  0.00     0.190 HD
BRANCH  28  31
HETATM   31  C   UNL     1     -42.612  57.492 -57.770  1.00  0.00     0.125 A 
HETATM   32  N   UNL     1     -42.209  58.749 -58.108  1.00  0.00    -0.255 NA
HETATM   33  C   UNL     1     -41.947  58.966 -59.414  1.00  0.00     0.117 A 
HETATM   34  C   UNL     1     -42.070  57.995 -60.396  1.00  0.00     0.019 A 
HETATM   35  C   UNL     1     -42.488  56.720 -60.023  1.00  0.00     0.004 A 
HETATM   36  C   UNL     1     -42.766  56.457 -58.684  1.00  0.00     0.037 A 
ENDBRANCH  28  31
ENDBRANCH  24  27
ENDBRANCH  22  23
ENDBRANCH   1  22
TORSDOF 8
ENDMDL
MODEL 2
REMARK VINA RESULT:      -9.0      4.162      7.520
REMARK  8 active torsions:
REMARK  status: ('A' for Active; 'I' for Inactive)
REMARK    1  A    between atoms: C_4  and  O_5 
REMARK    2  A    between atoms: O_5  and  C_6 
REMARK    3  A    between atoms: C_8  and  C_9 
REMARK    4  A    between atoms: C_9  and  N_10 
REMARK    5  A    between atoms: C_9  and  C_14 
REMARK       I    between atoms: N_10  and  C_11 
REMARK       I    between atoms: C_11  and  N_12 
REMARK    6  A    between atoms: C_14  and  C_15 
REMARK       I    between atoms: C_15  and  N_16 
REMARK    7  A    between atoms: N_16  and  N_17 
REMARK       I    between atoms: N_17  and  C_18 
REMARK    8  A    between atoms: C_18  and  C_19 
ROOT
HETATM    1  C   UNL     1     -42.401  57.933 -51.818  1.00  0.00     0.128 C 
ENDROOT
BRANCH   1   2
HETATM    2  C   UNL     1     -42.374  56.421 -51.608  1.00  0.00    -0.032 A 
HETATM    3  C   UNL     1     -41.206  55.656 -51.768  1.00  0.00     0.046 A 
HETATM    4  C   UNL     1     -41.218  54.272 -51.571  1.00  0.00     0.076 A 
HETATM    5  C   UNL     1     -42.389  53.632 -51.164  1.00  0.00     0.037 A 
HETATM    6  C   UNL     1     -43.562  54.369 -51.023  1.00  0.00     0.003 A 
HETATM    7  C   UNL     1     -43.558  55.746 -51.257  1.00  0.00     0.009 A 
BRANCH   4   8
HETATM    8  O   UNL     1     -40.014  53.623 -51.723  1.00  0.00    -0.311 OA
BRANCH   8   9
HETATM    9  C   UNL     1     -39.999  52.410 -52.373  1.00  0.00     0.076 A 
HETATM   10  C   UNL     1     -40.240  52.265 -53.742  1.00  0.00     0.037 A 
HETATM   11  C   UNL     1     -40.172  51.000 -54.328  1.00  0.00     0.003 A 
HETATM   12  C   UNL     1     -39.841  49.887 -53.554  1.00  0.00     0.000 A 
HETATM   13  C   UNL     1     -39.570  50.037 -52.194  1.00  0.00     0.003 A 
HETATM   14  C   UNL     1     -39.643  51.300 -51.605  1.00  0.00     0.037 A 
ENDBRANCH   8   9
ENDBRANCH   4   8
ENDBRANCH   1   2
BRANCH   1  15
HETATM   15  N   UNL     1     -41.623  58.661 -50.822  1.00  0.00    -0.334 N 
HETATM   16  C   UNL     1     -40.430  59.231 -51.149  1.00  0.00     0.314 C 
HETATM   17  N   UNL     1     -39.922  59.970 -50.131  1.00  0.00    -0.352 N 
HETATM   18  O   UNL     1     -39.851  59.112 -52.217  1.00  0.00    -0.248 OA
HETATM   19  H   UNL     1     -40.116  59.652 -49.193  1.00  0.00     0.160 HD
HETATM   20  H   UNL     1     -38.978  60.296 -50.293  1.00  0.00     0.160 HD
HETATM   21  H   UNL     1     -42.173  59.225 -50.181  1.00  0.00     0.165 HD
ENDBRANCH   1  15
BRANCH   1  22
HETATM   22  C   UNL     1     -43.832  58.489 -51.903  1.00  0.00     0.134 C 
BRANCH  22  23
HETATM   23  C   UNL     1     -43.981  59.737 -51.060  1.00  0.00     0.238 C 
HETATM   24  N   UNL     1     -44.787  59.580 -49.951  1.00  0.00    -0.267 N 
HETATM   25  H   UNL     1     -44.937  58.660 -49.538  1.00  0.00     0.190 HD
HETATM   26  O   UNL     1     -43.438  60.802 -51.356  1.00  0.00    -0.272 OA
BRANCH  24  27
HETATM   27  N   UNL     1     -44.846  60.643 -49.045  1.00  0.00    -0.262 N 
HETATM   28  C   UNL     1     -45.559  60.483 -47.872  1.00  0.00     0.288 C 
HETATM   29  O   UNL     1     -46.282  59.515 -47.648  1.00  0.00    -0.264 OA
HETATM   30  H   UNL     1     -44.131  61.372 -49.105  1.00  0.00     0.190 HD
BRANCH  28  31
HETATM   31  C   UNL     1     -45.372  61.595 -46.890  1.00  0.00     0.125 A 
HETATM   32  N   UNL     1     -45.629  62.852 -47.348  1.00  0.00    -0.255 NA
HETATM   33  C   UNL     1     -45.476  63.858 -46.461  1.00  0.00     0.117 A 
HETATM   34  C   UNL     1     -45.077  63.673 -45.146  1.00  0.00     0.019 A 
HETATM   35  C   UNL     1     -44.818  62.377 -44.706  1.00  0.00     0.004 A 
HETATM   36  C   UNL     1     -44.966  61.313 -45.591  1.00  0.00     0.037 A 
ENDBRANCH  28  31
ENDBRANCH  24  27
ENDBRANCH  22  23
ENDBRANCH   1  22
TORSDOF 8
ENDMDL
MODEL 3
REMARK VINA RESULT:      -8.8      2.294      2.969
REMARK  8 active torsions:
REMARK  status: ('A' for Active; 'I' for Inactive)
REMARK    1  A    between atoms: C_4  and  O_5 
REMARK    2  A    between atoms: O_5  and  C_6 
REMARK    3  A    between atoms: C_8  and  C_9 
REMARK    4  A    between atoms: C_9  and  N_10 
REMARK    5  A    between atoms: C_9  and  C_14 
REMARK       I    between atoms: N_10  and  C_11 
REMARK       I    between atoms: C_11  and  N_12 
REMARK    6  A    between atoms: C_14  and  C_15 
REMARK       I    between atoms: C_15  and  N_16 
REMARK    7  A    between atoms: N_16  and  N_17 
REMARK       I    between atoms: N_17  and  C_18 
REMARK    8  A    between atoms: C_18  and  C_19 
ROOT
HETATM    1  C   UNL     1     -41.541  57.719 -51.977  1.00  0.00     0.128 C 
ENDROOT
BRANCH   1   2
HETATM    2  C   UNL     1     -41.732  56.247 -51.622  1.00  0.00    -0.032 A 
HETATM    3  C   UNL     1     -40.673  55.323 -51.636  1.00  0.00     0.046 A 
HETATM    4  C   UNL     1     -40.885  53.980 -51.309  1.00  0.00     0.076 A 
HETATM    5  C   UNL     1     -42.150  53.545 -50.915  1.00  0.00     0.037 A 
HETATM    6  C   UNL     1     -43.216  54.441 -50.918  1.00  0.00     0.003 A 
HETATM    7  C   UNL     1     -43.013  55.774 -51.282  1.00  0.00     0.009 A 
BRANCH   4   8
HETATM    8  O   UNL     1     -39.775  53.166 -51.324  1.00  0.00    -0.311 OA
BRANCH   8   9
HETATM    9  C   UNL     1     -39.786  52.056 -52.138  1.00  0.00     0.076 A 
HETATM   10  C   UNL     1     -39.563  50.757 -51.673  1.00  0.00     0.037 A 
HETATM   11  C   UNL     1     -39.624  49.682 -52.563  1.00  0.00     0.003 A 
HETATM   12  C   UNL     1     -39.931  49.903 -53.906  1.00  0.00     0.000 A 
HETATM   13  C   UNL     1     -40.185  51.196 -54.362  1.00  0.00     0.003 A 
HETATM   14  C   UNL     1     -40.118  52.272 -53.476  1.00  0.00     0.037 A 
ENDBRANCH   8   9
ENDBRANCH   4   8
ENDBRANCH   1   2
BRANCH   1  15
HETATM   15  N   UNL     1     -40.616  58.407 -51.083  1.00  0.00    -0.334 N 
HETATM   16  C   UNL     1     -39.580  59.138 -51.579  1.00  0.00     0.314 C 
HETATM   17  N   UNL     1     -38.912  59.804 -50.604  1.00  0.00    -0.352 N 
HETATM   18  O   UNL     1     -39.255  59.210 -52.754  1.00  0.00    -0.248 OA
HETATM   19  H   UNL     1     -38.859  59.358 -49.700  1.00  0.00     0.160 HD
HETATM   20  H   UNL     1     -38.060  60.248 -50.921  1.00  0.00     0.160 HD
HETATM   21  H   UNL     1     -41.046  58.827 -50.265  1.00  0.00     0.165 HD
ENDBRANCH   1  15
BRANCH   1  22
HETATM   22  C   UNL     1     -42.875  58.479 -52.067  1.00  0.00     0.134 C 
BRANCH  22  23
HETATM   23  C   UNL     1     -43.384  58.517 -53.493  1.00  0.00     0.238 C 
HETATM   24  N   UNL     1     -42.430  58.216 -54.443  1.00  0.00    -0.267 N 
HETATM   25  H   UNL     1     -41.610  57.660 -54.205  1.00  0.00     0.190 HD
HETATM   26  O   UNL     1     -44.548  58.809 -53.770  1.00  0.00    -0.272 OA
BRANCH  24  27
HETATM   27  N   UNL     1     -42.863  58.081 -55.765  1.00  0.00    -0.262 N 
HETATM   28  C   UNL     1     -42.723  56.858 -56.393  1.00  0.00     0.288 C 
HETATM   29  O   UNL     1     -42.090  55.921 -55.912  1.00  0.00    -0.264 OA
HETATM   30  H   UNL     1     -43.541  58.757 -56.125  1.00  0.00     0.190 HD
BRANCH  28  31
HETATM   31  C   UNL     1     -43.415  56.770 -57.716  1.00  0.00     0.125 A 
HETATM   32  N   UNL     1     -44.435  57.648 -57.923  1.00  0.00    -0.255 NA
HETATM   33  C   UNL     1     -45.053  57.582 -59.120  1.00  0.00     0.117 A 
HETATM   34  C   UNL     1     -44.707  56.684 -60.118  1.00  0.00     0.019 A 
HETATM   35  C   UNL     1     -43.662  55.794 -59.879  1.00  0.00     0.004 A 
HETATM   36  C   UNL     1     -42.999  55.833 -58.655  1.00  0.00     0.037 A 
ENDBRANCH  28  31
ENDBRANCH  24  27
ENDBRANCH  22  23
ENDBRANCH   1  22
TORSDOF 8
ENDMDL
MODEL 4
REMARK VINA RESULT:      -8.7      1.961      2.716
REMARK  8 active torsions:
REMARK  status: ('A' for Active; 'I' for Inactive)
REMARK    1  A    between atoms: C_4  and  O_5 
REMARK    2  A    between atoms: O_5  and  C_6 
REMARK    3  A    between atoms: C_8  and  C_9 
REMARK    4  A    between atoms: C_9  and  N_10 
REMARK    5  A    between atoms: C_9  and  C_14 
REMARK       I    between atoms: N_10  and  C_11 
REMARK       I    between atoms: C_11  and  N_12 
REMARK    6  A    between atoms: C_14  and  C_15 
REMARK       I    between atoms: C_15  and  N_16 
REMARK    7  A    between atoms: N_16  and  N_17 
REMARK       I    between atoms: N_17  and  C_18 
REMARK    8  A    between atoms: C_18  and  C_19 
ROOT
HETATM    1  C   UNL     1     -42.261  57.673 -52.512  1.00  0.00     0.128 C 
ENDROOT
BRANCH   1   2
HETATM    2  C   UNL     1     -42.245  56.223 -52.033  1.00  0.00    -0.032 A 
HETATM    3  C   UNL     1     -41.083  55.434 -52.050  1.00  0.00     0.046 A 
HETATM    4  C   UNL     1     -41.106  54.108 -51.606  1.00  0.00     0.076 A 
HETATM    5  C   UNL     1     -42.281  53.561 -51.093  1.00  0.00     0.037 A 
HETATM    6  C   UNL     1     -43.449  54.319 -51.090  1.00  0.00     0.003 A 
HETATM    7  C   UNL     1     -43.435  55.631 -51.569  1.00  0.00     0.009 A 
BRANCH   4   8
HETATM    8  O   UNL     1     -39.906  53.434 -51.636  1.00  0.00    -0.311 OA
BRANCH   8   9
HETATM    9  C   UNL     1     -39.846  52.228 -52.298  1.00  0.00     0.076 A 
HETATM   10  C   UNL     1     -39.579  51.012 -51.663  1.00  0.00     0.037 A 
HETATM   11  C   UNL     1     -39.570  49.830 -52.406  1.00  0.00     0.003 A 
HETATM   12  C   UNL     1     -39.851  49.859 -53.772  1.00  0.00     0.000 A 
HETATM   13  C   UNL     1     -40.150  51.069 -54.398  1.00  0.00     0.003 A 
HETATM   14  C   UNL     1     -40.153  52.253 -53.660  1.00  0.00     0.037 A 
ENDBRANCH   8   9
ENDBRANCH   4   8
ENDBRANCH   1   2
BRANCH   1  15
HETATM   15  N   UNL     1     -43.604  58.240 -52.571  1.00  0.00    -0.334 N 
HETATM   16  C   UNL     1     -43.935  59.327 -51.820  1.00  0.00     0.314 C 
HETATM   17  N   UNL     1     -45.179  59.783 -52.105  1.00  0.00    -0.352 N 
HETATM   18  O   UNL     1     -43.227  59.854 -50.976  1.00  0.00    -0.248 OA
HETATM   19  H   UNL     1     -45.869  59.097 -52.374  1.00  0.00     0.160 HD
HETATM   20  H   UNL     1     -45.506  60.504 -51.475  1.00  0.00     0.160 HD
HETATM   21  H   UNL     1     -44.022  58.251 -53.496  1.00  0.00     0.165 HD
ENDBRANCH   1  15
BRANCH   1  22
HETATM   22  C   UNL     1     -41.535  57.854 -53.856  1.00  0.00     0.134 C 
BRANCH  22  23
HETATM   23  C   UNL     1     -42.514  57.831 -55.010  1.00  0.00     0.238 C 
HETATM   24  N   UNL     1     -42.517  56.652 -55.727  1.00  0.00    -0.267 N 
HETATM   25  H   UNL     1     -42.200  55.781 -55.305  1.00  0.00     0.190 HD
HETATM   26  O   UNL     1     -43.232  58.793 -55.286  1.00  0.00    -0.272 OA
BRANCH  24  27
HETATM   27  N   UNL     1     -43.501  56.501 -56.708  1.00  0.00    -0.262 N 
HETATM   28  C   UNL     1     -43.203  56.848 -58.012  1.00  0.00     0.288 C 
HETATM   29  O   UNL     1     -42.175  57.436 -58.337  1.00  0.00    -0.264 OA
HETATM   30  H   UNL     1     -44.279  55.863 -56.522  1.00  0.00     0.190 HD
BRANCH  28  31
HETATM   31  C   UNL     1     -44.247  56.441 -59.004  1.00  0.00     0.125 A 
HETATM   32  N   UNL     1     -45.409  57.151 -58.980  1.00  0.00    -0.255 NA
HETATM   33  C   UNL     1     -46.349  56.798 -59.882  1.00  0.00     0.117 A 
HETATM   34  C   UNL     1     -46.188  55.772 -60.801  1.00  0.00     0.019 A 
HETATM   35  C   UNL     1     -44.991  55.060 -60.800  1.00  0.00     0.004 A 
HETATM   36  C   UNL     1     -43.997  55.397 -59.886  1.00  0.00     0.037 A 
ENDBRANCH  28  31
ENDBRANCH  24  27
ENDBRANCH  22  23
ENDBRANCH   1  22
TORSDOF 8
ENDMDL
MODEL 5
REMARK VINA RESULT:      -8.7      2.930      5.464
REMARK  8 active torsions:
REMARK  status: ('A' for Active; 'I' for Inactive)
REMARK    1  A    between atoms: C_4  and  O_5 
REMARK    2  A    between atoms: O_5  and  C_6 
REMARK    3  A    between atoms: C_8  and  C_9 
REMARK    4  A    between atoms: C_9  and  N_10 
REMARK    5  A    between atoms: C_9  and  C_14 
REMARK       I    between atoms: N_10  and  C_11 
REMARK       I    between atoms: C_11  and  N_12 
REMARK    6  A    between atoms: C_14  and  C_15 
REMARK       I    between atoms: C_15  and  N_16 
REMARK    7  A    between atoms: N_16  and  N_17 
REMARK       I    between atoms: N_17  and  C_18 
REMARK    8  A    between atoms: C_18  and  C_19 
ROOT
HETATM    1  C   UNL     1     -40.811  53.018 -53.661  1.00  0.00     0.128 C 
ENDROOT
BRANCH   1   2
HETATM    2  C   UNL     1     -40.767  53.651 -52.273  1.00  0.00    -0.032 A 
HETATM    3  C   UNL     1     -41.589  54.730 -51.908  1.00  0.00     0.046 A 
HETATM    4  C   UNL     1     -41.519  55.288 -50.628  1.00  0.00     0.076 A 
HETATM    5  C   UNL     1     -40.659  54.747 -49.673  1.00  0.00     0.037 A 
HETATM    6  C   UNL     1     -39.819  53.693 -50.023  1.00  0.00     0.003 A 
HETATM    7  C   UNL     1     -39.861  53.161 -51.313  1.00  0.00     0.009 A 
BRANCH   4   8
HETATM    8  O   UNL     1     -42.391  56.321 -50.363  1.00  0.00    -0.311 OA
BRANCH   8   9
HETATM    9  C   UNL     1     -42.283  57.476 -51.104  1.00  0.00     0.076 A 
HETATM   10  C   UNL     1     -43.315  57.980 -51.901  1.00  0.00     0.037 A 
HETATM   11  C   UNL     1     -43.133  59.179 -52.594  1.00  0.00     0.003 A 
HETATM   12  C   UNL     1     -41.934  59.883 -52.471  1.00  0.00     0.000 A 
HETATM   13  C   UNL     1     -40.918  59.396 -51.650  1.00  0.00     0.003 A 
HETATM   14  C   UNL     1     -41.095  58.195 -50.961  1.00  0.00     0.037 A 
ENDBRANCH   8   9
ENDBRANCH   4   8
ENDBRANCH   1   2
BRANCH   1  15
HETATM   15  N   UNL     1     -39.829  51.953 -53.834  1.00  0.00    -0.334 N 
HETATM   16  C   UNL     1     -40.207  50.723 -54.282  1.00  0.00     0.314 C 
HETATM   17  N   UNL     1     -39.143  49.911 -54.500  1.00  0.00    -0.352 N 
HETATM   18  O   UNL     1     -41.355  50.353 -54.472  1.00  0.00    -0.248 OA
HETATM   19  H   UNL     1     -38.344  50.031 -53.895  1.00  0.00     0.160 HD
HETATM   20  H   UNL     1     -39.394  48.952 -54.704  1.00  0.00     0.160 HD
HETATM   21  H   UNL     1     -38.933  52.255 -54.203  1.00  0.00     0.165 HD
ENDBRANCH   1  15
BRANCH   1  22
HETATM   22  C   UNL     1     -40.686  54.060 -54.786  1.00  0.00     0.134 C 
BRANCH  22  23
HETATM   23  C   UNL     1     -42.014  54.271 -55.481  1.00  0.00     0.238 C 
HETATM   24  N   UNL     1     -42.008  55.282 -56.420  1.00  0.00    -0.267 N 
HETATM   25  H   UNL     1     -41.141  55.576 -56.868  1.00  0.00     0.190 HD
HETATM   26  O   UNL     1     -43.013  53.603 -55.213  1.00  0.00    -0.272 OA
BRANCH  24  27
HETATM   27  N   UNL     1     -43.153  55.432 -57.208  1.00  0.00    -0.262 N 
HETATM   28  C   UNL     1     -43.154  56.382 -58.211  1.00  0.00     0.288 C 
HETATM   29  O   UNL     1     -42.265  57.220 -58.348  1.00  0.00    -0.264 OA
HETATM   30  H   UNL     1     -43.819  54.657 -57.248  1.00  0.00     0.190 HD
BRANCH  28  31
HETATM   31  C   UNL     1     -44.337  56.304 -59.123  1.00  0.00     0.125 A 
HETATM   32  N   UNL     1     -45.355  57.171 -58.864  1.00  0.00    -0.255 NA
HETATM   33  C   UNL     1     -46.419  57.114 -59.692  1.00  0.00     0.117 A 
HETATM   34  C   UNL     1     -46.518  56.236 -60.761  1.00  0.00     0.019 A 
HETATM   35  C   UNL     1     -45.463  55.359 -61.001  1.00  0.00     0.004 A 
HETATM   36  C   UNL     1     -44.348  55.389 -60.168  1.00  0.00     0.037 A 
ENDBRANCH  28  31
ENDBRANCH  24  27
ENDBRANCH  22  23
ENDBRANCH   1  22
TORSDOF 8
ENDMDL
MODEL 6
REMARK VINA RESULT:      -8.6      3.468      6.956
REMARK  8 active torsions:
REMARK  status: ('A' for Active; 'I' for Inactive)
REMARK    1  A    between atoms: C_4  and  O_5 
REMARK    2  A    between atoms: O_5  and  C_6 
REMARK    3  A    between atoms: C_8  and  C_9 
REMARK    4  A    between atoms: C_9  and  N_10 
REMARK    5  A    between atoms: C_9  and  C_14 
REMARK       I    between atoms: N_10  and  C_11 
REMARK       I    between atoms: C_11  and  N_12 
REMARK    6  A    between atoms: C_14  and  C_15 
REMARK       I    between atoms: C_15  and  N_16 
REMARK    7  A    between atoms: N_16  and  N_17 
REMARK       I    between atoms: N_17  and  C_18 
REMARK    8  A    between atoms: C_18  and  C_19 
ROOT
HETATM    1  C   UNL     1     -42.982  57.580 -52.353  1.00  0.00     0.128 C 
ENDROOT
BRANCH   1   2
HETATM    2  C   UNL     1     -42.643  56.168 -51.883  1.00  0.00    -0.032 A 
HETATM    3  C   UNL     1     -41.438  55.528 -52.220  1.00  0.00     0.046 A 
HETATM    4  C   UNL     1     -41.162  54.232 -51.774  1.00  0.00     0.076 A 
HETATM    5  C   UNL     1     -42.065  53.568 -50.945  1.00  0.00     0.037 A 
HETATM    6  C   UNL     1     -43.275  54.176 -50.620  1.00  0.00     0.003 A 
HETATM    7  C   UNL     1     -43.568  55.456 -51.096  1.00  0.00     0.009 A 
BRANCH   4   8
HETATM    8  O   UNL     1     -39.940  53.710 -52.134  1.00  0.00    -0.311 OA
BRANCH   8   9
HETATM    9  C   UNL     1     -39.884  52.402 -52.561  1.00  0.00     0.076 A 
HETATM   10  C   UNL     1     -39.573  51.330 -51.721  1.00  0.00     0.037 A 
HETATM   11  C   UNL     1     -39.571  50.029 -52.229  1.00  0.00     0.003 A 
HETATM   12  C   UNL     1     -39.903  49.799 -53.565  1.00  0.00     0.000 A 
HETATM   13  C   UNL     1     -40.246  50.867 -54.394  1.00  0.00     0.003 A 
HETATM   14  C   UNL     1     -40.242  52.168 -53.890  1.00  0.00     0.037 A 
ENDBRANCH   8   9
ENDBRANCH   4   8
ENDBRANCH   1   2
BRANCH   1  15
HETATM   15  N   UNL     1     -43.407  57.630 -53.748  1.00  0.00    -0.334 N 
HETATM   16  C   UNL     1     -44.410  58.463 -54.141  1.00  0.00     0.314 C 
HETATM   17  N   UNL     1     -44.574  58.464 -55.487  1.00  0.00    -0.352 N 
HETATM   18  O   UNL     1     -45.107  59.141 -53.402  1.00  0.00    -0.248 OA
HETATM   19  H   UNL     1     -44.384  57.599 -55.972  1.00  0.00     0.160 HD
HETATM   20  H   UNL     1     -45.394  58.967 -55.800  1.00  0.00     0.160 HD
HETATM   21  H   UNL     1     -42.654  57.564 -54.426  1.00  0.00     0.165 HD
ENDBRANCH   1  15
BRANCH   1  22
HETATM   22  C   UNL     1     -41.837  58.574 -52.098  1.00  0.00     0.134 C 
BRANCH  22  23
HETATM   23  C   UNL     1     -42.230  59.601 -51.057  1.00  0.00     0.238 C 
HETATM   24  N   UNL     1     -43.590  59.696 -50.839  1.00  0.00    -0.267 N 
HETATM   25  H   UNL     1     -44.210  58.916 -51.052  1.00  0.00     0.190 HD
HETATM   26  O   UNL     1     -41.401  60.298 -50.471  1.00  0.00    -0.272 OA
BRANCH  24  27
HETATM   27  N   UNL     1     -44.015  60.510 -49.786  1.00  0.00    -0.262 N 
HETATM   28  C   UNL     1     -45.359  60.543 -49.468  1.00  0.00     0.288 C 
HETATM   29  O   UNL     1     -46.230  60.024 -50.161  1.00  0.00    -0.264 OA
HETATM   30  H   UNL     1     -43.325  60.802 -49.089  1.00  0.00     0.190 HD
BRANCH  28  31
HETATM   31  C   UNL     1     -45.667  61.269 -48.197  1.00  0.00     0.125 A 
HETATM   32  N   UNL     1     -46.811  62.010 -48.188  1.00  0.00    -0.255 NA
HETATM   33  C   UNL     1     -47.100  62.656 -47.039  1.00  0.00     0.117 A 
HETATM   34  C   UNL     1     -46.306  62.603 -45.904  1.00  0.00     0.019 A 
HETATM   35  C   UNL     1     -45.140  61.842 -45.943  1.00  0.00     0.004 A 
HETATM   36  C   UNL     1     -44.809  61.159 -47.109  1.00  0.00     0.037 A 
ENDBRANCH  28  31
ENDBRANCH  24  27
ENDBRANCH  22  23
ENDBRANCH   1  22
TORSDOF 8
ENDMDL
MODEL 7
REMARK VINA RESULT:      -8.5     14.670     18.153
REMARK  8 active torsions:
REMARK  status: ('A' for Active; 'I' for Inactive)
REMARK    1  A    between atoms: C_4  and  O_5 
REMARK    2  A    between atoms: O_5  and  C_6 
REMARK    3  A    between atoms: C_8  and  C_9 
REMARK    4  A    between atoms: C_9  and  N_10 
REMARK    5  A    between atoms: C_9  and  C_14 
REMARK       I    between atoms: N_10  and  C_11 
REMARK       I    between atoms: C_11  and  N_12 
REMARK    6  A    between atoms: C_14  and  C_15 
REMARK       I    between atoms: C_15  and  N_16 
REMARK    7  A    between atoms: N_16  and  N_17 
REMARK       I    between atoms: N_17  and  C_18 
REMARK    8  A    between atoms: C_18  and  C_19 
ROOT
HETATM    1  C   UNL     1     -36.420  41.376 -53.266  1.00  0.00     0.128 C 
ENDROOT
BRANCH   1   2
HETATM    2  C   UNL     1     -35.967  41.437 -54.722  1.00  0.00    -0.032 A 
HETATM    3  C   UNL     1     -36.867  41.614 -55.787  1.00  0.00     0.046 A 
HETATM    4  C   UNL     1     -36.417  41.661 -57.110  1.00  0.00     0.076 A 
HETATM    5  C   UNL     1     -35.053  41.580 -57.390  1.00  0.00     0.037 A 
HETATM    6  C   UNL     1     -34.148  41.381 -56.351  1.00  0.00     0.003 A 
HETATM    7  C   UNL     1     -34.601  41.295 -55.033  1.00  0.00     0.009 A 
BRANCH   4   8
HETATM    8  O   UNL     1     -37.377  41.869 -58.074  1.00  0.00    -0.311 OA
BRANCH   8   9
HETATM    9  C   UNL     1     -37.672  40.841 -58.940  1.00  0.00     0.076 A 
HETATM   10  C   UNL     1     -37.277  40.823 -60.280  1.00  0.00     0.037 A 
HETATM   11  C   UNL     1     -37.590  39.723 -61.081  1.00  0.00     0.003 A 
HETATM   12  C   UNL     1     -38.275  38.635 -60.539  1.00  0.00     0.000 A 
HETATM   13  C   UNL     1     -38.640  38.639 -59.193  1.00  0.00     0.003 A 
HETATM   14  C   UNL     1     -38.334  39.740 -58.392  1.00  0.00     0.037 A 
ENDBRANCH   8   9
ENDBRANCH   4   8
ENDBRANCH   1   2
BRANCH   1  15
HETATM   15  N   UNL     1     -37.773  41.885 -53.068  1.00  0.00    -0.334 N 
HETATM   16  C   UNL     1     -38.731  41.110 -52.489  1.00  0.00     0.314 C 
HETATM   17  N   UNL     1     -39.881  41.797 -52.273  1.00  0.00    -0.352 N 
HETATM   18  O   UNL     1     -38.612  39.932 -52.189  1.00  0.00    -0.248 OA
HETATM   19  H   UNL     1     -40.115  42.517 -52.940  1.00  0.00     0.160 HD
HETATM   20  H   UNL     1     -40.653  41.218 -51.969  1.00  0.00     0.160 HD
HETATM   21  H   UNL     1     -37.825  42.860 -52.788  1.00  0.00     0.165 HD
ENDBRANCH   1  15
BRANCH   1  22
HETATM   22  C   UNL     1     -35.432  42.072 -52.314  1.00  0.00     0.134 C 
BRANCH  22  23
HETATM   23  C   UNL     1     -35.106  41.189 -51.129  1.00  0.00     0.238 C 
HETATM   24  N   UNL     1     -33.785  40.797 -51.060  1.00  0.00    -0.267 N 
HETATM   25  H   UNL     1     -33.052  41.344 -51.511  1.00  0.00     0.190 HD
HETATM   26  O   UNL     1     -35.958  40.843 -50.309  1.00  0.00    -0.272 OA
BRANCH  24  27
HETATM   27  N   UNL     1     -33.378  40.110 -49.913  1.00  0.00    -0.262 N 
HETATM   28  C   UNL     1     -32.030  39.886 -49.711  1.00  0.00     0.288 C 
HETATM   29  O   UNL     1     -31.173  40.111 -50.561  1.00  0.00    -0.264 OA
HETATM   30  H   UNL     1     -34.020  40.072 -49.117  1.00  0.00     0.190 HD
BRANCH  28  31
HETATM   31  C   UNL     1     -31.699  39.342 -48.357  1.00  0.00     0.125 A 
HETATM   32  N   UNL     1     -30.501  39.722 -47.832  1.00  0.00    -0.255 NA
HETATM   33  C   UNL     1     -30.204  39.245 -46.605  1.00  0.00     0.117 A 
HETATM   34  C   UNL     1     -31.039  38.408 -45.879  1.00  0.00     0.019 A 
HETATM   35  C   UNL     1     -32.256  38.033 -46.443  1.00  0.00     0.004 A 
HETATM   36  C   UNL     1     -32.599  38.506 -47.706  1.00  0.00     0.037 A 
ENDBRANCH  28  31
ENDBRANCH  24  27
ENDBRANCH  22  23
ENDBRANCH   1  22
TORSDOF 8
ENDMDL
MODEL 8
REMARK VINA RESULT:      -8.4      2.428      6.955
REMARK  8 active torsions:
REMARK  status: ('A' for Active; 'I' for Inactive)
REMARK    1  A    between atoms: C_4  and  O_5 
REMARK    2  A    between atoms: O_5  and  C_6 
REMARK    3  A    between atoms: C_8  and  C_9 
REMARK    4  A    between atoms: C_9  and  N_10 
REMARK    5  A    between atoms: C_9  and  C_14 
REMARK       I    between atoms: N_10  and  C_11 
REMARK       I    between atoms: C_11  and  N_12 
REMARK    6  A    between atoms: C_14  and  C_15 
REMARK       I    between atoms: C_15  and  N_16 
REMARK    7  A    between atoms: N_16  and  N_17 
REMARK       I    between atoms: N_17  and  C_18 
REMARK    8  A    between atoms: C_18  and  C_19 
ROOT
HETATM    1  C   UNL     1     -43.540  58.652 -51.828  1.00  0.00     0.128 C 
ENDROOT
BRANCH   1   2
HETATM    2  C   UNL     1     -43.799  58.949 -53.303  1.00  0.00    -0.032 A 
HETATM    3  C   UNL     1     -42.830  58.736 -54.298  1.00  0.00     0.046 A 
HETATM    4  C   UNL     1     -43.100  59.023 -55.639  1.00  0.00     0.076 A 
HETATM    5  C   UNL     1     -44.360  59.484 -56.018  1.00  0.00     0.037 A 
HETATM    6  C   UNL     1     -45.325  59.725 -55.044  1.00  0.00     0.003 A 
HETATM    7  C   UNL     1     -45.043  59.475 -53.699  1.00  0.00     0.009 A 
BRANCH   4   8
HETATM    8  O   UNL     1     -42.093  58.747 -56.537  1.00  0.00    -0.311 OA
BRANCH   8   9
HETATM    9  C   UNL     1     -42.325  57.808 -57.516  1.00  0.00     0.076 A 
HETATM   10  C   UNL     1     -42.919  56.568 -57.269  1.00  0.00     0.037 A 
HETATM   11  C   UNL     1     -43.148  55.686 -58.328  1.00  0.00     0.003 A 
HETATM   12  C   UNL     1     -42.807  56.052 -59.630  1.00  0.00     0.000 A 
HETATM   13  C   UNL     1     -42.243  57.303 -59.879  1.00  0.00     0.003 A 
HETATM   14  C   UNL     1     -42.008  58.184 -58.822  1.00  0.00     0.037 A 
ENDBRANCH   8   9
ENDBRANCH   4   8
ENDBRANCH   1   2
BRANCH   1  15
HETATM   15  N   UNL     1     -42.133  58.407 -51.533  1.00  0.00    -0.334 N 
HETATM   16  C   UNL     1     -41.385  59.338 -50.878  1.00  0.00     0.314 C 
HETATM   17  N   UNL     1     -40.144  58.879 -50.583  1.00  0.00    -0.352 N 
HETATM   18  O   UNL     1     -41.750  60.464 -50.577  1.00  0.00    -0.248 OA
HETATM   19  H   UNL     1     -39.727  58.232 -51.236  1.00  0.00     0.160 HD
HETATM   20  H   UNL     1     -39.521  59.588 -50.216  1.00  0.00     0.160 HD
HETATM   21  H   UNL     1     -41.914  57.454 -51.260  1.00  0.00     0.165 HD
ENDBRANCH   1  15
BRANCH   1  22
HETATM   22  C   UNL     1     -44.414  57.503 -51.298  1.00  0.00     0.134 C 
BRANCH  22  23
HETATM   23  C   UNL     1     -43.672  56.184 -51.357  1.00  0.00     0.238 C 
HETATM   24  N   UNL     1     -43.859  55.479 -52.528  1.00  0.00    -0.267 N 
HETATM   25  H   UNL     1     -44.131  55.954 -53.388  1.00  0.00     0.190 HD
HETATM   26  O   UNL     1     -42.975  55.778 -50.426  1.00  0.00    -0.272 OA
BRANCH  24  27
HETATM   27  N   UNL     1     -43.085  54.331 -52.715  1.00  0.00    -0.262 N 
HETATM   28  C   UNL     1     -41.832  54.455 -53.283  1.00  0.00     0.288 C 
HETATM   29  O   UNL     1     -41.418  55.496 -53.785  1.00  0.00    -0.264 OA
HETATM   30  H   UNL     1     -43.307  53.500 -52.161  1.00  0.00     0.190 HD
BRANCH  28  31
HETATM   31  C   UNL     1     -41.014  53.203 -53.233  1.00  0.00     0.125 A 
HETATM   32  N   UNL     1     -40.344  52.967 -52.070  1.00  0.00    -0.255 NA
HETATM   33  C   UNL     1     -39.617  51.832 -52.015  1.00  0.00     0.117 A 
HETATM   34  C   UNL     1     -39.521  50.925 -53.060  1.00  0.00     0.019 A 
HETATM   35  C   UNL     1     -40.213  51.194 -54.239  1.00  0.00     0.004 A 
HETATM   36  C   UNL     1     -40.976  52.354 -54.333  1.00  0.00     0.037 A 
ENDBRANCH  28  31
ENDBRANCH  24  27
ENDBRANCH  22  23
ENDBRANCH   1  22
TORSDOF 8
ENDMDL
MODEL 9
REMARK VINA RESULT:      -8.4      3.422      6.274
REMARK  8 active torsions:
REMARK  status: ('A' for Active; 'I' for Inactive)
REMARK    1  A    between atoms: C_4  and  O_5 
REMARK    2  A    between atoms: O_5  and  C_6 
REMARK    3  A    between atoms: C_8  and  C_9 
REMARK    4  A    between atoms: C_9  and  N_10 
REMARK    5  A    between atoms: C_9  and  C_14 
REMARK       I    between atoms: N_10  and  C_11 
REMARK       I    between atoms: C_11  and  N_12 
REMARK    6  A    between atoms: C_14  and  C_15 
REMARK       I    between atoms: C_15  and  N_16 
REMARK    7  A    between atoms: N_16  and  N_17 
REMARK       I    between atoms: N_17  and  C_18 
REMARK    8  A    between atoms: C_18  and  C_19 
ROOT
HETATM    1  C   UNL     1     -41.915  57.126 -53.905  1.00  0.00     0.128 C 
ENDROOT
BRANCH   1   2
HETATM    2  C   UNL     1     -42.023  55.934 -52.956  1.00  0.00    -0.032 A 
HETATM    3  C   UNL     1     -40.938  55.082 -52.687  1.00  0.00     0.046 A 
HETATM    4  C   UNL     1     -41.074  53.998 -51.815  1.00  0.00     0.076 A 
HETATM    5  C   UNL     1     -42.284  53.772 -51.160  1.00  0.00     0.037 A 
HETATM    6  C   UNL     1     -43.377  54.590 -51.432  1.00  0.00     0.003 A 
HETATM    7  C   UNL     1     -43.252  55.651 -52.333  1.00  0.00     0.009 A 
BRANCH   4   8
HETATM    8  O   UNL     1     -39.942  53.245 -51.596  1.00  0.00    -0.311 OA
BRANCH   8   9
HETATM    9  C   UNL     1     -39.857  52.002 -52.180  1.00  0.00     0.076 A 
HETATM   10  C   UNL     1     -39.857  51.797 -53.562  1.00  0.00     0.037 A 
HETATM   11  C   UNL     1     -39.733  50.503 -54.071  1.00  0.00     0.003 A 
HETATM   12  C   UNL     1     -39.585  49.420 -53.203  1.00  0.00     0.000 A 
HETATM   13  C   UNL     1     -39.553  49.629 -51.825  1.00  0.00     0.003 A 
HETATM   14  C   UNL     1     -39.683  50.921 -51.313  1.00  0.00     0.037 A 
ENDBRANCH   8   9
ENDBRANCH   4   8
ENDBRANCH   1   2
BRANCH   1  15
HETATM   15  N   UNL     1     -41.743  56.731 -55.299  1.00  0.00    -0.334 N 
HETATM   16  C   UNL     1     -42.807  56.687 -56.147  1.00  0.00     0.314 C 
HETATM   17  N   UNL     1     -42.431  56.426 -57.424  1.00  0.00    -0.352 N 
HETATM   18  O   UNL     1     -43.976  56.852 -55.836  1.00  0.00    -0.248 OA
HETATM   19  H   UNL     1     -41.629  55.828 -57.551  1.00  0.00     0.160 HD
HETATM   20  H   UNL     1     -43.206  56.255 -58.053  1.00  0.00     0.160 HD
HETATM   21  H   UNL     1     -40.895  57.078 -55.738  1.00  0.00     0.165 HD
ENDBRANCH   1  15
BRANCH   1  22
HETATM   22  C   UNL     1     -40.817  58.116 -53.481  1.00  0.00     0.134 C 
BRANCH  22  23
HETATM   23  C   UNL     1     -41.417  59.424 -53.010  1.00  0.00     0.238 C 
HETATM   24  N   UNL     1     -41.656  59.482 -51.652  1.00  0.00    -0.267 N 
HETATM   25  H   UNL     1     -41.138  58.891 -51.003  1.00  0.00     0.190 HD
HETATM   26  O   UNL     1     -41.680  60.346 -53.784  1.00  0.00    -0.272 OA
BRANCH  24  27
HETATM   27  N   UNL     1     -42.065  60.711 -51.125  1.00  0.00    -0.262 N 
HETATM   28  C   UNL     1     -43.328  60.815 -50.576  1.00  0.00     0.288 C 
HETATM   29  O   UNL     1     -44.180  59.935 -50.669  1.00  0.00    -0.264 OA
HETATM   30  H   UNL     1     -41.346  61.392 -50.869  1.00  0.00     0.190 HD
BRANCH  28  31
HETATM   31  C   UNL     1     -43.573  62.101 -49.852  1.00  0.00     0.125 A 
HETATM   32  N   UNL     1     -44.537  62.076 -48.890  1.00  0.00    -0.255 NA
HETATM   33  C   UNL     1     -44.752  63.230 -48.224  1.00  0.00     0.117 A 
HETATM   34  C   UNL     1     -44.058  64.405 -48.472  1.00  0.00     0.019 A 
HETATM   35  C   UNL     1     -43.081  64.402 -49.465  1.00  0.00     0.004 A 
HETATM   36  C   UNL     1     -42.829  63.230 -50.172  1.00  0.00     0.037 A 
ENDBRANCH  28  31
ENDBRANCH  24  27
ENDBRANCH  22  23
ENDBRANCH   1  22
TORSDOF 8
ENDMDL
MODEL 10
REMARK VINA RESULT:      -8.3      3.197      9.526
REMARK  8 active torsions:
REMARK  status: ('A' for Active; 'I' for Inactive)
REMARK    1  A    between atoms: C_4  and  O_5 
REMARK    2  A    between atoms: O_5  and  C_6 
REMARK    3  A    between atoms: C_8  and  C_9 
REMARK    4  A    between atoms: C_9  and  N_10 
REMARK    5  A    between atoms: C_9  and  C_14 
REMARK       I    between atoms: N_10  and  C_11 
REMARK       I    between atoms: C_11  and  N_12 
REMARK    6  A    between atoms: C_14  and  C_15 
REMARK       I    between atoms: C_15  and  N_16 
REMARK    7  A    between atoms: N_16  and  N_17 
REMARK       I    between atoms: N_17  and  C_18 
REMARK    8  A    between atoms: C_18  and  C_19 
ROOT
HETATM    1  C   UNL     1     -43.211  56.740 -57.689  1.00  0.00     0.128 C 
ENDROOT
BRANCH   1   2
HETATM    2  C   UNL     1     -43.858  58.081 -58.025  1.00  0.00    -0.032 A 
HETATM    3  C   UNL     1     -43.221  59.310 -57.779  1.00  0.00     0.046 A 
HETATM    4  C   UNL     1     -43.845  60.520 -58.096  1.00  0.00     0.076 A 
HETATM    5  C   UNL     1     -45.098  60.524 -58.708  1.00  0.00     0.037 A 
HETATM    6  C   UNL     1     -45.755  59.319 -58.937  1.00  0.00     0.003 A 
HETATM    7  C   UNL     1     -45.149  58.111 -58.586  1.00  0.00     0.009 A 
BRANCH   4   8
HETATM    8  O   UNL     1     -43.122  61.664 -57.844  1.00  0.00    -0.311 OA
BRANCH   8   9
HETATM    9  C   UNL     1     -42.115  62.010 -58.717  1.00  0.00     0.076 A 
HETATM   10  C   UNL     1     -40.794  62.234 -58.321  1.00  0.00     0.037 A 
HETATM   11  C   UNL     1     -39.827  62.549 -59.278  1.00  0.00     0.003 A 
HETATM   12  C   UNL     1     -40.175  62.617 -60.628  1.00  0.00     0.000 A 
HETATM   13  C   UNL     1     -41.487  62.362 -61.026  1.00  0.00     0.003 A 
HETATM   14  C   UNL     1     -42.456  62.053 -60.070  1.00  0.00     0.037 A 
ENDBRANCH   8   9
ENDBRANCH   4   8
ENDBRANCH   1   2
BRANCH   1  15
HETATM   15  N   UNL     1     -44.016  55.598 -58.108  1.00  0.00    -0.334 N 
HETATM   16  C   UNL     1     -43.917  55.101 -59.372  1.00  0.00     0.314 C 
HETATM   17  N   UNL     1     -44.642  53.966 -59.532  1.00  0.00    -0.352 N 
HETATM   18  O   UNL     1     -43.267  55.590 -60.283  1.00  0.00    -0.248 OA
HETATM   19  H   UNL     1     -45.497  53.890 -59.001  1.00  0.00     0.160 HD
HETATM   20  H   UNL     1     -44.697  53.647 -60.491  1.00  0.00     0.160 HD
HETATM   21  H   UNL     1     -44.132  54.876 -57.403  1.00  0.00     0.165 HD
ENDBRANCH   1  15
BRANCH   1  22
HETATM   22  C   UNL     1     -42.837  56.624 -56.202  1.00  0.00     0.134 C 
BRANCH  22  23
HETATM   23  C   UNL     1     -42.368  55.224 -55.867  1.00  0.00     0.238 C 
HETATM   24  N   UNL     1     -41.009  55.118 -55.651  1.00  0.00    -0.267 N 
HETATM   25  H   UNL     1     -40.459  55.926 -55.364  1.00  0.00     0.190 HD
HETATM   26  O   UNL     1     -43.139  54.266 -55.809  1.00  0.00    -0.272 OA
BRANCH  24  27
HETATM   27  N   UNL     1     -40.528  53.890 -55.187  1.00  0.00    -0.262 N 
HETATM   28  C   UNL     1     -40.481  53.662 -53.826  1.00  0.00     0.288 C 
HETATM   29  O   UNL     1     -40.684  54.537 -52.987  1.00  0.00    -0.264 OA
HETATM   30  H   UNL     1     -40.525  53.095 -55.832  1.00  0.00     0.190 HD
BRANCH  28  31
HETATM   31  C   UNL     1     -40.160  52.249 -53.455  1.00  0.00     0.125 A 
HETATM   32  N   UNL     1     -39.725  52.044 -52.180  1.00  0.00    -0.255 NA
HETATM   33  C   UNL     1     -39.447  50.769 -51.837  1.00  0.00     0.117 A 
HETATM   34  C   UNL     1     -39.578  49.692 -52.700  1.00  0.00     0.019 A 
HETATM   35  C   UNL     1     -40.021  49.931 -53.999  1.00  0.00     0.004 A 
HETATM   36  C   UNL     1     -40.319  51.233 -54.390  1.00  0.00     0.037 A 
ENDBRANCH  28  31
ENDBRANCH  24  27
ENDBRANCH  22  23
ENDBRANCH   1  22
TORSDOF 8
ENDMDL
