MODEL 1
REMARK VINA RESULT:      -7.9      0.000      0.000
REMARK  7 active torsions:
REMARK  status: ('A' for Active; 'I' for Inactive)
REMARK    1  A    between atoms: O_2  and  C_3 
REMARK    2  A    between atoms: C_6  and  C_7 
REMARK    3  A    between atoms: C_7  and  N_8 
REMARK    4  A    between atoms: C_7  and  C_23 
REMARK       I    between atoms: N_8  and  C_9 
REMARK    5  A    between atoms: C_9  and  C_10 
REMARK    6  A    between atoms: C_10  and  S_11 
REMARK    7  A    between atoms: S_11  and  C_12 
ROOT
HETATM    1  N   UNL     1     -42.967  57.775 -54.926  1.00  0.00    -0.348 N 
HETATM    2  C   UNL     1     -42.456  58.999 -54.560  1.00  0.00     0.228 C 
HETATM    3  O   UNL     1     -41.392  59.435 -54.997  1.00  0.00    -0.273 OA
HETATM    4  H   UNL     1     -43.852  57.483 -54.538  1.00  0.00     0.163 HD
ENDROOT
BRANCH   1   5
HETATM    5  C   UNL     1     -42.329  56.953 -55.940  1.00  0.00     0.151 C 
BRANCH   5   6
HETATM    6  C   UNL     1     -41.934  55.582 -55.401  1.00  0.00    -0.031 A 
HETATM    7  C   UNL     1     -42.848  54.526 -55.273  1.00  0.00     0.012 A 
HETATM    8  C   UNL     1     -42.428  53.269 -54.829  1.00  0.00     0.037 A 
HETATM    9  C   UNL     1     -41.089  53.033 -54.517  1.00  0.00     0.068 A 
HETATM   10  C   UNL     1     -40.173  54.077 -54.621  1.00  0.00     0.037 A 
HETATM   11  C   UNL     1     -40.592  55.338 -55.062  1.00  0.00     0.012 A 
BRANCH   9  12
HETATM   12  O   UNL     1     -40.805  51.755 -54.118  1.00  0.00    -0.356 OA
HETATM   13  C   UNL     1     -39.665  51.596 -53.282  1.00  0.00     0.210 C 
ENDBRANCH   9  12
ENDBRANCH   5   6
BRANCH   5  14
HETATM   14  C   UNL     1     -43.180  56.860 -57.202  1.00  0.00    -0.031 A 
HETATM   15  C   UNL     1     -42.826  55.946 -58.210  1.00  0.00     0.009 A 
HETATM   16  C   UNL     1     -43.595  55.826 -59.369  1.00  0.00     0.001 A 
HETATM   17  C   UNL     1     -44.731  56.612 -59.538  1.00  0.00     0.000 A 
HETATM   18  C   UNL     1     -45.099  57.521 -58.548  1.00  0.00     0.001 A 
HETATM   19  C   UNL     1     -44.331  57.646 -57.389  1.00  0.00     0.009 A 
ENDBRANCH   5  14
ENDBRANCH   1   5
BRANCH   2  20
HETATM   20  C   UNL     1     -43.329  59.832 -53.638  1.00  0.00     0.185 C 
BRANCH  20  21
HETATM   21  S   UNL     1     -42.757  59.761 -51.910  1.00  0.00    -0.081 SA
BRANCH  21  22
HETATM   22  C   UNL     1     -43.592  58.340 -51.386  1.00  0.00     0.192 A 
HETATM   23  N   UNL     1     -43.018  57.101 -51.262  1.00  0.00    -0.311 N 
HETATM   24  C   UNL     1     -44.026  56.280 -50.805  1.00  0.00     0.130 A 
HETATM   25  C   UNL     1     -41.654  56.734 -51.587  1.00  0.00     0.133 C 
HETATM   26  C   UNL     1     -43.909  54.828 -50.487  1.00  0.00     0.081 C 
HETATM   27  N   UNL     1     -45.129  56.990 -50.677  1.00  0.00    -0.134 NA
HETATM   28  C   UNL     1     -43.023  54.063 -51.461  1.00  0.00     0.008 C 
HETATM   29  C   UNL     1     -41.529  54.210 -51.172  1.00  0.00     0.002 C 
HETATM   30  C   UNL     1     -41.068  55.603 -50.747  1.00  0.00     0.020 C 
HETATM   31  N   UNL     1     -44.856  58.280 -51.045  1.00  0.00    -0.123 NA
ENDBRANCH  21  22
ENDBRANCH  20  21
ENDBRANCH   2  20
TORSDOF 7
ENDMDL
MODEL 2
REMARK VINA RESULT:      -7.8      2.277      6.413
REMARK  7 active torsions:
REMARK  status: ('A' for Active; 'I' for Inactive)
REMARK    1  A    between atoms: O_2  and  C_3 
REMARK    2  A    between atoms: C_6  and  C_7 
REMARK    3  A    between atoms: C_7  and  N_8 
REMARK    4  A    between atoms: C_7  and  C_23 
REMARK       I    between atoms: N_8  and  C_9 
REMARK    5  A    between atoms: C_9  and  C_10 
REMARK    6  A    between atoms: C_10  and  S_11 
REMARK    7  A    between atoms: S_11  and  C_12 
ROOT
HETATM    1  N   UNL     1     -43.274  56.164 -53.633  1.00  0.00    -0.348 N 
HETATM    2  C   UNL     1     -44.357  56.988 -53.424  1.00  0.00     0.228 C 
HETATM    3  O   UNL     1     -44.660  57.421 -52.314  1.00  0.00    -0.273 OA
HETATM    4  H   UNL     1     -43.075  55.854 -54.573  1.00  0.00     0.163 HD
ENDROOT
BRANCH   1   5
HETATM    5  C   UNL     1     -42.350  55.831 -52.562  1.00  0.00     0.151 C 
BRANCH   5   6
HETATM    6  C   UNL     1     -41.558  54.563 -52.862  1.00  0.00    -0.031 A 
HETATM    7  C   UNL     1     -41.338  54.097 -54.166  1.00  0.00     0.012 A 
HETATM    8  C   UNL     1     -40.556  52.961 -54.396  1.00  0.00     0.037 A 
HETATM    9  C   UNL     1     -39.966  52.274 -53.334  1.00  0.00     0.068 A 
HETATM   10  C   UNL     1     -40.191  52.713 -52.032  1.00  0.00     0.037 A 
HETATM   11  C   UNL     1     -40.977  53.849 -51.800  1.00  0.00     0.012 A 
BRANCH   9  12
HETATM   12  O   UNL     1     -39.207  51.195 -53.695  1.00  0.00    -0.356 OA
HETATM   13  C   UNL     1     -39.894  50.128 -54.338  1.00  0.00     0.210 C 
ENDBRANCH   9  12
ENDBRANCH   5   6
BRANCH   5  14
HETATM   14  C   UNL     1     -41.449  57.011 -52.214  1.00  0.00    -0.031 A 
HETATM   15  C   UNL     1     -41.304  57.398 -50.870  1.00  0.00     0.009 A 
HETATM   16  C   UNL     1     -40.473  58.465 -50.518  1.00  0.00     0.001 A 
HETATM   17  C   UNL     1     -39.772  59.157 -51.501  1.00  0.00     0.000 A 
HETATM   18  C   UNL     1     -39.901  58.786 -52.838  1.00  0.00     0.001 A 
HETATM   19  C   UNL     1     -40.733  57.722 -53.193  1.00  0.00     0.009 A 
ENDBRANCH   5  14
ENDBRANCH   1   5
BRANCH   2  20
HETATM   20  C   UNL     1     -45.120  57.407 -54.668  1.00  0.00     0.185 C 
BRANCH  20  21
HETATM   21  S   UNL     1     -44.103  58.434 -55.776  1.00  0.00    -0.081 SA
BRANCH  21  22
HETATM   22  C   UNL     1     -43.779  57.282 -57.025  1.00  0.00     0.192 A 
HETATM   23  N   UNL     1     -44.543  57.121 -58.153  1.00  0.00    -0.311 N 
HETATM   24  C   UNL     1     -43.921  56.122 -58.871  1.00  0.00     0.130 A 
HETATM   25  C   UNL     1     -45.765  57.823 -58.487  1.00  0.00     0.133 C 
HETATM   26  C   UNL     1     -44.349  55.586 -60.195  1.00  0.00     0.081 C 
HETATM   27  N   UNL     1     -42.861  55.714 -58.202  1.00  0.00    -0.134 NA
HETATM   28  C   UNL     1     -45.859  55.459 -60.338  1.00  0.00     0.008 C 
HETATM   29  C   UNL     1     -46.553  56.776 -60.688  1.00  0.00     0.002 C 
HETATM   30  C   UNL     1     -46.015  58.018 -59.980  1.00  0.00     0.020 C 
HETATM   31  N   UNL     1     -42.776  56.438 -57.043  1.00  0.00    -0.123 NA
ENDBRANCH  21  22
ENDBRANCH  20  21
ENDBRANCH   2  20
TORSDOF 7
ENDMDL
MODEL 3
REMARK VINA RESULT:      -7.6      2.699      5.517
REMARK  7 active torsions:
REMARK  status: ('A' for Active; 'I' for Inactive)
REMARK    1  A    between atoms: O_2  and  C_3 
REMARK    2  A    between atoms: C_6  and  C_7 
REMARK    3  A    between atoms: C_7  and  N_8 
REMARK    4  A    between atoms: C_7  and  C_23 
REMARK       I    between atoms: N_8  and  C_9 
REMARK    5  A    between atoms: C_9  and  C_10 
REMARK    6  A    between atoms: C_10  and  S_11 
REMARK    7  A    between atoms: S_11  and  C_12 
ROOT
HETATM    1  N   UNL     1     -41.798  55.675 -54.711  1.00  0.00    -0.348 N 
HETATM    2  C   UNL     1     -42.938  55.494 -55.461  1.00  0.00     0.228 C 
HETATM    3  O   UNL     1     -43.998  55.102 -54.978  1.00  0.00    -0.273 OA
HETATM    4  H   UNL     1     -40.963  56.011 -55.170  1.00  0.00     0.163 HD
ENDROOT
BRANCH   1   5
HETATM    5  C   UNL     1     -41.800  55.510 -53.268  1.00  0.00     0.151 C 
BRANCH   5   6
HETATM    6  C   UNL     1     -41.060  54.249 -52.833  1.00  0.00    -0.031 A 
HETATM    7  C   UNL     1     -40.861  53.914 -51.486  1.00  0.00     0.012 A 
HETATM    8  C   UNL     1     -40.227  52.718 -51.135  1.00  0.00     0.037 A 
HETATM    9  C   UNL     1     -39.794  51.825 -52.116  1.00  0.00     0.068 A 
HETATM   10  C   UNL     1     -39.967  52.153 -53.458  1.00  0.00     0.037 A 
HETATM   11  C   UNL     1     -40.598  53.353 -53.812  1.00  0.00     0.012 A 
BRANCH   9  12
HETATM   12  O   UNL     1     -39.212  50.682 -51.640  1.00  0.00    -0.356 OA
HETATM   13  C   UNL     1     -39.601  49.468 -52.273  1.00  0.00     0.210 C 
ENDBRANCH   9  12
ENDBRANCH   5   6
BRANCH   5  14
HETATM   14  C   UNL     1     -41.283  56.760 -52.562  1.00  0.00    -0.031 A 
HETATM   15  C   UNL     1     -40.459  57.659 -53.260  1.00  0.00     0.009 A 
HETATM   16  C   UNL     1     -39.983  58.819 -52.646  1.00  0.00     0.001 A 
HETATM   17  C   UNL     1     -40.326  59.102 -51.327  1.00  0.00     0.000 A 
HETATM   18  C   UNL     1     -41.144  58.223 -50.620  1.00  0.00     0.001 A 
HETATM   19  C   UNL     1     -41.619  57.061 -51.230  1.00  0.00     0.009 A 
ENDBRANCH   5  14
ENDBRANCH   1   5
BRANCH   2  20
HETATM   20  C   UNL     1     -42.837  55.889 -56.924  1.00  0.00     0.185 C 
BRANCH  20  21
HETATM   21  S   UNL     1     -43.962  57.260 -57.338  1.00  0.00    -0.081 SA
BRANCH  21  22
HETATM   22  C   UNL     1     -43.157  58.554 -56.520  1.00  0.00     0.192 A 
HETATM   23  N   UNL     1     -43.507  59.031 -55.283  1.00  0.00    -0.311 N 
HETATM   24  C   UNL     1     -42.602  60.035 -55.013  1.00  0.00     0.130 A 
HETATM   25  C   UNL     1     -44.619  58.597 -54.462  1.00  0.00     0.133 C 
HETATM   26  C   UNL     1     -42.539  60.860 -53.773  1.00  0.00     0.081 C 
HETATM   27  N   UNL     1     -41.775  60.149 -56.033  1.00  0.00    -0.134 NA
HETATM   28  C   UNL     1     -43.908  61.241 -53.228  1.00  0.00     0.008 C 
HETATM   29  C   UNL     1     -44.572  60.131 -52.412  1.00  0.00     0.002 C 
HETATM   30  C   UNL     1     -44.401  58.714 -52.957  1.00  0.00     0.020 C 
HETATM   31  N   UNL     1     -42.127  59.223 -56.979  1.00  0.00    -0.123 NA
ENDBRANCH  21  22
ENDBRANCH  20  21
ENDBRANCH   2  20
TORSDOF 7
ENDMDL
MODEL 4
REMARK VINA RESULT:      -7.4      2.345      6.095
REMARK  7 active torsions:
REMARK  status: ('A' for Active; 'I' for Inactive)
REMARK    1  A    between atoms: O_2  and  C_3 
REMARK    2  A    between atoms: C_6  and  C_7 
REMARK    3  A    between atoms: C_7  and  N_8 
REMARK    4  A    between atoms: C_7  and  C_23 
REMARK       I    between atoms: N_8  and  C_9 
REMARK    5  A    between atoms: C_9  and  C_10 
REMARK    6  A    between atoms: C_10  and  S_11 
REMARK    7  A    between atoms: S_11  and  C_12 
ROOT
HETATM    1  N   UNL     1     -43.245  56.033 -53.392  1.00  0.00    -0.348 N 
HETATM    2  C   UNL     1     -44.342  56.834 -53.166  1.00  0.00     0.228 C 
HETATM    3  O   UNL     1     -44.623  57.279 -52.055  1.00  0.00    -0.273 OA
HETATM    4  H   UNL     1     -43.065  55.711 -54.332  1.00  0.00     0.163 HD
ENDROOT
BRANCH   1   5
HETATM    5  C   UNL     1     -42.285  55.740 -52.343  1.00  0.00     0.151 C 
BRANCH   5   6
HETATM    6  C   UNL     1     -41.474  54.482 -52.642  1.00  0.00    -0.031 A 
HETATM    7  C   UNL     1     -40.676  53.849 -51.679  1.00  0.00     0.012 A 
HETATM    8  C   UNL     1     -39.996  52.665 -51.983  1.00  0.00     0.037 A 
HETATM    9  C   UNL     1     -40.108  52.082 -53.245  1.00  0.00     0.068 A 
HETATM   10  C   UNL     1     -40.882  52.710 -54.218  1.00  0.00     0.037 A 
HETATM   11  C   UNL     1     -41.560  53.897 -53.917  1.00  0.00     0.012 A 
BRANCH   9  12
HETATM   12  O   UNL     1     -39.414  50.914 -53.406  1.00  0.00    -0.356 OA
HETATM   13  C   UNL     1     -39.859  50.055 -54.450  1.00  0.00     0.210 C 
ENDBRANCH   9  12
ENDBRANCH   5   6
BRANCH   5  14
HETATM   14  C   UNL     1     -41.399  56.945 -52.043  1.00  0.00    -0.031 A 
HETATM   15  C   UNL     1     -40.796  57.643 -53.104  1.00  0.00     0.009 A 
HETATM   16  C   UNL     1     -39.993  58.759 -52.862  1.00  0.00     0.001 A 
HETATM   17  C   UNL     1     -39.783  59.198 -51.558  1.00  0.00     0.000 A 
HETATM   18  C   UNL     1     -40.374  58.521 -50.494  1.00  0.00     0.001 A 
HETATM   19  C   UNL     1     -41.175  57.402 -50.732  1.00  0.00     0.009 A 
ENDBRANCH   5  14
ENDBRANCH   1   5
BRANCH   2  20
HETATM   20  C   UNL     1     -45.149  57.214 -54.395  1.00  0.00     0.185 C 
BRANCH  20  21
HETATM   21  S   UNL     1     -44.620  58.813 -55.089  1.00  0.00    -0.081 SA
BRANCH  21  22
HETATM   22  C   UNL     1     -45.106  58.590 -56.735  1.00  0.00     0.192 A 
HETATM   23  N   UNL     1     -44.453  57.790 -57.637  1.00  0.00    -0.311 N 
HETATM   24  C   UNL     1     -45.181  57.892 -58.803  1.00  0.00     0.130 A 
HETATM   25  C   UNL     1     -43.234  57.038 -57.416  1.00  0.00     0.133 C 
HETATM   26  C   UNL     1     -44.897  57.191 -60.088  1.00  0.00     0.081 C 
HETATM   27  N   UNL     1     -46.195  58.709 -58.602  1.00  0.00    -0.134 NA
HETATM   28  C   UNL     1     -43.412  57.101 -60.414  1.00  0.00     0.008 C 
HETATM   29  C   UNL     1     -42.694  55.968 -59.680  1.00  0.00     0.002 C 
HETATM   30  C   UNL     1     -43.109  55.751 -58.226  1.00  0.00     0.020 C 
HETATM   31  N   UNL     1     -46.144  59.150 -57.306  1.00  0.00    -0.123 NA
ENDBRANCH  21  22
ENDBRANCH  20  21
ENDBRANCH   2  20
TORSDOF 7
ENDMDL
MODEL 5
REMARK VINA RESULT:      -7.4      3.266      5.675
REMARK  7 active torsions:
REMARK  status: ('A' for Active; 'I' for Inactive)
REMARK    1  A    between atoms: O_2  and  C_3 
REMARK    2  A    between atoms: C_6  and  C_7 
REMARK    3  A    between atoms: C_7  and  N_8 
REMARK    4  A    between atoms: C_7  and  C_23 
REMARK       I    between atoms: N_8  and  C_9 
REMARK    5  A    between atoms: C_9  and  C_10 
REMARK    6  A    between atoms: C_10  and  S_11 
REMARK    7  A    between atoms: S_11  and  C_12 
ROOT
HETATM    1  N   UNL     1     -42.758  57.378 -56.982  1.00  0.00    -0.348 N 
HETATM    2  C   UNL     1     -42.668  56.195 -56.285  1.00  0.00     0.228 C 
HETATM    3  O   UNL     1     -42.645  55.097 -56.837  1.00  0.00    -0.273 OA
HETATM    4  H   UNL     1     -42.760  58.246 -56.466  1.00  0.00     0.163 HD
ENDROOT
BRANCH   1   5
HETATM    5  C   UNL     1     -42.730  57.413 -58.434  1.00  0.00     0.151 C 
BRANCH   5   6
HETATM    6  C   UNL     1     -44.062  56.987 -59.043  1.00  0.00    -0.031 A 
HETATM    7  C   UNL     1     -45.263  57.664 -58.789  1.00  0.00     0.012 A 
HETATM    8  C   UNL     1     -46.450  57.272 -59.416  1.00  0.00     0.037 A 
HETATM    9  C   UNL     1     -46.462  56.208 -60.318  1.00  0.00     0.068 A 
HETATM   10  C   UNL     1     -45.281  55.513 -60.566  1.00  0.00     0.037 A 
HETATM   11  C   UNL     1     -44.092  55.902 -59.936  1.00  0.00     0.012 A 
BRANCH   9  12
HETATM   12  O   UNL     1     -47.681  55.941 -60.881  1.00  0.00    -0.356 OA
HETATM   13  C   UNL     1     -48.187  56.920 -61.780  1.00  0.00     0.210 C 
ENDBRANCH   9  12
ENDBRANCH   5   6
BRANCH   5  14
HETATM   14  C   UNL     1     -42.262  58.769 -58.951  1.00  0.00    -0.031 A 
HETATM   15  C   UNL     1     -42.240  59.012 -60.336  1.00  0.00     0.009 A 
HETATM   16  C   UNL     1     -41.831  60.249 -60.840  1.00  0.00     0.001 A 
HETATM   17  C   UNL     1     -41.442  61.262 -59.969  1.00  0.00     0.000 A 
HETATM   18  C   UNL     1     -41.459  61.041 -58.593  1.00  0.00     0.001 A 
HETATM   19  C   UNL     1     -41.864  59.804 -58.087  1.00  0.00     0.009 A 
ENDBRANCH   5  14
ENDBRANCH   1   5
BRANCH   2  20
HETATM   20  C   UNL     1     -42.511  56.323 -54.780  1.00  0.00     0.185 C 
BRANCH  20  21
HETATM   21  S   UNL     1     -43.546  55.124 -53.882  1.00  0.00    -0.081 SA
BRANCH  21  22
HETATM   22  C   UNL     1     -42.396  54.559 -52.720  1.00  0.00     0.192 A 
HETATM   23  N   UNL     1     -41.481  53.565 -52.950  1.00  0.00    -0.311 N 
HETATM   24  C   UNL     1     -40.766  53.453 -51.777  1.00  0.00     0.130 A 
HETATM   25  C   UNL     1     -41.334  52.775 -54.156  1.00  0.00     0.133 C 
HETATM   26  C   UNL     1     -39.632  52.521 -51.517  1.00  0.00     0.081 C 
HETATM   27  N   UNL     1     -41.238  54.322 -50.906  1.00  0.00    -0.134 NA
HETATM   28  C   UNL     1     -39.826  51.143 -52.135  1.00  0.00     0.008 C 
HETATM   29  C   UNL     1     -39.482  51.088 -53.624  1.00  0.00     0.002 C 
HETATM   30  C   UNL     1     -39.915  52.297 -54.451  1.00  0.00     0.020 C 
HETATM   31  N   UNL     1     -42.263  55.012 -51.497  1.00  0.00    -0.123 NA
ENDBRANCH  21  22
ENDBRANCH  20  21
ENDBRANCH   2  20
TORSDOF 7
ENDMDL
MODEL 6
REMARK VINA RESULT:      -7.4      2.461      5.155
REMARK  7 active torsions:
REMARK  status: ('A' for Active; 'I' for Inactive)
REMARK    1  A    between atoms: O_2  and  C_3 
REMARK    2  A    between atoms: C_6  and  C_7 
REMARK    3  A    between atoms: C_7  and  N_8 
REMARK    4  A    between atoms: C_7  and  C_23 
REMARK       I    between atoms: N_8  and  C_9 
REMARK    5  A    between atoms: C_9  and  C_10 
REMARK    6  A    between atoms: C_10  and  S_11 
REMARK    7  A    between atoms: S_11  and  C_12 
ROOT
HETATM    1  N   UNL     1     -42.439  56.548 -54.604  1.00  0.00    -0.348 N 
HETATM    2  C   UNL     1     -43.749  56.674 -55.006  1.00  0.00     0.228 C 
HETATM    3  O   UNL     1     -44.697  56.311 -54.312  1.00  0.00    -0.273 OA
HETATM    4  H   UNL     1     -41.709  56.877 -55.219  1.00  0.00     0.163 HD
ENDROOT
BRANCH   1   5
HETATM    5  C   UNL     1     -42.090  56.066 -53.278  1.00  0.00     0.151 C 
BRANCH   5   6
HETATM    6  C   UNL     1     -41.313  54.755 -53.330  1.00  0.00    -0.031 A 
HETATM    7  C   UNL     1     -41.014  54.005 -52.184  1.00  0.00     0.012 A 
HETATM    8  C   UNL     1     -40.348  52.779 -52.286  1.00  0.00     0.037 A 
HETATM    9  C   UNL     1     -39.980  52.269 -53.532  1.00  0.00     0.068 A 
HETATM   10  C   UNL     1     -40.253  53.012 -54.678  1.00  0.00     0.037 A 
HETATM   11  C   UNL     1     -40.916  54.241 -54.577  1.00  0.00     0.012 A 
BRANCH   9  12
HETATM   12  O   UNL     1     -39.358  51.052 -53.496  1.00  0.00    -0.356 OA
HETATM   13  C   UNL     1     -39.823  50.080 -54.425  1.00  0.00     0.210 C 
ENDBRANCH   9  12
ENDBRANCH   5   6
BRANCH   5  14
HETATM   14  C   UNL     1     -41.370  57.137 -52.466  1.00  0.00    -0.031 A 
HETATM   15  C   UNL     1     -40.496  58.027 -53.113  1.00  0.00     0.009 A 
HETATM   16  C   UNL     1     -39.835  59.029 -52.399  1.00  0.00     0.001 A 
HETATM   17  C   UNL     1     -40.040  59.159 -51.029  1.00  0.00     0.000 A 
HETATM   18  C   UNL     1     -40.905  58.288 -50.370  1.00  0.00     0.001 A 
HETATM   19  C   UNL     1     -41.565  57.284 -51.081  1.00  0.00     0.009 A 
ENDBRANCH   5  14
ENDBRANCH   1   5
BRANCH   2  20
HETATM   20  C   UNL     1     -43.969  57.372 -56.337  1.00  0.00     0.185 C 
BRANCH  20  21
HETATM   21  S   UNL     1     -44.976  58.878 -56.158  1.00  0.00    -0.081 SA
BRANCH  21  22
HETATM   22  C   UNL     1     -43.977  59.767 -55.061  1.00  0.00     0.192 A 
HETATM   23  N   UNL     1     -44.199  59.866 -53.711  1.00  0.00    -0.311 N 
HETATM   24  C   UNL     1     -43.166  60.642 -53.230  1.00  0.00     0.130 A 
HETATM   25  C   UNL     1     -45.310  59.309 -52.966  1.00  0.00     0.133 C 
HETATM   26  C   UNL     1     -42.937  61.028 -51.809  1.00  0.00     0.081 C 
HETATM   27  N   UNL     1     -42.388  60.986 -54.237  1.00  0.00    -0.134 NA
HETATM   28  C   UNL     1     -44.219  61.353 -51.055  1.00  0.00     0.008 C 
HETATM   29  C   UNL     1     -44.967  60.115 -50.559  1.00  0.00     0.002 C 
HETATM   30  C   UNL     1     -44.998  58.929 -51.522  1.00  0.00     0.020 C 
HETATM   31  N   UNL     1     -42.900  60.441 -55.384  1.00  0.00    -0.123 NA
ENDBRANCH  21  22
ENDBRANCH  20  21
ENDBRANCH   2  20
TORSDOF 7
ENDMDL
MODEL 7
REMARK VINA RESULT:      -7.3      3.100      6.882
REMARK  7 active torsions:
REMARK  status: ('A' for Active; 'I' for Inactive)
REMARK    1  A    between atoms: O_2  and  C_3 
REMARK    2  A    between atoms: C_6  and  C_7 
REMARK    3  A    between atoms: C_7  and  N_8 
REMARK    4  A    between atoms: C_7  and  C_23 
REMARK       I    between atoms: N_8  and  C_9 
REMARK    5  A    between atoms: C_9  and  C_10 
REMARK    6  A    between atoms: C_10  and  S_11 
REMARK    7  A    between atoms: S_11  and  C_12 
ROOT
HETATM    1  N   UNL     1     -42.739  56.337 -54.562  1.00  0.00    -0.348 N 
HETATM    2  C   UNL     1     -43.951  56.943 -54.803  1.00  0.00     0.228 C 
HETATM    3  O   UNL     1     -44.802  57.101 -53.930  1.00  0.00    -0.273 OA
HETATM    4  H   UNL     1     -42.081  56.250 -55.323  1.00  0.00     0.163 HD
ENDROOT
BRANCH   1   5
HETATM    5  C   UNL     1     -42.341  55.930 -53.226  1.00  0.00     0.151 C 
BRANCH   5   6
HETATM    6  C   UNL     1     -41.603  54.595 -53.228  1.00  0.00    -0.031 A 
HETATM    7  C   UNL     1     -41.511  53.782 -54.367  1.00  0.00     0.012 A 
HETATM    8  C   UNL     1     -40.774  52.594 -54.337  1.00  0.00     0.037 A 
HETATM    9  C   UNL     1     -40.104  52.198 -53.179  1.00  0.00     0.068 A 
HETATM   10  C   UNL     1     -40.203  52.986 -52.034  1.00  0.00     0.037 A 
HETATM   11  C   UNL     1     -40.943  54.174 -52.061  1.00  0.00     0.012 A 
BRANCH   9  12
HETATM   12  O   UNL     1     -39.401  51.030 -53.289  1.00  0.00    -0.356 OA
HETATM   13  C   UNL     1     -39.786  50.160 -54.346  1.00  0.00     0.210 C 
ENDBRANCH   9  12
ENDBRANCH   5   6
BRANCH   5  14
HETATM   14  C   UNL     1     -41.555  57.028 -52.518  1.00  0.00    -0.031 A 
HETATM   15  C   UNL     1     -40.648  57.813 -53.251  1.00  0.00     0.009 A 
HETATM   16  C   UNL     1     -39.925  58.837 -52.635  1.00  0.00     0.001 A 
HETATM   17  C   UNL     1     -40.100  59.095 -51.279  1.00  0.00     0.000 A 
HETATM   18  C   UNL     1     -40.996  58.329 -50.536  1.00  0.00     0.001 A 
HETATM   19  C   UNL     1     -41.718  57.303 -51.149  1.00  0.00     0.009 A 
ENDBRANCH   5  14
ENDBRANCH   1   5
BRANCH   2  20
HETATM   20  C   UNL     1     -44.150  57.490 -56.206  1.00  0.00     0.185 C 
BRANCH  20  21
HETATM   21  S   UNL     1     -42.705  57.180 -57.270  1.00  0.00    -0.081 SA
BRANCH  21  22
HETATM   22  C   UNL     1     -42.215  58.810 -57.577  1.00  0.00     0.192 A 
HETATM   23  N   UNL     1     -42.314  59.436 -58.793  1.00  0.00    -0.311 N 
HETATM   24  C   UNL     1     -41.832  60.711 -58.583  1.00  0.00     0.130 A 
HETATM   25  C   UNL     1     -42.783  58.860 -60.037  1.00  0.00     0.133 C 
HETATM   26  C   UNL     1     -41.746  61.802 -59.595  1.00  0.00     0.081 C 
HETATM   27  N   UNL     1     -41.463  60.825 -57.322  1.00  0.00    -0.134 NA
HETATM   28  C   UNL     1     -41.332  61.316 -60.977  1.00  0.00     0.008 C 
HETATM   29  C   UNL     1     -42.483  60.711 -61.781  1.00  0.00     0.002 C 
HETATM   30  C   UNL     1     -43.458  59.839 -60.992  1.00  0.00     0.020 C 
HETATM   31  N   UNL     1     -41.700  59.631 -56.694  1.00  0.00    -0.123 NA
ENDBRANCH  21  22
ENDBRANCH  20  21
ENDBRANCH   2  20
TORSDOF 7
ENDMDL
MODEL 8
REMARK VINA RESULT:      -7.3     16.078     19.288
REMARK  7 active torsions:
REMARK  status: ('A' for Active; 'I' for Inactive)
REMARK    1  A    between atoms: O_2  and  C_3 
REMARK    2  A    between atoms: C_6  and  C_7 
REMARK    3  A    between atoms: C_7  and  N_8 
REMARK    4  A    between atoms: C_7  and  C_23 
REMARK       I    between atoms: N_8  and  C_9 
REMARK    5  A    between atoms: C_9  and  C_10 
REMARK    6  A    between atoms: C_10  and  S_11 
REMARK    7  A    between atoms: S_11  and  C_12 
ROOT
HETATM    1  N   UNL     1     -35.224  39.547 -51.077  1.00  0.00    -0.348 N 
HETATM    2  C   UNL     1     -36.469  39.113 -51.475  1.00  0.00     0.228 C 
HETATM    3  O   UNL     1     -36.656  38.017 -51.999  1.00  0.00    -0.273 OA
HETATM    4  H   UNL     1     -35.143  40.454 -50.642  1.00  0.00     0.163 HD
ENDROOT
BRANCH   1   5
HETATM    5  C   UNL     1     -34.055  38.689 -51.159  1.00  0.00     0.151 C 
BRANCH   5   6
HETATM    6  C   UNL     1     -33.239  38.949 -52.421  1.00  0.00    -0.031 A 
HETATM    7  C   UNL     1     -33.346  40.136 -53.161  1.00  0.00     0.012 A 
HETATM    8  C   UNL     1     -32.536  40.355 -54.279  1.00  0.00     0.037 A 
HETATM    9  C   UNL     1     -31.595  39.404 -54.675  1.00  0.00     0.068 A 
HETATM   10  C   UNL     1     -31.490  38.212 -53.962  1.00  0.00     0.037 A 
HETATM   11  C   UNL     1     -32.304  37.990 -52.844  1.00  0.00     0.012 A 
BRANCH   9  12
HETATM   12  O   UNL     1     -30.849  39.749 -55.770  1.00  0.00    -0.356 OA
HETATM   13  C   UNL     1     -29.817  38.843 -56.139  1.00  0.00     0.210 C 
ENDBRANCH   9  12
ENDBRANCH   5   6
BRANCH   5  14
HETATM   14  C   UNL     1     -33.209  38.774 -49.892  1.00  0.00    -0.031 A 
HETATM   15  C   UNL     1     -33.193  37.690 -48.997  1.00  0.00     0.009 A 
HETATM   16  C   UNL     1     -32.416  37.732 -47.837  1.00  0.00     0.001 A 
HETATM   17  C   UNL     1     -31.641  38.854 -47.556  1.00  0.00     0.000 A 
HETATM   18  C   UNL     1     -31.643  39.936 -48.434  1.00  0.00     0.001 A 
HETATM   19  C   UNL     1     -32.420  39.899 -49.592  1.00  0.00     0.009 A 
ENDBRANCH   5  14
ENDBRANCH   1   5
BRANCH   2  20
HETATM   20  C   UNL     1     -37.627  40.040 -51.151  1.00  0.00     0.185 C 
BRANCH  20  21
HETATM   21  S   UNL     1     -38.475  40.623 -52.654  1.00  0.00    -0.081 SA
BRANCH  21  22
HETATM   22  C   UNL     1     -37.182  41.501 -53.395  1.00  0.00     0.192 A 
HETATM   23  N   UNL     1     -36.883  41.464 -54.733  1.00  0.00    -0.311 N 
HETATM   24  C   UNL     1     -35.807  42.313 -54.887  1.00  0.00     0.130 A 
HETATM   25  C   UNL     1     -37.534  40.666 -55.752  1.00  0.00     0.133 C 
HETATM   26  C   UNL     1     -35.114  42.640 -56.165  1.00  0.00     0.081 C 
HETATM   27  N   UNL     1     -35.487  42.811 -53.709  1.00  0.00    -0.134 NA
HETATM   28  C   UNL     1     -34.964  41.446 -57.097  1.00  0.00     0.008 C 
HETATM   29  C   UNL     1     -36.226  41.138 -57.903  1.00  0.00     0.002 C 
HETATM   30  C   UNL     1     -37.547  41.280 -57.149  1.00  0.00     0.020 C 
HETATM   31  N   UNL     1     -36.347  42.298 -52.775  1.00  0.00    -0.123 NA
ENDBRANCH  21  22
ENDBRANCH  20  21
ENDBRANCH   2  20
TORSDOF 7
ENDMDL
MODEL 9
REMARK VINA RESULT:      -7.2      3.377      6.206
REMARK  7 active torsions:
REMARK  status: ('A' for Active; 'I' for Inactive)
REMARK    1  A    between atoms: O_2  and  C_3 
REMARK    2  A    between atoms: C_6  and  C_7 
REMARK    3  A    between atoms: C_7  and  N_8 
REMARK    4  A    between atoms: C_7  and  C_23 
REMARK       I    between atoms: N_8  and  C_9 
REMARK    5  A    between atoms: C_9  and  C_10 
REMARK    6  A    between atoms: C_10  and  S_11 
REMARK    7  A    between atoms: S_11  and  C_12 
ROOT
HETATM    1  N   UNL     1     -42.255  57.103 -57.078  1.00  0.00    -0.348 N 
HETATM    2  C   UNL     1     -42.509  56.721 -55.780  1.00  0.00     0.228 C 
HETATM    3  O   UNL     1     -43.514  57.074 -55.166  1.00  0.00    -0.273 OA
HETATM    4  H   UNL     1     -41.415  56.767 -57.527  1.00  0.00     0.163 HD
ENDROOT
BRANCH   1   5
HETATM    5  C   UNL     1     -43.216  57.873 -57.849  1.00  0.00     0.151 C 
BRANCH   5   6
HETATM    6  C   UNL     1     -42.562  59.042 -58.579  1.00  0.00    -0.031 A 
HETATM    7  C   UNL     1     -42.626  59.196 -59.971  1.00  0.00     0.012 A 
HETATM    8  C   UNL     1     -42.060  60.315 -60.591  1.00  0.00     0.037 A 
HETATM    9  C   UNL     1     -41.432  61.307 -59.837  1.00  0.00     0.068 A 
HETATM   10  C   UNL     1     -41.343  61.158 -58.455  1.00  0.00     0.037 A 
HETATM   11  C   UNL     1     -41.906  60.037 -57.833  1.00  0.00     0.012 A 
BRANCH   9  12
HETATM   12  O   UNL     1     -40.942  62.360 -60.561  1.00  0.00    -0.356 OA
HETATM   13  C   UNL     1     -41.015  62.238 -61.976  1.00  0.00     0.210 C 
ENDBRANCH   9  12
ENDBRANCH   5   6
BRANCH   5  14
HETATM   14  C   UNL     1     -44.024  56.981 -58.786  1.00  0.00    -0.031 A 
HETATM   15  C   UNL     1     -45.349  57.330 -59.102  1.00  0.00     0.009 A 
HETATM   16  C   UNL     1     -46.109  56.542 -59.969  1.00  0.00     0.001 A 
HETATM   17  C   UNL     1     -45.557  55.398 -60.537  1.00  0.00     0.000 A 
HETATM   18  C   UNL     1     -44.244  55.038 -60.238  1.00  0.00     0.001 A 
HETATM   19  C   UNL     1     -43.483  55.822 -59.369  1.00  0.00     0.009 A 
ENDBRANCH   5  14
ENDBRANCH   1   5
BRANCH   2  20
HETATM   20  C   UNL     1     -41.508  55.758 -55.166  1.00  0.00     0.185 C 
BRANCH  20  21
HETATM   21  S   UNL     1     -42.248  54.127 -54.833  1.00  0.00    -0.081 SA
BRANCH  21  22
HETATM   22  C   UNL     1     -41.291  53.646 -53.475  1.00  0.00     0.192 A 
HETATM   23  N   UNL     1     -40.698  52.417 -53.338  1.00  0.00    -0.311 N 
HETATM   24  C   UNL     1     -40.030  52.471 -52.133  1.00  0.00     0.130 A 
HETATM   25  C   UNL     1     -40.794  51.294 -54.247  1.00  0.00     0.133 C 
HETATM   26  C   UNL     1     -39.203  51.387 -51.529  1.00  0.00     0.081 C 
HETATM   27  N   UNL     1     -40.227  53.656 -51.589  1.00  0.00    -0.134 NA
HETATM   28  C   UNL     1     -39.787  49.996 -51.733  1.00  0.00     0.008 C 
HETATM   29  C   UNL     1     -39.490  49.405 -53.112  1.00  0.00     0.002 C 
HETATM   30  C   UNL     1     -39.572  50.381 -54.284  1.00  0.00     0.020 C 
HETATM   31  N   UNL     1     -41.021  54.390 -52.430  1.00  0.00    -0.123 NA
ENDBRANCH  21  22
ENDBRANCH  20  21
ENDBRANCH   2  20
TORSDOF 7
ENDMDL
MODEL 10
REMARK VINA RESULT:      -7.0      3.426      5.796
REMARK  7 active torsions:
REMARK  status: ('A' for Active; 'I' for Inactive)
REMARK    1  A    between atoms: O_2  and  C_3 
REMARK    2  A    between atoms: C_6  and  C_7 
REMARK    3  A    between atoms: C_7  and  N_8 
REMARK    4  A    between atoms: C_7  and  C_23 
REMARK       I    between atoms: N_8  and  C_9 
REMARK    5  A    between atoms: C_9  and  C_10 
REMARK    6  A    between atoms: C_10  and  S_11 
REMARK    7  A    between atoms: S_11  and  C_12 
ROOT
HETATM    1  N   UNL     1     -43.303  57.366 -57.150  1.00  0.00    -0.348 N 
HETATM    2  C   UNL     1     -43.134  56.181 -56.469  1.00  0.00     0.228 C 
HETATM    3  O   UNL     1     -42.907  55.114 -57.036  1.00  0.00    -0.273 OA
HETATM    4  H   UNL     1     -43.475  58.209 -56.621  1.00  0.00     0.163 HD
ENDROOT
BRANCH   1   5
HETATM    5  C   UNL     1     -43.124  57.452 -58.589  1.00  0.00     0.151 C 
BRANCH   5   6
HETATM    6  C   UNL     1     -44.407  57.128 -59.347  1.00  0.00    -0.031 A 
HETATM    7  C   UNL     1     -44.543  55.991 -60.156  1.00  0.00     0.012 A 
HETATM    8  C   UNL     1     -45.758  55.704 -60.786  1.00  0.00     0.037 A 
HETATM    9  C   UNL     1     -46.865  56.535 -60.612  1.00  0.00     0.068 A 
HETATM   10  C   UNL     1     -46.741  57.679 -59.827  1.00  0.00     0.037 A 
HETATM   11  C   UNL     1     -45.523  57.969 -59.199  1.00  0.00     0.012 A 
BRANCH   9  12
HETATM   12  O   UNL     1     -47.999  56.131 -61.263  1.00  0.00    -0.356 OA
HETATM   13  C   UNL     1     -48.533  57.037 -62.220  1.00  0.00     0.210 C 
ENDBRANCH   9  12
ENDBRANCH   5   6
BRANCH   5  14
HETATM   14  C   UNL     1     -42.530  58.795 -58.999  1.00  0.00    -0.031 A 
HETATM   15  C   UNL     1     -42.110  59.698 -58.008  1.00  0.00     0.009 A 
HETATM   16  C   UNL     1     -41.547  60.929 -58.352  1.00  0.00     0.001 A 
HETATM   17  C   UNL     1     -41.391  61.274 -59.692  1.00  0.00     0.000 A 
HETATM   18  C   UNL     1     -41.799  60.391 -60.689  1.00  0.00     0.001 A 
HETATM   19  C   UNL     1     -42.365  59.161 -60.347  1.00  0.00     0.009 A 
ENDBRANCH   5  14
ENDBRANCH   1   5
BRANCH   2  20
HETATM   20  C   UNL     1     -43.158  56.279 -54.954  1.00  0.00     0.185 C 
BRANCH  20  21
HETATM   21  S   UNL     1     -41.551  56.808 -54.280  1.00  0.00    -0.081 SA
BRANCH  21  22
HETATM   22  C   UNL     1     -41.042  55.328 -53.544  1.00  0.00     0.192 A 
HETATM   23  N   UNL     1     -41.035  55.092 -52.194  1.00  0.00    -0.311 N 
HETATM   24  C   UNL     1     -40.580  53.798 -52.055  1.00  0.00     0.130 A 
HETATM   25  C   UNL     1     -41.389  56.024 -51.142  1.00  0.00     0.133 C 
HETATM   26  C   UNL     1     -40.409  53.053 -50.775  1.00  0.00     0.081 C 
HETATM   27  N   UNL     1     -40.326  53.306 -53.251  1.00  0.00    -0.134 NA
HETATM   28  C   UNL     1     -39.871  53.912 -49.640  1.00  0.00     0.008 C 
HETATM   29  C   UNL     1     -40.942  54.764 -48.958  1.00  0.00     0.002 C 
HETATM   30  C   UNL     1     -41.980  55.393 -49.886  1.00  0.00     0.020 C 
HETATM   31  N   UNL     1     -40.612  54.267 -54.183  1.00  0.00    -0.123 NA
ENDBRANCH  21  22
ENDBRANCH  20  21
ENDBRANCH   2  20
TORSDOF 7
ENDMDL
