MODEL 1
REMARK VINA RESULT:      -8.2      0.000      0.000
REMARK  5 active torsions:
REMARK  status: ('A' for Active; 'I' for Inactive)
REMARK    1  A    between atoms: O_2  and  C_3 
REMARK    2  A    between atoms: C_7  and  C_8 
REMARK    3  A    between atoms: C_8  and  N_9 
REMARK       I    between atoms: N_9  and  C_10 
REMARK    4  A    between atoms: C_10  and  C_11 
REMARK    5  A    between atoms: C_13  and  C_14 
ROOT
HETATM    1  N   UNL     1     -41.461  56.483 -54.021  1.00  0.00    -0.353 N 
HETATM    2  C   UNL     1     -41.981  56.054 -52.821  1.00  0.00     0.251 C 
HETATM    3  O   UNL     1     -42.981  56.542 -52.307  1.00  0.00    -0.268 OA
HETATM    4  H   UNL     1     -40.609  56.086 -54.388  1.00  0.00     0.163 HD
ENDROOT
BRANCH   2   5
HETATM    5  C   UNL     1     -41.244  54.966 -52.123  1.00  0.00     0.032 A 
HETATM    6  C   UNL     1     -40.985  53.785 -52.834  1.00  0.00     0.029 A 
HETATM    7  C   UNL     1     -40.285  52.727 -52.237  1.00  0.00    -0.023 A 
HETATM    8  C   UNL     1     -39.844  52.875 -50.914  1.00  0.00     0.012 A 
HETATM    9  C   UNL     1     -40.086  54.055 -50.207  1.00  0.00     0.002 A 
HETATM   10  C   UNL     1     -40.784  55.104 -50.809  1.00  0.00     0.017 A 
BRANCH   7  11
HETATM   11  C   UNL     1     -40.039  51.505 -52.985  1.00  0.00    -0.002 A 
HETATM   12  C   UNL     1     -39.586  50.323 -52.431  1.00  0.00     0.153 A 
HETATM   13  O   UNL     1     -39.444  49.364 -53.384  1.00  0.00    -0.334 OA
HETATM   14  C   UNL     1     -39.797  49.929 -54.565  1.00  0.00     0.142 A 
HETATM   15  C   UNL     1     -40.166  51.240 -54.378  1.00  0.00     0.038 A 
ENDBRANCH   7  11
ENDBRANCH   2   5
BRANCH   1  16
HETATM   16  C   UNL     1     -42.118  57.513 -54.793  1.00  0.00     0.161 C 
BRANCH  16  17
HETATM   17  C   UNL     1     -42.424  57.038 -56.189  1.00  0.00    -0.037 A 
HETATM   18  C   UNL     1     -42.316  57.903 -57.285  1.00  0.00     0.054 A 
HETATM   19  C   UNL     1     -42.575  57.443 -58.578  1.00  0.00     0.150 A 
HETATM   20  C   UNL     1     -42.947  56.118 -58.810  1.00  0.00     0.106 A 
HETATM   21  F   UNL     1     -42.454  58.325 -59.581  1.00  0.00    -0.203 F 
HETATM   22  C   UNL     1     -43.065  55.256 -57.715  1.00  0.00     0.040 A 
HETATM   23  C   UNL     1     -42.802  55.709 -56.418  1.00  0.00     0.012 A 
BRANCH  20  24
HETATM   24  O   UNL     1     -43.224  55.532 -60.015  1.00  0.00    -0.353 OA
HETATM   25  C   UNL     1     -44.533  55.003 -60.190  1.00  0.00     0.210 C 
ENDBRANCH  20  24
ENDBRANCH  16  17
ENDBRANCH   1  16
TORSDOF 5
ENDMDL
MODEL 2
REMARK VINA RESULT:      -8.1      2.407      3.811
REMARK  5 active torsions:
REMARK  status: ('A' for Active; 'I' for Inactive)
REMARK    1  A    between atoms: O_2  and  C_3 
REMARK    2  A    between atoms: C_7  and  C_8 
REMARK    3  A    between atoms: C_8  and  N_9 
REMARK       I    between atoms: N_9  and  C_10 
REMARK    4  A    between atoms: C_10  and  C_11 
REMARK    5  A    between atoms: C_13  and  C_14 
ROOT
HETATM    1  N   UNL     1     -42.027  56.227 -56.471  1.00  0.00    -0.353 N 
HETATM    2  C   UNL     1     -41.738  56.352 -55.132  1.00  0.00     0.251 C 
HETATM    3  O   UNL     1     -41.866  57.400 -54.509  1.00  0.00    -0.268 OA
HETATM    4  H   UNL     1     -41.866  55.357 -56.958  1.00  0.00     0.163 HD
ENDROOT
BRANCH   2   5
HETATM    5  C   UNL     1     -41.209  55.141 -54.446  1.00  0.00     0.032 A 
HETATM    6  C   UNL     1     -41.282  55.092 -53.047  1.00  0.00     0.029 A 
HETATM    7  C   UNL     1     -40.812  53.975 -52.343  1.00  0.00    -0.023 A 
HETATM    8  C   UNL     1     -40.270  52.904 -53.066  1.00  0.00     0.012 A 
HETATM    9  C   UNL     1     -40.208  52.941 -54.462  1.00  0.00     0.002 A 
HETATM   10  C   UNL     1     -40.679  54.057 -55.155  1.00  0.00     0.017 A 
BRANCH   7  11
HETATM   11  C   UNL     1     -40.883  53.949 -50.890  1.00  0.00    -0.002 A 
HETATM   12  C   UNL     1     -41.625  54.826 -50.124  1.00  0.00     0.153 A 
HETATM   13  O   UNL     1     -41.482  54.557 -48.800  1.00  0.00    -0.334 OA
HETATM   14  C   UNL     1     -40.633  53.503 -48.705  1.00  0.00     0.142 A 
HETATM   15  C   UNL     1     -40.232  53.095 -49.955  1.00  0.00     0.038 A 
ENDBRANCH   7  11
ENDBRANCH   2   5
BRANCH   1  16
HETATM   16  C   UNL     1     -42.574  57.333 -57.223  1.00  0.00     0.161 C 
BRANCH  16  17
HETATM   17  C   UNL     1     -43.536  56.855 -58.279  1.00  0.00    -0.037 A 
HETATM   18  C   UNL     1     -43.513  55.529 -58.728  1.00  0.00     0.054 A 
HETATM   19  C   UNL     1     -44.428  55.090 -59.687  1.00  0.00     0.150 A 
HETATM   20  C   UNL     1     -45.385  55.956 -60.220  1.00  0.00     0.106 A 
HETATM   21  F   UNL     1     -44.349  53.808 -60.073  1.00  0.00    -0.203 F 
HETATM   22  C   UNL     1     -45.402  57.283 -59.779  1.00  0.00     0.040 A 
HETATM   23  C   UNL     1     -44.492  57.728 -58.815  1.00  0.00     0.012 A 
BRANCH  20  24
HETATM   24  O   UNL     1     -46.340  55.666 -61.155  1.00  0.00    -0.353 OA
HETATM   25  C   UNL     1     -47.468  56.531 -61.217  1.00  0.00     0.210 C 
ENDBRANCH  20  24
ENDBRANCH  16  17
ENDBRANCH   1  16
TORSDOF 5
ENDMDL
MODEL 3
REMARK VINA RESULT:      -7.7      3.162      8.546
REMARK  5 active torsions:
REMARK  status: ('A' for Active; 'I' for Inactive)
REMARK    1  A    between atoms: O_2  and  C_3 
REMARK    2  A    between atoms: C_7  and  C_8 
REMARK    3  A    between atoms: C_8  and  N_9 
REMARK       I    between atoms: N_9  and  C_10 
REMARK    4  A    between atoms: C_10  and  C_11 
REMARK    5  A    between atoms: C_13  and  C_14 
ROOT
HETATM    1  N   UNL     1     -41.489  56.070 -55.436  1.00  0.00    -0.353 N 
HETATM    2  C   UNL     1     -42.692  56.475 -55.968  1.00  0.00     0.251 C 
HETATM    3  O   UNL     1     -43.700  56.654 -55.295  1.00  0.00    -0.268 OA
HETATM    4  H   UNL     1     -40.693  55.891 -56.031  1.00  0.00     0.163 HD
ENDROOT
BRANCH   2   5
HETATM    5  C   UNL     1     -42.742  56.659 -57.445  1.00  0.00     0.032 A 
HETATM    6  C   UNL     1     -42.403  57.917 -57.963  1.00  0.00     0.029 A 
HETATM    7  C   UNL     1     -42.420  58.151 -59.345  1.00  0.00    -0.023 A 
HETATM    8  C   UNL     1     -42.779  57.101 -60.201  1.00  0.00     0.012 A 
HETATM    9  C   UNL     1     -43.103  55.841 -59.689  1.00  0.00     0.002 A 
HETATM   10  C   UNL     1     -43.083  55.616 -58.312  1.00  0.00     0.017 A 
BRANCH   7  11
HETATM   11  C   UNL     1     -42.079  59.467 -59.863  1.00  0.00    -0.002 A 
HETATM   12  C   UNL     1     -41.780  60.565 -59.082  1.00  0.00     0.153 A 
HETATM   13  O   UNL     1     -41.514  61.652 -59.853  1.00  0.00    -0.334 OA
HETATM   14  C   UNL     1     -41.649  61.259 -61.144  1.00  0.00     0.142 A 
HETATM   15  C   UNL     1     -41.999  59.931 -61.207  1.00  0.00     0.038 A 
ENDBRANCH   7  11
ENDBRANCH   2   5
BRANCH   1  16
HETATM   16  C   UNL     1     -41.326  55.892 -54.011  1.00  0.00     0.161 C 
BRANCH  16  17
HETATM   17  C   UNL     1     -40.835  54.506 -53.687  1.00  0.00    -0.037 A 
HETATM   18  C   UNL     1     -40.678  54.088 -52.359  1.00  0.00     0.054 A 
HETATM   19  C   UNL     1     -40.249  52.792 -52.070  1.00  0.00     0.150 A 
HETATM   20  C   UNL     1     -39.968  51.881 -53.091  1.00  0.00     0.106 A 
HETATM   21  F   UNL     1     -40.119  52.459 -50.778  1.00  0.00    -0.203 F 
HETATM   22  C   UNL     1     -40.115  52.300 -54.417  1.00  0.00     0.040 A 
HETATM   23  C   UNL     1     -40.549  53.597 -54.714  1.00  0.00     0.012 A 
BRANCH  20  24
HETATM   24  O   UNL     1     -39.548  50.587 -52.958  1.00  0.00    -0.353 OA
HETATM   25  C   UNL     1     -39.596  49.769 -54.120  1.00  0.00     0.210 C 
ENDBRANCH  20  24
ENDBRANCH  16  17
ENDBRANCH   1  16
TORSDOF 5
ENDMDL
MODEL 4
REMARK VINA RESULT:      -7.6      3.914      5.798
REMARK  5 active torsions:
REMARK  status: ('A' for Active; 'I' for Inactive)
REMARK    1  A    between atoms: O_2  and  C_3 
REMARK    2  A    between atoms: C_7  and  C_8 
REMARK    3  A    between atoms: C_8  and  N_9 
REMARK       I    between atoms: N_9  and  C_10 
REMARK    4  A    between atoms: C_10  and  C_11 
REMARK    5  A    between atoms: C_13  and  C_14 
ROOT
HETATM    1  N   UNL     1     -43.074  56.311 -52.310  1.00  0.00    -0.353 N 
HETATM    2  C   UNL     1     -41.762  56.039 -52.620  1.00  0.00     0.251 C 
HETATM    3  O   UNL     1     -41.116  56.680 -53.442  1.00  0.00    -0.268 OA
HETATM    4  H   UNL     1     -43.585  55.731 -51.660  1.00  0.00     0.163 HD
ENDROOT
BRANCH   2   5
HETATM    5  C   UNL     1     -41.139  54.876 -51.930  1.00  0.00     0.032 A 
HETATM    6  C   UNL     1     -40.867  53.729 -52.689  1.00  0.00     0.029 A 
HETATM    7  C   UNL     1     -40.271  52.604 -52.101  1.00  0.00    -0.023 A 
HETATM    8  C   UNL     1     -39.947  52.651 -50.738  1.00  0.00     0.012 A 
HETATM    9  C   UNL     1     -40.202  53.798 -49.982  1.00  0.00     0.002 A 
HETATM   10  C   UNL     1     -40.795  54.913 -50.575  1.00  0.00     0.017 A 
BRANCH   7  11
HETATM   11  C   UNL     1     -40.011  51.418 -52.901  1.00  0.00    -0.002 A 
HETATM   12  C   UNL     1     -39.590  50.205 -52.393  1.00  0.00     0.153 A 
HETATM   13  O   UNL     1     -39.424  49.293 -53.387  1.00  0.00    -0.334 OA
HETATM   14  C   UNL     1     -39.729  49.921 -54.549  1.00  0.00     0.142 A 
HETATM   15  C   UNL     1     -40.091  51.225 -54.310  1.00  0.00     0.038 A 
ENDBRANCH   7  11
ENDBRANCH   2   5
BRANCH   1  16
HETATM   16  C   UNL     1     -43.763  57.436 -52.900  1.00  0.00     0.161 C 
BRANCH  16  17
HETATM   17  C   UNL     1     -44.001  58.524 -51.887  1.00  0.00    -0.037 A 
HETATM   18  C   UNL     1     -43.013  59.475 -51.602  1.00  0.00     0.054 A 
HETATM   19  C   UNL     1     -43.257  60.495 -50.681  1.00  0.00     0.150 A 
HETATM   20  C   UNL     1     -44.485  60.595 -50.023  1.00  0.00     0.106 A 
HETATM   21  F   UNL     1     -42.266  61.371 -50.455  1.00  0.00    -0.203 F 
HETATM   22  C   UNL     1     -45.468  59.641 -50.300  1.00  0.00     0.040 A 
HETATM   23  C   UNL     1     -45.233  58.619 -51.225  1.00  0.00     0.012 A 
BRANCH  20  24
HETATM   24  O   UNL     1     -44.862  61.538 -49.108  1.00  0.00    -0.353 OA
HETATM   25  C   UNL     1     -45.546  61.077 -47.949  1.00  0.00     0.210 C 
ENDBRANCH  20  24
ENDBRANCH  16  17
ENDBRANCH   1  16
TORSDOF 5
ENDMDL
MODEL 5
REMARK VINA RESULT:      -7.5      1.650      2.033
REMARK  5 active torsions:
REMARK  status: ('A' for Active; 'I' for Inactive)
REMARK    1  A    between atoms: O_2  and  C_3 
REMARK    2  A    between atoms: C_7  and  C_8 
REMARK    3  A    between atoms: C_8  and  N_9 
REMARK       I    between atoms: N_9  and  C_10 
REMARK    4  A    between atoms: C_10  and  C_11 
REMARK    5  A    between atoms: C_13  and  C_14 
ROOT
HETATM    1  N   UNL     1     -43.365  56.229 -52.619  1.00  0.00    -0.353 N 
HETATM    2  C   UNL     1     -42.136  56.583 -52.111  1.00  0.00     0.251 C 
HETATM    3  O   UNL     1     -41.690  57.724 -52.157  1.00  0.00    -0.268 OA
HETATM    4  H   UNL     1     -43.677  55.269 -52.602  1.00  0.00     0.163 HD
ENDROOT
BRANCH   2   5
HETATM    5  C   UNL     1     -41.318  55.490 -51.517  1.00  0.00     0.032 A 
HETATM    6  C   UNL     1     -41.085  54.346 -52.294  1.00  0.00     0.029 A 
HETATM    7  C   UNL     1     -40.313  53.286 -51.797  1.00  0.00    -0.023 A 
HETATM    8  C   UNL     1     -39.774  53.394 -50.507  1.00  0.00     0.012 A 
HETATM    9  C   UNL     1     -39.991  54.539 -49.735  1.00  0.00     0.002 A 
HETATM   10  C   UNL     1     -40.760  55.589 -50.238  1.00  0.00     0.017 A 
BRANCH   7  11
HETATM   11  C   UNL     1     -40.095  52.101 -52.611  1.00  0.00    -0.002 A 
HETATM   12  C   UNL     1     -39.545  50.921 -52.149  1.00  0.00     0.153 A 
HETATM   13  O   UNL     1     -39.460  50.003 -53.147  1.00  0.00    -0.334 OA
HETATM   14  C   UNL     1     -39.950  50.592 -54.266  1.00  0.00     0.142 A 
HETATM   15  C   UNL     1     -40.348  51.880 -53.995  1.00  0.00     0.038 A 
ENDBRANCH   7  11
ENDBRANCH   2   5
BRANCH   1  16
HETATM   16  C   UNL     1     -44.250  57.220 -53.189  1.00  0.00     0.161 C 
BRANCH  16  17
HETATM   17  C   UNL     1     -44.128  57.261 -54.690  1.00  0.00    -0.037 A 
HETATM   18  C   UNL     1     -43.335  56.334 -55.375  1.00  0.00     0.054 A 
HETATM   19  C   UNL     1     -43.252  56.365 -56.769  1.00  0.00     0.150 A 
HETATM   20  C   UNL     1     -43.955  57.316 -57.511  1.00  0.00     0.106 A 
HETATM   21  F   UNL     1     -42.473  55.448 -57.361  1.00  0.00    -0.203 F 
HETATM   22  C   UNL     1     -44.740  58.249 -56.826  1.00  0.00     0.040 A 
HETATM   23  C   UNL     1     -44.831  58.220 -55.431  1.00  0.00     0.012 A 
BRANCH  20  24
HETATM   24  O   UNL     1     -43.973  57.461 -58.871  1.00  0.00    -0.353 OA
HETATM   25  C   UNL     1     -42.808  58.004 -59.479  1.00  0.00     0.210 C 
ENDBRANCH  20  24
ENDBRANCH  16  17
ENDBRANCH   1  16
TORSDOF 5
ENDMDL
MODEL 6
REMARK VINA RESULT:      -7.4      2.632      7.497
REMARK  5 active torsions:
REMARK  status: ('A' for Active; 'I' for Inactive)
REMARK    1  A    between atoms: O_2  and  C_3 
REMARK    2  A    between atoms: C_7  and  C_8 
REMARK    3  A    between atoms: C_8  and  N_9 
REMARK       I    between atoms: N_9  and  C_10 
REMARK    4  A    between atoms: C_10  and  C_11 
REMARK    5  A    between atoms: C_13  and  C_14 
ROOT
HETATM    1  N   UNL     1     -41.268  56.180 -53.211  1.00  0.00    -0.353 N 
HETATM    2  C   UNL     1     -42.474  56.680 -53.647  1.00  0.00     0.251 C 
HETATM    3  O   UNL     1     -43.538  56.468 -53.077  1.00  0.00    -0.268 OA
HETATM    4  H   UNL     1     -40.420  56.340 -53.734  1.00  0.00     0.163 HD
ENDROOT
BRANCH   2   5
HETATM    5  C   UNL     1     -42.450  57.483 -54.901  1.00  0.00     0.032 A 
HETATM    6  C   UNL     1     -42.808  56.846 -56.097  1.00  0.00     0.029 A 
HETATM    7  C   UNL     1     -42.817  57.550 -57.310  1.00  0.00    -0.023 A 
HETATM    8  C   UNL     1     -42.465  58.907 -57.302  1.00  0.00     0.012 A 
HETATM    9  C   UNL     1     -42.123  59.550 -56.109  1.00  0.00     0.002 A 
HETATM   10  C   UNL     1     -42.117  58.842 -54.907  1.00  0.00     0.017 A 
BRANCH   7  11
HETATM   11  C   UNL     1     -43.176  56.868 -58.543  1.00  0.00    -0.002 A 
HETATM   12  C   UNL     1     -43.174  57.455 -59.794  1.00  0.00     0.153 A 
HETATM   13  O   UNL     1     -43.566  56.568 -60.746  1.00  0.00    -0.334 OA
HETATM   14  C   UNL     1     -43.832  55.401 -60.110  1.00  0.00     0.142 A 
HETATM   15  C   UNL     1     -43.614  55.531 -58.758  1.00  0.00     0.038 A 
ENDBRANCH   7  11
ENDBRANCH   2   5
BRANCH   1  16
HETATM   16  C   UNL     1     -41.177  55.414 -51.989  1.00  0.00     0.161 C 
BRANCH  16  17
HETATM   17  C   UNL     1     -40.701  54.010 -52.258  1.00  0.00    -0.037 A 
HETATM   18  C   UNL     1     -40.414  53.131 -51.207  1.00  0.00     0.054 A 
HETATM   19  C   UNL     1     -40.000  51.824 -51.469  1.00  0.00     0.150 A 
HETATM   20  C   UNL     1     -39.862  51.361 -52.779  1.00  0.00     0.106 A 
HETATM   21  F   UNL     1     -39.741  51.036 -50.415  1.00  0.00    -0.203 F 
HETATM   22  C   UNL     1     -40.139  52.241 -53.830  1.00  0.00     0.040 A 
HETATM   23  C   UNL     1     -40.559  53.551 -53.574  1.00  0.00     0.012 A 
BRANCH  20  24
HETATM   24  O   UNL     1     -39.474  50.113 -53.183  1.00  0.00    -0.353 OA
HETATM   25  C   UNL     1     -39.686  49.781 -54.549  1.00  0.00     0.210 C 
ENDBRANCH  20  24
ENDBRANCH  16  17
ENDBRANCH   1  16
TORSDOF 5
ENDMDL
MODEL 7
REMARK VINA RESULT:      -7.3      2.448      3.515
REMARK  5 active torsions:
REMARK  status: ('A' for Active; 'I' for Inactive)
REMARK    1  A    between atoms: O_2  and  C_3 
REMARK    2  A    between atoms: C_7  and  C_8 
REMARK    3  A    between atoms: C_8  and  N_9 
REMARK       I    between atoms: N_9  and  C_10 
REMARK    4  A    between atoms: C_10  and  C_11 
REMARK    5  A    between atoms: C_13  and  C_14 
ROOT
HETATM    1  N   UNL     1     -42.118  55.837 -56.531  1.00  0.00    -0.353 N 
HETATM    2  C   UNL     1     -42.580  54.735 -55.849  1.00  0.00     0.251 C 
HETATM    3  O   UNL     1     -43.554  54.081 -56.204  1.00  0.00    -0.268 OA
HETATM    4  H   UNL     1     -41.340  56.376 -56.181  1.00  0.00     0.163 HD
ENDROOT
BRANCH   2   5
HETATM    5  C   UNL     1     -41.857  54.372 -54.599  1.00  0.00     0.032 A 
HETATM    6  C   UNL     1     -41.330  53.077 -54.496  1.00  0.00     0.029 A 
HETATM    7  C   UNL     1     -40.629  52.676 -53.350  1.00  0.00    -0.023 A 
HETATM    8  C   UNL     1     -40.462  53.599 -52.308  1.00  0.00     0.012 A 
HETATM    9  C   UNL     1     -40.972  54.895 -52.412  1.00  0.00     0.002 A 
HETATM   10  C   UNL     1     -41.668  55.286 -53.557  1.00  0.00     0.017 A 
BRANCH   7  11
HETATM   11  C   UNL     1     -40.103  51.324 -53.256  1.00  0.00    -0.002 A 
HETATM   12  C   UNL     1     -40.004  50.444 -54.316  1.00  0.00     0.153 A 
HETATM   13  O   UNL     1     -39.483  49.255 -53.913  1.00  0.00    -0.334 OA
HETATM   14  C   UNL     1     -39.250  49.360 -52.581  1.00  0.00     0.142 A 
HETATM   15  C   UNL     1     -39.616  50.605 -52.127  1.00  0.00     0.038 A 
ENDBRANCH   7  11
ENDBRANCH   2   5
BRANCH   1  16
HETATM   16  C   UNL     1     -42.730  56.256 -57.772  1.00  0.00     0.161 C 
BRANCH  16  17
HETATM   17  C   UNL     1     -42.477  57.716 -58.041  1.00  0.00    -0.037 A 
HETATM   18  C   UNL     1     -42.353  58.633 -56.989  1.00  0.00     0.054 A 
HETATM   19  C   UNL     1     -42.090  59.979 -57.250  1.00  0.00     0.150 A 
HETATM   20  C   UNL     1     -41.944  60.444 -58.558  1.00  0.00     0.106 A 
HETATM   21  F   UNL     1     -41.985  60.802 -56.196  1.00  0.00    -0.203 F 
HETATM   22  C   UNL     1     -42.077  59.531 -59.609  1.00  0.00     0.040 A 
HETATM   23  C   UNL     1     -42.335  58.181 -59.355  1.00  0.00     0.012 A 
BRANCH  20  24
HETATM   24  O   UNL     1     -41.681  61.725 -58.960  1.00  0.00    -0.353 OA
HETATM   25  C   UNL     1     -40.382  62.235 -58.684  1.00  0.00     0.210 C 
ENDBRANCH  20  24
ENDBRANCH  16  17
ENDBRANCH   1  16
TORSDOF 5
ENDMDL
MODEL 8
REMARK VINA RESULT:      -7.2     13.942     15.620
REMARK  5 active torsions:
REMARK  status: ('A' for Active; 'I' for Inactive)
REMARK    1  A    between atoms: O_2  and  C_3 
REMARK    2  A    between atoms: C_7  and  C_8 
REMARK    3  A    between atoms: C_8  and  N_9 
REMARK       I    between atoms: N_9  and  C_10 
REMARK    4  A    between atoms: C_10  and  C_11 
REMARK    5  A    between atoms: C_13  and  C_14 
ROOT
HETATM    1  N   UNL     1     -36.283  41.426 -54.327  1.00  0.00    -0.353 N 
HETATM    2  C   UNL     1     -35.856  41.911 -53.112  1.00  0.00     0.251 C 
HETATM    3  O   UNL     1     -35.471  43.062 -52.943  1.00  0.00    -0.268 OA
HETATM    4  H   UNL     1     -36.550  40.459 -54.436  1.00  0.00     0.163 HD
ENDROOT
BRANCH   2   5
HETATM    5  C   UNL     1     -35.841  40.948 -51.977  1.00  0.00     0.032 A 
HETATM    6  C   UNL     1     -34.620  40.718 -51.326  1.00  0.00     0.029 A 
HETATM    7  C   UNL     1     -34.541  39.832 -50.243  1.00  0.00    -0.023 A 
HETATM    8  C   UNL     1     -35.709  39.182 -49.819  1.00  0.00     0.012 A 
HETATM    9  C   UNL     1     -36.930  39.420 -50.455  1.00  0.00     0.002 A 
HETATM   10  C   UNL     1     -37.000  40.304 -51.533  1.00  0.00     0.017 A 
BRANCH   7  11
HETATM   11  C   UNL     1     -33.263  39.594 -49.590  1.00  0.00    -0.002 A 
HETATM   12  C   UNL     1     -32.037  39.964 -50.106  1.00  0.00     0.153 A 
HETATM   13  O   UNL     1     -31.029  39.598 -49.272  1.00  0.00    -0.334 OA
HETATM   14  C   UNL     1     -31.603  38.979 -48.211  1.00  0.00     0.142 A 
HETATM   15  C   UNL     1     -32.970  38.945 -48.357  1.00  0.00     0.038 A 
ENDBRANCH   7  11
ENDBRANCH   2   5
BRANCH   1  16
HETATM   16  C   UNL     1     -36.365  42.287 -55.486  1.00  0.00     0.161 C 
BRANCH  16  17
HETATM   17  C   UNL     1     -36.953  41.559 -56.667  1.00  0.00    -0.037 A 
HETATM   18  C   UNL     1     -36.893  42.105 -57.954  1.00  0.00     0.054 A 
HETATM   19  C   UNL     1     -37.416  41.408 -59.045  1.00  0.00     0.150 A 
HETATM   20  C   UNL     1     -38.009  40.155 -58.882  1.00  0.00     0.106 A 
HETATM   21  F   UNL     1     -37.326  41.991 -60.249  1.00  0.00    -0.203 F 
HETATM   22  C   UNL     1     -38.079  39.613 -57.595  1.00  0.00     0.040 A 
HETATM   23  C   UNL     1     -37.552  40.303 -56.498  1.00  0.00     0.012 A 
BRANCH  20  24
HETATM   24  O   UNL     1     -38.555  39.361 -59.853  1.00  0.00    -0.353 OA
HETATM   25  C   UNL     1     -37.655  38.757 -60.774  1.00  0.00     0.210 C 
ENDBRANCH  20  24
ENDBRANCH  16  17
ENDBRANCH   1  16
TORSDOF 5
ENDMDL
MODEL 9
REMARK VINA RESULT:      -7.2     14.004     15.804
REMARK  5 active torsions:
REMARK  status: ('A' for Active; 'I' for Inactive)
REMARK    1  A    between atoms: O_2  and  C_3 
REMARK    2  A    between atoms: C_7  and  C_8 
REMARK    3  A    between atoms: C_8  and  N_9 
REMARK       I    between atoms: N_9  and  C_10 
REMARK    4  A    between atoms: C_10  and  C_11 
REMARK    5  A    between atoms: C_13  and  C_14 
ROOT
HETATM    1  N   UNL     1     -36.346  41.222 -54.921  1.00  0.00    -0.353 N 
HETATM    2  C   UNL     1     -36.097  41.557 -53.610  1.00  0.00     0.251 C 
HETATM    3  O   UNL     1     -36.874  42.208 -52.921  1.00  0.00    -0.268 OA
HETATM    4  H   UNL     1     -35.660  40.724 -55.468  1.00  0.00     0.163 HD
ENDROOT
BRANCH   2   5
HETATM    5  C   UNL     1     -34.790  41.121 -53.045  1.00  0.00     0.032 A 
HETATM    6  C   UNL     1     -33.908  40.427 -53.885  1.00  0.00     0.029 A 
HETATM    7  C   UNL     1     -32.658  40.000 -53.417  1.00  0.00    -0.023 A 
HETATM    8  C   UNL     1     -32.304  40.284 -52.090  1.00  0.00     0.012 A 
HETATM    9  C   UNL     1     -33.174  40.989 -51.254  1.00  0.00     0.002 A 
HETATM   10  C   UNL     1     -34.416  41.411 -51.728  1.00  0.00     0.017 A 
BRANCH   7  11
HETATM   11  C   UNL     1     -31.763  39.268 -54.299  1.00  0.00    -0.002 A 
HETATM   12  C   UNL     1     -31.230  38.025 -54.021  1.00  0.00     0.153 A 
HETATM   13  O   UNL     1     -30.423  37.606 -55.031  1.00  0.00    -0.334 OA
HETATM   14  C   UNL     1     -30.424  38.587 -55.967  1.00  0.00     0.142 A 
HETATM   15  C   UNL     1     -31.225  39.631 -55.566  1.00  0.00     0.038 A 
ENDBRANCH   7  11
ENDBRANCH   2   5
BRANCH   1  16
HETATM   16  C   UNL     1     -37.597  41.571 -55.555  1.00  0.00     0.161 C 
BRANCH  16  17
HETATM   17  C   UNL     1     -37.591  41.201 -57.015  1.00  0.00    -0.037 A 
HETATM   18  C   UNL     1     -37.299  42.154 -58.000  1.00  0.00     0.054 A 
HETATM   19  C   UNL     1     -37.270  41.792 -59.348  1.00  0.00     0.150 A 
HETATM   20  C   UNL     1     -37.528  40.480 -59.749  1.00  0.00     0.106 A 
HETATM   21  F   UNL     1     -36.985  42.754 -60.238  1.00  0.00    -0.203 F 
HETATM   22  C   UNL     1     -37.828  39.530 -58.767  1.00  0.00     0.040 A 
HETATM   23  C   UNL     1     -37.855  39.884 -57.414  1.00  0.00     0.012 A 
BRANCH  20  24
HETATM   24  O   UNL     1     -37.528  39.985 -61.023  1.00  0.00    -0.353 OA
HETATM   25  C   UNL     1     -36.692  38.863 -61.281  1.00  0.00     0.210 C 
ENDBRANCH  20  24
ENDBRANCH  16  17
ENDBRANCH   1  16
TORSDOF 5
ENDMDL
MODEL 10
REMARK VINA RESULT:      -7.1      4.325      6.602
REMARK  5 active torsions:
REMARK  status: ('A' for Active; 'I' for Inactive)
REMARK    1  A    between atoms: O_2  and  C_3 
REMARK    2  A    between atoms: C_7  and  C_8 
REMARK    3  A    between atoms: C_8  and  N_9 
REMARK       I    between atoms: N_9  and  C_10 
REMARK    4  A    between atoms: C_10  and  C_11 
REMARK    5  A    between atoms: C_13  and  C_14 
ROOT
HETATM    1  N   UNL     1     -41.577  58.275 -52.352  1.00  0.00    -0.353 N 
HETATM    2  C   UNL     1     -41.411  58.200 -53.716  1.00  0.00     0.251 C 
HETATM    3  O   UNL     1     -41.193  59.176 -54.424  1.00  0.00    -0.268 OA
HETATM    4  H   UNL     1     -41.800  57.453 -51.810  1.00  0.00     0.163 HD
ENDROOT
BRANCH   2   5
HETATM    5  C   UNL     1     -41.546  56.852 -54.333  1.00  0.00     0.032 A 
HETATM    6  C   UNL     1     -41.000  55.757 -53.648  1.00  0.00     0.029 A 
HETATM    7  C   UNL     1     -41.104  54.460 -54.170  1.00  0.00    -0.023 A 
HETATM    8  C   UNL     1     -41.770  54.278 -55.390  1.00  0.00     0.012 A 
HETATM    9  C   UNL     1     -42.328  55.364 -56.069  1.00  0.00     0.002 A 
HETATM   10  C   UNL     1     -42.220  56.652 -55.542  1.00  0.00     0.017 A 
BRANCH   7  11
HETATM   11  C   UNL     1     -40.519  53.338 -53.453  1.00  0.00    -0.002 A 
HETATM   12  C   UNL     1     -40.330  53.294 -52.085  1.00  0.00     0.153 A 
HETATM   13  O   UNL     1     -39.753  52.121 -51.713  1.00  0.00    -0.334 OA
HETATM   14  C   UNL     1     -39.557  51.403 -52.847  1.00  0.00     0.142 A 
HETATM   15  C   UNL     1     -40.005  52.104 -53.942  1.00  0.00     0.038 A 
ENDBRANCH   7  11
ENDBRANCH   2   5
BRANCH   1  16
HETATM   16  C   UNL     1     -41.436  59.532 -51.652  1.00  0.00     0.161 C 
BRANCH  16  17
HETATM   17  C   UNL     1     -42.739  59.961 -51.032  1.00  0.00    -0.037 A 
HETATM   18  C   UNL     1     -43.914  59.228 -51.240  1.00  0.00     0.054 A 
HETATM   19  C   UNL     1     -45.110  59.621 -50.637  1.00  0.00     0.150 A 
HETATM   20  C   UNL     1     -45.167  60.748 -49.815  1.00  0.00     0.106 A 
HETATM   21  F   UNL     1     -46.197  58.874 -50.880  1.00  0.00    -0.203 F 
HETATM   22  C   UNL     1     -43.997  61.487 -49.615  1.00  0.00     0.040 A 
HETATM   23  C   UNL     1     -42.794  61.096 -50.212  1.00  0.00     0.012 A 
BRANCH  20  24
HETATM   24  O   UNL     1     -46.260  61.244 -49.159  1.00  0.00    -0.353 OA
HETATM   25  C   UNL     1     -46.515  62.637 -49.289  1.00  0.00     0.210 C 
ENDBRANCH  20  24
ENDBRANCH  16  17
ENDBRANCH   1  16
TORSDOF 5
ENDMDL
