MODEL 1
REMARK VINA RESULT:      -9.4      0.000      0.000
REMARK  4 active torsions:
REMARK  status: ('A' for Active; 'I' for Inactive)
REMARK    1  A    between atoms: C_3  and  C_4 
REMARK    2  A    between atoms: C_15  and  C_16 
REMARK       I    between atoms: C_16  and  N_17 
REMARK    3  A    between atoms: N_17  and  C_18 
REMARK    4  A    between atoms: C_18  and  C_19 
ROOT
HETATM    1  C   UNL     1     -42.943  55.794 -58.045  1.00  0.00     0.055 C 
HETATM    2  C   UNL     1     -43.227  56.555 -56.785  1.00  0.00     0.024 A 
HETATM    3  C   UNL     1     -42.799  56.263 -55.543  1.00  0.00     0.096 A 
HETATM    4  O   UNL     1     -43.030  57.035 -54.420  1.00  0.00    -0.307 OA
HETATM    5  C   UNL     1     -43.832  58.142 -54.512  1.00  0.00     0.106 A 
HETATM    6  C   UNL     1     -44.391  58.531 -55.730  1.00  0.00     0.050 A 
HETATM    7  C   UNL     1     -44.074  57.763 -56.945  1.00  0.00     0.193 A 
HETATM    8  O   UNL     1     -44.506  58.107 -58.039  1.00  0.00    -0.287 OA
HETATM    9  C   UNL     1     -44.087  58.903 -53.359  1.00  0.00     0.066 A 
HETATM   10  C   UNL     1     -44.936  60.023 -53.455  1.00  0.00     0.020 A 
HETATM   11  C   UNL     1     -45.510  60.388 -54.673  1.00  0.00     0.002 A 
HETATM   12  C   UNL     1     -45.230  59.647 -55.815  1.00  0.00     0.018 A 
ENDROOT
BRANCH   9  13
HETATM   13  C   UNL     1     -43.470  58.647 -52.018  1.00  0.00     0.255 C 
HETATM   14  N   UNL     1     -42.416  57.768 -51.946  1.00  0.00    -0.349 N 
HETATM   15  H   UNL     1     -42.067  57.331 -52.791  1.00  0.00     0.163 HD
HETATM   16  O   UNL     1     -43.911  59.227 -51.030  1.00  0.00    -0.268 OA
BRANCH  14  17
HETATM   17  C   UNL     1     -41.640  57.594 -50.731  1.00  0.00     0.114 C 
HETATM   18  C   UNL     1     -40.374  58.453 -50.785  1.00  0.00     0.037 C 
BRANCH  17  19
HETATM   19  C   UNL     1     -41.376  56.119 -50.509  1.00  0.00    -0.033 A 
HETATM   20  C   UNL     1     -41.385  55.179 -51.544  1.00  0.00     0.028 A 
HETATM   21  C   UNL     1     -41.149  53.846 -51.239  1.00  0.00     0.116 A 
HETATM   22  N   UNL     1     -40.920  53.387 -49.991  1.00  0.00    -0.273 NA
HETATM   23  C   UNL     1     -40.934  54.303 -49.000  1.00  0.00     0.116 A 
HETATM   24  C   UNL     1     -41.158  55.655 -49.204  1.00  0.00     0.028 A 
ENDBRANCH  17  19
ENDBRANCH  14  17
ENDBRANCH   9  13
BRANCH   3  25
HETATM   25  C   UNL     1     -42.023  55.054 -55.230  1.00  0.00    -0.002 A 
HETATM   26  C   UNL     1     -40.625  55.092 -55.212  1.00  0.00     0.014 A 
HETATM   27  C   UNL     1     -39.896  53.945 -54.896  1.00  0.00     0.001 A 
HETATM   28  C   UNL     1     -40.556  52.756 -54.590  1.00  0.00     0.000 A 
HETATM   29  C   UNL     1     -41.949  52.712 -54.595  1.00  0.00     0.001 A 
HETATM   30  C   UNL     1     -42.681  53.857 -54.910  1.00  0.00     0.014 A 
ENDBRANCH   3  25
TORSDOF 4
ENDMDL
MODEL 2
REMARK VINA RESULT:      -9.4      2.932      6.738
REMARK  4 active torsions:
REMARK  status: ('A' for Active; 'I' for Inactive)
REMARK    1  A    between atoms: C_3  and  C_4 
REMARK    2  A    between atoms: C_15  and  C_16 
REMARK       I    between atoms: C_16  and  N_17 
REMARK    3  A    between atoms: N_17  and  C_18 
REMARK    4  A    between atoms: C_18  and  C_19 
ROOT
HETATM    1  C   UNL     1     -40.624  54.785 -50.309  1.00  0.00     0.055 C 
HETATM    2  C   UNL     1     -41.020  55.369 -51.632  1.00  0.00     0.024 A 
HETATM    3  C   UNL     1     -41.053  54.742 -52.822  1.00  0.00     0.096 A 
HETATM    4  O   UNL     1     -41.492  55.304 -54.005  1.00  0.00    -0.307 OA
HETATM    5  C   UNL     1     -41.841  56.629 -54.038  1.00  0.00     0.106 A 
HETATM    6  C   UNL     1     -41.799  57.416 -52.887  1.00  0.00     0.050 A 
HETATM    7  C   UNL     1     -41.418  56.798 -51.606  1.00  0.00     0.193 A 
HETATM    8  O   UNL     1     -41.420  57.448 -50.567  1.00  0.00    -0.287 OA
HETATM    9  C   UNL     1     -42.255  57.200 -55.253  1.00  0.00     0.066 A 
HETATM   10  C   UNL     1     -42.584  58.569 -55.285  1.00  0.00     0.020 A 
HETATM   11  C   UNL     1     -42.515  59.353 -54.133  1.00  0.00     0.002 A 
HETATM   12  C   UNL     1     -42.130  58.775 -52.929  1.00  0.00     0.018 A 
ENDROOT
BRANCH   9  13
HETATM   13  C   UNL     1     -42.435  56.441 -56.531  1.00  0.00     0.255 C 
HETATM   14  N   UNL     1     -42.614  57.156 -57.691  1.00  0.00    -0.349 N 
HETATM   15  H   UNL     1     -42.601  58.168 -57.664  1.00  0.00     0.163 HD
HETATM   16  O   UNL     1     -42.412  55.213 -56.513  1.00  0.00    -0.268 OA
BRANCH  14  17
HETATM   17  C   UNL     1     -42.617  56.519 -58.996  1.00  0.00     0.114 C 
HETATM   18  C   UNL     1     -41.732  57.306 -59.968  1.00  0.00     0.037 C 
BRANCH  17  19
HETATM   19  C   UNL     1     -44.045  56.341 -59.468  1.00  0.00    -0.033 A 
HETATM   20  C   UNL     1     -44.422  55.378 -60.409  1.00  0.00     0.028 A 
HETATM   21  C   UNL     1     -45.753  55.302 -60.792  1.00  0.00     0.116 A 
HETATM   22  N   UNL     1     -46.721  56.116 -60.321  1.00  0.00    -0.273 NA
HETATM   23  C   UNL     1     -46.339  57.054 -59.429  1.00  0.00     0.116 A 
HETATM   24  C   UNL     1     -45.035  57.206 -58.983  1.00  0.00     0.028 A 
ENDBRANCH  17  19
ENDBRANCH  14  17
ENDBRANCH   9  13
BRANCH   3  25
HETATM   25  C   UNL     1     -40.606  53.353 -53.005  1.00  0.00    -0.002 A 
HETATM   26  C   UNL     1     -40.903  52.661 -54.184  1.00  0.00     0.014 A 
HETATM   27  C   UNL     1     -40.461  51.349 -54.358  1.00  0.00     0.001 A 
HETATM   28  C   UNL     1     -39.714  50.722 -53.361  1.00  0.00     0.000 A 
HETATM   29  C   UNL     1     -39.406  51.408 -52.188  1.00  0.00     0.001 A 
HETATM   30  C   UNL     1     -39.846  52.719 -52.011  1.00  0.00     0.014 A 
ENDBRANCH   3  25
TORSDOF 4
ENDMDL
MODEL 3
REMARK VINA RESULT:      -9.3      2.798      5.749
REMARK  4 active torsions:
REMARK  status: ('A' for Active; 'I' for Inactive)
REMARK    1  A    between atoms: C_3  and  C_4 
REMARK    2  A    between atoms: C_15  and  C_16 
REMARK       I    between atoms: C_16  and  N_17 
REMARK    3  A    between atoms: N_17  and  C_18 
REMARK    4  A    between atoms: C_18  and  C_19 
ROOT
HETATM    1  C   UNL     1     -43.535  53.923 -51.038  1.00  0.00     0.055 C 
HETATM    2  C   UNL     1     -43.337  55.262 -51.682  1.00  0.00     0.024 A 
HETATM    3  C   UNL     1     -42.522  55.558 -52.712  1.00  0.00     0.096 A 
HETATM    4  O   UNL     1     -42.425  56.795 -53.319  1.00  0.00    -0.307 OA
HETATM    5  C   UNL     1     -43.121  57.859 -52.805  1.00  0.00     0.106 A 
HETATM    6  C   UNL     1     -43.962  57.708 -51.702  1.00  0.00     0.050 A 
HETATM    7  C   UNL     1     -44.137  56.372 -51.109  1.00  0.00     0.193 A 
HETATM    8  O   UNL     1     -44.907  56.194 -50.172  1.00  0.00    -0.287 OA
HETATM    9  C   UNL     1     -42.991  59.120 -53.410  1.00  0.00     0.066 A 
HETATM   10  C   UNL     1     -43.687  60.215 -52.859  1.00  0.00     0.020 A 
HETATM   11  C   UNL     1     -44.505  60.058 -51.740  1.00  0.00     0.002 A 
HETATM   12  C   UNL     1     -44.651  58.800 -51.165  1.00  0.00     0.018 A 
ENDROOT
BRANCH   9  13
HETATM   13  C   UNL     1     -42.201  59.390 -54.653  1.00  0.00     0.255 C 
HETATM   14  N   UNL     1     -42.725  58.985 -55.857  1.00  0.00    -0.349 N 
HETATM   15  H   UNL     1     -43.633  58.536 -55.883  1.00  0.00     0.163 HD
HETATM   16  O   UNL     1     -41.120  59.966 -54.568  1.00  0.00    -0.268 OA
BRANCH  14  17
HETATM   17  C   UNL     1     -42.125  59.359 -57.124  1.00  0.00     0.114 C 
HETATM   18  C   UNL     1     -42.680  60.707 -57.594  1.00  0.00     0.037 C 
BRANCH  17  19
HETATM   19  C   UNL     1     -42.309  58.235 -58.121  1.00  0.00    -0.033 A 
HETATM   20  C   UNL     1     -42.816  56.980 -57.769  1.00  0.00     0.028 A 
HETATM   21  C   UNL     1     -42.932  56.006 -58.751  1.00  0.00     0.116 A 
HETATM   22  N   UNL     1     -42.573  56.187 -60.038  1.00  0.00    -0.273 NA
HETATM   23  C   UNL     1     -42.067  57.396 -60.360  1.00  0.00     0.116 A 
HETATM   24  C   UNL     1     -41.914  58.432 -59.451  1.00  0.00     0.028 A 
ENDBRANCH  17  19
ENDBRANCH  14  17
ENDBRANCH   9  13
BRANCH   3  25
HETATM   25  C   UNL     1     -41.614  54.574 -53.320  1.00  0.00    -0.002 A 
HETATM   26  C   UNL     1     -41.092  53.524 -52.557  1.00  0.00     0.014 A 
HETATM   27  C   UNL     1     -40.244  52.584 -53.144  1.00  0.00     0.001 A 
HETATM   28  C   UNL     1     -39.919  52.680 -54.496  1.00  0.00     0.000 A 
HETATM   29  C   UNL     1     -40.443  53.717 -55.266  1.00  0.00     0.001 A 
HETATM   30  C   UNL     1     -41.291  54.659 -54.681  1.00  0.00     0.014 A 
ENDBRANCH   3  25
TORSDOF 4
ENDMDL
MODEL 4
REMARK VINA RESULT:      -9.2      2.508      7.350
REMARK  4 active torsions:
REMARK  status: ('A' for Active; 'I' for Inactive)
REMARK    1  A    between atoms: C_3  and  C_4 
REMARK    2  A    between atoms: C_15  and  C_16 
REMARK       I    between atoms: C_16  and  N_17 
REMARK    3  A    between atoms: N_17  and  C_18 
REMARK    4  A    between atoms: C_18  and  C_19 
ROOT
HETATM    1  C   UNL     1     -41.038  56.041 -49.418  1.00  0.00     0.055 C 
HETATM    2  C   UNL     1     -41.315  55.505 -50.791  1.00  0.00     0.024 A 
HETATM    3  C   UNL     1     -42.134  56.030 -51.720  1.00  0.00     0.096 A 
HETATM    4  O   UNL     1     -42.305  55.538 -53.000  1.00  0.00    -0.307 OA
HETATM    5  C   UNL     1     -41.685  54.372 -53.366  1.00  0.00     0.106 A 
HETATM    6  C   UNL     1     -40.849  53.689 -52.481  1.00  0.00     0.050 A 
HETATM    7  C   UNL     1     -40.595  54.258 -51.148  1.00  0.00     0.193 A 
HETATM    8  O   UNL     1     -39.826  53.711 -50.365  1.00  0.00    -0.287 OA
HETATM    9  C   UNL     1     -41.890  53.862 -54.659  1.00  0.00     0.066 A 
HETATM   10  C   UNL     1     -41.272  52.648 -55.018  1.00  0.00     0.020 A 
HETATM   11  C   UNL     1     -40.459  51.959 -54.117  1.00  0.00     0.002 A 
HETATM   12  C   UNL     1     -40.239  52.485 -52.849  1.00  0.00     0.018 A 
ENDROOT
BRANCH   9  13
HETATM   13  C   UNL     1     -42.681  54.549 -55.728  1.00  0.00     0.255 C 
HETATM   14  N   UNL     1     -42.329  55.832 -56.073  1.00  0.00    -0.349 N 
HETATM   15  H   UNL     1     -41.540  56.276 -55.618  1.00  0.00     0.163 HD
HETATM   16  O   UNL     1     -43.609  53.954 -56.269  1.00  0.00    -0.268 OA
BRANCH  14  17
HETATM   17  C   UNL     1     -42.915  56.512 -57.215  1.00  0.00     0.114 C 
HETATM   18  C   UNL     1     -42.548  55.780 -58.509  1.00  0.00     0.037 C 
BRANCH  17  19
HETATM   19  C   UNL     1     -42.511  57.971 -57.194  1.00  0.00    -0.033 A 
HETATM   20  C   UNL     1     -42.104  58.665 -58.338  1.00  0.00     0.028 A 
HETATM   21  C   UNL     1     -41.736  59.997 -58.217  1.00  0.00     0.116 A 
HETATM   22  N   UNL     1     -41.732  60.675 -57.051  1.00  0.00    -0.273 NA
HETATM   23  C   UNL     1     -42.109  59.988 -55.952  1.00  0.00     0.116 A 
HETATM   24  C   UNL     1     -42.495  58.657 -55.972  1.00  0.00     0.028 A 
ENDBRANCH  17  19
ENDBRANCH  14  17
ENDBRANCH   9  13
BRANCH   3  25
HETATM   25  C   UNL     1     -42.970  57.214 -51.470  1.00  0.00    -0.002 A 
HETATM   26  C   UNL     1     -42.427  58.500 -51.570  1.00  0.00     0.014 A 
HETATM   27  C   UNL     1     -43.230  59.620 -51.348  1.00  0.00     0.001 A 
HETATM   28  C   UNL     1     -44.579  59.464 -51.034  1.00  0.00     0.000 A 
HETATM   29  C   UNL     1     -45.130  58.187 -50.943  1.00  0.00     0.001 A 
HETATM   30  C   UNL     1     -44.330  57.066 -51.164  1.00  0.00     0.014 A 
ENDBRANCH   3  25
TORSDOF 4
ENDMDL
MODEL 5
REMARK VINA RESULT:      -8.9      2.466      6.331
REMARK  4 active torsions:
REMARK  status: ('A' for Active; 'I' for Inactive)
REMARK    1  A    between atoms: C_3  and  C_4 
REMARK    2  A    between atoms: C_15  and  C_16 
REMARK       I    between atoms: C_16  and  N_17 
REMARK    3  A    between atoms: N_17  and  C_18 
REMARK    4  A    between atoms: C_18  and  C_19 
ROOT
HETATM    1  C   UNL     1     -40.039  54.134 -49.815  1.00  0.00     0.055 C 
HETATM    2  C   UNL     1     -40.817  54.997 -50.763  1.00  0.00     0.024 A 
HETATM    3  C   UNL     1     -41.217  54.683 -52.009  1.00  0.00     0.096 A 
HETATM    4  O   UNL     1     -41.993  55.487 -52.821  1.00  0.00    -0.307 OA
HETATM    5  C   UNL     1     -42.326  56.750 -52.406  1.00  0.00     0.106 A 
HETATM    6  C   UNL     1     -41.929  57.229 -51.157  1.00  0.00     0.050 A 
HETATM    7  C   UNL     1     -41.179  56.342 -50.253  1.00  0.00     0.193 A 
HETATM    8  O   UNL     1     -40.859  56.713 -49.129  1.00  0.00    -0.287 OA
HETATM    9  C   UNL     1     -43.089  57.572 -53.252  1.00  0.00     0.066 A 
HETATM   10  C   UNL     1     -43.404  58.879 -52.831  1.00  0.00     0.020 A 
HETATM   11  C   UNL     1     -42.980  59.357 -51.590  1.00  0.00     0.002 A 
HETATM   12  C   UNL     1     -42.249  58.527 -50.747  1.00  0.00     0.018 A 
ENDROOT
BRANCH   9  13
HETATM   13  C   UNL     1     -43.657  57.142 -54.569  1.00  0.00     0.255 C 
HETATM   14  N   UNL     1     -42.818  57.107 -55.658  1.00  0.00    -0.349 N 
HETATM   15  H   UNL     1     -41.841  57.350 -55.546  1.00  0.00     0.163 HD
HETATM   16  O   UNL     1     -44.842  56.828 -54.643  1.00  0.00    -0.268 OA
BRANCH  14  17
HETATM   17  C   UNL     1     -43.227  56.535 -56.928  1.00  0.00     0.114 C 
HETATM   18  C   UNL     1     -42.728  55.092 -57.043  1.00  0.00     0.037 C 
BRANCH  17  19
HETATM   19  C   UNL     1     -42.773  57.437 -58.057  1.00  0.00    -0.033 A 
HETATM   20  C   UNL     1     -42.576  56.981 -59.364  1.00  0.00     0.028 A 
HETATM   21  C   UNL     1     -42.140  57.880 -60.327  1.00  0.00     0.116 A 
HETATM   22  N   UNL     1     -41.879  59.181 -60.081  1.00  0.00    -0.273 NA
HETATM   23  C   UNL     1     -42.055  59.602 -58.811  1.00  0.00     0.116 A 
HETATM   24  C   UNL     1     -42.488  58.781 -57.782  1.00  0.00     0.028 A 
ENDBRANCH  17  19
ENDBRANCH  14  17
ENDBRANCH   9  13
BRANCH   3  25
HETATM   25  C   UNL     1     -40.856  53.419 -52.668  1.00  0.00    -0.002 A 
HETATM   26  C   UNL     1     -41.397  53.090 -53.916  1.00  0.00     0.014 A 
HETATM   27  C   UNL     1     -41.037  51.897 -54.544  1.00  0.00     0.001 A 
HETATM   28  C   UNL     1     -40.131  51.029 -53.936  1.00  0.00     0.000 A 
HETATM   29  C   UNL     1     -39.580  51.355 -52.698  1.00  0.00     0.001 A 
HETATM   30  C   UNL     1     -39.938  52.547 -52.068  1.00  0.00     0.014 A 
ENDBRANCH   3  25
TORSDOF 4
ENDMDL
MODEL 6
REMARK VINA RESULT:      -8.9      2.223      4.958
REMARK  4 active torsions:
REMARK  status: ('A' for Active; 'I' for Inactive)
REMARK    1  A    between atoms: C_3  and  C_4 
REMARK    2  A    between atoms: C_15  and  C_16 
REMARK       I    between atoms: C_16  and  N_17 
REMARK    3  A    between atoms: N_17  and  C_18 
REMARK    4  A    between atoms: C_18  and  C_19 
ROOT
HETATM    1  C   UNL     1     -42.459  61.465 -55.762  1.00  0.00     0.055 C 
HETATM    2  C   UNL     1     -42.535  59.974 -55.909  1.00  0.00     0.024 A 
HETATM    3  C   UNL     1     -42.457  59.055 -54.929  1.00  0.00     0.096 A 
HETATM    4  O   UNL     1     -42.603  57.692 -55.104  1.00  0.00    -0.307 OA
HETATM    5  C   UNL     1     -42.744  57.182 -56.369  1.00  0.00     0.106 A 
HETATM    6  C   UNL     1     -42.784  58.019 -57.486  1.00  0.00     0.050 A 
HETATM    7  C   UNL     1     -42.719  59.477 -57.294  1.00  0.00     0.193 A 
HETATM    8  O   UNL     1     -42.804  60.242 -58.248  1.00  0.00    -0.287 OA
HETATM    9  C   UNL     1     -42.859  55.793 -56.540  1.00  0.00     0.066 A 
HETATM   10  C   UNL     1     -42.975  55.274 -57.845  1.00  0.00     0.020 A 
HETATM   11  C   UNL     1     -42.988  56.118 -58.956  1.00  0.00     0.002 A 
HETATM   12  C   UNL     1     -42.902  57.494 -58.777  1.00  0.00     0.018 A 
ENDROOT
BRANCH   9  13
HETATM   13  C   UNL     1     -42.928  54.801 -55.420  1.00  0.00     0.255 C 
HETATM   14  N   UNL     1     -42.100  54.984 -54.339  1.00  0.00    -0.349 N 
HETATM   15  H   UNL     1     -41.480  55.785 -54.311  1.00  0.00     0.163 HD
HETATM   16  O   UNL     1     -43.719  53.865 -55.491  1.00  0.00    -0.268 OA
BRANCH  14  17
HETATM   17  C   UNL     1     -42.220  54.185 -53.132  1.00  0.00     0.114 C 
HETATM   18  C   UNL     1     -42.165  55.087 -51.895  1.00  0.00     0.037 C 
BRANCH  17  19
HETATM   19  C   UNL     1     -41.173  53.091 -53.145  1.00  0.00    -0.033 A 
HETATM   20  C   UNL     1     -40.935  52.278 -54.258  1.00  0.00     0.028 A 
HETATM   21  C   UNL     1     -39.966  51.289 -54.167  1.00  0.00     0.116 A 
HETATM   22  N   UNL     1     -39.236  51.047 -53.059  1.00  0.00    -0.273 NA
HETATM   23  C   UNL     1     -39.490  51.826 -51.987  1.00  0.00     0.116 A 
HETATM   24  C   UNL     1     -40.436  52.840 -51.980  1.00  0.00     0.028 A 
ENDBRANCH  17  19
ENDBRANCH  14  17
ENDBRANCH   9  13
BRANCH   3  25
HETATM   25  C   UNL     1     -42.193  59.404 -53.525  1.00  0.00    -0.002 A 
HETATM   26  C   UNL     1     -43.161  60.070 -52.766  1.00  0.00     0.014 A 
HETATM   27  C   UNL     1     -42.911  60.384 -51.429  1.00  0.00     0.001 A 
HETATM   28  C   UNL     1     -41.698  60.027 -50.840  1.00  0.00     0.000 A 
HETATM   29  C   UNL     1     -40.733  59.353 -51.587  1.00  0.00     0.001 A 
HETATM   30  C   UNL     1     -40.981  59.039 -52.924  1.00  0.00     0.014 A 
ENDBRANCH   3  25
TORSDOF 4
ENDMDL
MODEL 7
REMARK VINA RESULT:      -8.8      2.757      6.208
REMARK  4 active torsions:
REMARK  status: ('A' for Active; 'I' for Inactive)
REMARK    1  A    between atoms: C_3  and  C_4 
REMARK    2  A    between atoms: C_15  and  C_16 
REMARK       I    between atoms: C_16  and  N_17 
REMARK    3  A    between atoms: N_17  and  C_18 
REMARK    4  A    between atoms: C_18  and  C_19 
ROOT
HETATM    1  C   UNL     1     -44.003  55.407 -50.511  1.00  0.00     0.055 C 
HETATM    2  C   UNL     1     -43.961  56.358 -51.670  1.00  0.00     0.024 A 
HETATM    3  C   UNL     1     -43.278  56.209 -52.821  1.00  0.00     0.096 A 
HETATM    4  O   UNL     1     -43.325  57.081 -53.891  1.00  0.00    -0.307 OA
HETATM    5  C   UNL     1     -44.032  58.251 -53.782  1.00  0.00     0.106 A 
HETATM    6  C   UNL     1     -44.741  58.562 -52.621  1.00  0.00     0.050 A 
HETATM    7  C   UNL     1     -44.767  57.593 -51.514  1.00  0.00     0.193 A 
HETATM    8  O   UNL     1     -45.422  57.811 -50.501  1.00  0.00    -0.287 OA
HETATM    9  C   UNL     1     -44.047  59.147 -54.864  1.00  0.00     0.066 A 
HETATM   10  C   UNL     1     -44.751  60.360 -54.735  1.00  0.00     0.020 A 
HETATM   11  C   UNL     1     -45.437  60.672 -53.560  1.00  0.00     0.002 A 
HETATM   12  C   UNL     1     -45.440  59.768 -52.504  1.00  0.00     0.018 A 
ENDROOT
BRANCH   9  13
HETATM   13  C   UNL     1     -43.409  58.885 -56.194  1.00  0.00     0.255 C 
HETATM   14  N   UNL     1     -44.185  58.343 -57.190  1.00  0.00    -0.349 N 
HETATM   15  H   UNL     1     -45.165  58.152 -57.016  1.00  0.00     0.163 HD
HETATM   16  O   UNL     1     -42.225  59.164 -56.361  1.00  0.00    -0.268 OA
BRANCH  14  17
HETATM   17  C   UNL     1     -43.710  58.222 -58.557  1.00  0.00     0.114 C 
HETATM   18  C   UNL     1     -43.973  59.521 -59.324  1.00  0.00     0.037 C 
BRANCH  17  19
HETATM   19  C   UNL     1     -44.322  56.993 -59.196  1.00  0.00    -0.033 A 
HETATM   20  C   UNL     1     -45.596  56.988 -59.773  1.00  0.00     0.028 A 
HETATM   21  C   UNL     1     -46.078  55.807 -60.319  1.00  0.00     0.116 A 
HETATM   22  N   UNL     1     -45.397  54.643 -60.320  1.00  0.00    -0.273 NA
HETATM   23  C   UNL     1     -44.177  54.658 -59.743  1.00  0.00     0.116 A 
HETATM   24  C   UNL     1     -43.609  55.786 -59.173  1.00  0.00     0.028 A 
ENDBRANCH  17  19
ENDBRANCH  14  17
ENDBRANCH   9  13
BRANCH   3  25
HETATM   25  C   UNL     1     -42.377  55.075 -53.073  1.00  0.00    -0.002 A 
HETATM   26  C   UNL     1     -42.579  54.240 -54.177  1.00  0.00     0.014 A 
HETATM   27  C   UNL     1     -41.709  53.176 -54.420  1.00  0.00     0.001 A 
HETATM   28  C   UNL     1     -40.628  52.945 -53.570  1.00  0.00     0.000 A 
HETATM   29  C   UNL     1     -40.413  53.779 -52.475  1.00  0.00     0.001 A 
HETATM   30  C   UNL     1     -41.282  54.843 -52.229  1.00  0.00     0.014 A 
ENDBRANCH   3  25
TORSDOF 4
ENDMDL
MODEL 8
REMARK VINA RESULT:      -8.8      2.975      6.102
REMARK  4 active torsions:
REMARK  status: ('A' for Active; 'I' for Inactive)
REMARK    1  A    between atoms: C_3  and  C_4 
REMARK    2  A    between atoms: C_15  and  C_16 
REMARK       I    between atoms: C_16  and  N_17 
REMARK    3  A    between atoms: N_17  and  C_18 
REMARK    4  A    between atoms: C_18  and  C_19 
ROOT
HETATM    1  C   UNL     1     -43.915  56.153 -50.948  1.00  0.00     0.055 C 
HETATM    2  C   UNL     1     -44.267  57.222 -51.939  1.00  0.00     0.024 A 
HETATM    3  C   UNL     1     -43.924  57.272 -53.240  1.00  0.00     0.096 A 
HETATM    4  O   UNL     1     -44.331  58.245 -54.133  1.00  0.00    -0.307 OA
HETATM    5  C   UNL     1     -45.062  59.314 -53.684  1.00  0.00     0.106 A 
HETATM    6  C   UNL     1     -45.440  59.421 -52.345  1.00  0.00     0.050 A 
HETATM    7  C   UNL     1     -45.085  58.341 -51.410  1.00  0.00     0.193 A 
HETATM    8  O   UNL     1     -45.445  58.378 -50.238  1.00  0.00    -0.287 OA
HETATM    9  C   UNL     1     -45.443  60.315 -54.593  1.00  0.00     0.066 A 
HETATM   10  C   UNL     1     -46.170  61.425 -54.119  1.00  0.00     0.020 A 
HETATM   11  C   UNL     1     -46.520  61.534 -52.773  1.00  0.00     0.002 A 
HETATM   12  C   UNL     1     -46.163  60.526 -51.885  1.00  0.00     0.018 A 
ENDROOT
BRANCH   9  13
HETATM   13  C   UNL     1     -45.186  60.267 -56.067  1.00  0.00     0.255 C 
HETATM   14  N   UNL     1     -45.513  59.118 -56.747  1.00  0.00    -0.349 N 
HETATM   15  H   UNL     1     -45.936  58.344 -56.250  1.00  0.00     0.163 HD
HETATM   16  O   UNL     1     -44.700  61.246 -56.627  1.00  0.00    -0.268 OA
BRANCH  14  17
HETATM   17  C   UNL     1     -45.470  59.041 -58.197  1.00  0.00     0.114 C 
HETATM   18  C   UNL     1     -46.891  59.014 -58.766  1.00  0.00     0.037 C 
BRANCH  17  19
HETATM   19  C   UNL     1     -44.615  57.863 -58.613  1.00  0.00    -0.033 A 
HETATM   20  C   UNL     1     -43.837  57.129 -57.712  1.00  0.00     0.028 A 
HETATM   21  C   UNL     1     -43.072  56.076 -58.192  1.00  0.00     0.116 A 
HETATM   22  N   UNL     1     -43.018  55.714 -59.490  1.00  0.00    -0.273 NA
HETATM   23  C   UNL     1     -43.758  56.443 -60.352  1.00  0.00     0.116 A 
HETATM   24  C   UNL     1     -44.555  57.510 -59.968  1.00  0.00     0.028 A 
ENDBRANCH  17  19
ENDBRANCH  14  17
ENDBRANCH   9  13
BRANCH   3  25
HETATM   25  C   UNL     1     -43.049  56.274 -53.874  1.00  0.00    -0.002 A 
HETATM   26  C   UNL     1     -41.664  56.463 -53.904  1.00  0.00     0.014 A 
HETATM   27  C   UNL     1     -40.837  55.504 -54.491  1.00  0.00     0.001 A 
HETATM   28  C   UNL     1     -41.387  54.348 -55.044  1.00  0.00     0.000 A 
HETATM   29  C   UNL     1     -42.766  54.148 -55.009  1.00  0.00     0.001 A 
HETATM   30  C   UNL     1     -43.594  55.105 -54.422  1.00  0.00     0.014 A 
ENDBRANCH   3  25
TORSDOF 4
ENDMDL
MODEL 9
REMARK VINA RESULT:      -8.7      1.680      4.865
REMARK  4 active torsions:
REMARK  status: ('A' for Active; 'I' for Inactive)
REMARK    1  A    between atoms: C_3  and  C_4 
REMARK    2  A    between atoms: C_15  and  C_16 
REMARK       I    between atoms: C_16  and  N_17 
REMARK    3  A    between atoms: N_17  and  C_18 
REMARK    4  A    between atoms: C_18  and  C_19 
ROOT
HETATM    1  C   UNL     1     -45.539  60.895 -55.358  1.00  0.00     0.055 C 
HETATM    2  C   UNL     1     -44.845  59.609 -55.696  1.00  0.00     0.024 A 
HETATM    3  C   UNL     1     -44.095  58.850 -54.876  1.00  0.00     0.096 A 
HETATM    4  O   UNL     1     -43.531  57.634 -55.213  1.00  0.00    -0.307 OA
HETATM    5  C   UNL     1     -43.638  57.170 -56.499  1.00  0.00     0.106 A 
HETATM    6  C   UNL     1     -44.341  57.885 -57.469  1.00  0.00     0.050 A 
HETATM    7  C   UNL     1     -45.018  59.137 -57.091  1.00  0.00     0.193 A 
HETATM    8  O   UNL     1     -45.686  59.763 -57.905  1.00  0.00    -0.287 OA
HETATM    9  C   UNL     1     -43.035  55.949 -56.840  1.00  0.00     0.066 A 
HETATM   10  C   UNL     1     -43.124  55.492 -58.170  1.00  0.00     0.020 A 
HETATM   11  C   UNL     1     -43.808  56.228 -59.139  1.00  0.00     0.002 A 
HETATM   12  C   UNL     1     -44.426  57.422 -58.787  1.00  0.00     0.018 A 
ENDROOT
BRANCH   9  13
HETATM   13  C   UNL     1     -42.339  55.044 -55.870  1.00  0.00     0.255 C 
HETATM   14  N   UNL     1     -41.101  55.419 -55.405  1.00  0.00    -0.349 N 
HETATM   15  H   UNL     1     -40.697  56.297 -55.707  1.00  0.00     0.163 HD
HETATM   16  O   UNL     1     -42.888  54.005 -55.514  1.00  0.00    -0.268 OA
BRANCH  14  17
HETATM   17  C   UNL     1     -40.432  54.704 -54.333  1.00  0.00     0.114 C 
HETATM   18  C   UNL     1     -40.313  53.218 -54.683  1.00  0.00     0.037 C 
BRANCH  17  19
HETATM   19  C   UNL     1     -41.145  54.974 -53.025  1.00  0.00    -0.033 A 
HETATM   20  C   UNL     1     -41.418  56.264 -52.558  1.00  0.00     0.028 A 
HETATM   21  C   UNL     1     -42.061  56.411 -51.337  1.00  0.00     0.116 A 
HETATM   22  N   UNL     1     -42.436  55.380 -50.553  1.00  0.00    -0.273 NA
HETATM   23  C   UNL     1     -42.148  54.142 -51.007  1.00  0.00     0.116 A 
HETATM   24  C   UNL     1     -41.511  53.893 -52.213  1.00  0.00     0.028 A 
ENDBRANCH  17  19
ENDBRANCH  14  17
ENDBRANCH   9  13
BRANCH   3  25
HETATM   25  C   UNL     1     -43.774  59.241 -53.496  1.00  0.00    -0.002 A 
HETATM   26  C   UNL     1     -42.581  59.913 -53.208  1.00  0.00     0.014 A 
HETATM   27  C   UNL     1     -42.291  60.297 -51.897  1.00  0.00     0.001 A 
HETATM   28  C   UNL     1     -43.192  60.021 -50.870  1.00  0.00     0.000 A 
HETATM   29  C   UNL     1     -44.387  59.362 -51.150  1.00  0.00     0.001 A 
HETATM   30  C   UNL     1     -44.680  58.977 -52.459  1.00  0.00     0.014 A 
ENDBRANCH   3  25
TORSDOF 4
ENDMDL
MODEL 10
REMARK VINA RESULT:      -8.7      2.938      7.740
REMARK  4 active torsions:
REMARK  status: ('A' for Active; 'I' for Inactive)
REMARK    1  A    between atoms: C_3  and  C_4 
REMARK    2  A    between atoms: C_15  and  C_16 
REMARK       I    between atoms: C_16  and  N_17 
REMARK    3  A    between atoms: N_17  and  C_18 
REMARK    4  A    between atoms: C_18  and  C_19 
ROOT
HETATM    1  C   UNL     1     -41.359  56.255 -49.536  1.00  0.00     0.055 C 
HETATM    2  C   UNL     1     -41.521  56.104 -51.019  1.00  0.00     0.024 A 
HETATM    3  C   UNL     1     -42.126  56.961 -51.864  1.00  0.00     0.096 A 
HETATM    4  O   UNL     1     -42.191  56.812 -53.236  1.00  0.00    -0.307 OA
HETATM    5  C   UNL     1     -41.698  55.673 -53.818  1.00  0.00     0.106 A 
HETATM    6  C   UNL     1     -41.094  54.673 -53.055  1.00  0.00     0.050 A 
HETATM    7  C   UNL     1     -40.944  54.869 -51.603  1.00  0.00     0.193 A 
HETATM    8  O   UNL     1     -40.372  54.035 -50.911  1.00  0.00    -0.287 OA
HETATM    9  C   UNL     1     -41.797  55.517 -55.211  1.00  0.00     0.066 A 
HETATM   10  C   UNL     1     -41.315  54.331 -55.799  1.00  0.00     0.020 A 
HETATM   11  C   UNL     1     -40.735  53.326 -55.023  1.00  0.00     0.002 A 
HETATM   12  C   UNL     1     -40.616  53.501 -53.649  1.00  0.00     0.018 A 
ENDROOT
BRANCH   9  13
HETATM   13  C   UNL     1     -42.332  56.555 -56.147  1.00  0.00     0.255 C 
HETATM   14  N   UNL     1     -43.477  56.268 -56.850  1.00  0.00    -0.349 N 
HETATM   15  H   UNL     1     -43.943  55.379 -56.709  1.00  0.00     0.163 HD
HETATM   16  O   UNL     1     -41.745  57.628 -56.258  1.00  0.00    -0.268 OA
BRANCH  14  17
HETATM   17  C   UNL     1     -44.169  57.270 -57.640  1.00  0.00     0.114 C 
HETATM   18  C   UNL     1     -45.173  58.029 -56.767  1.00  0.00     0.037 C 
BRANCH  17  19
HETATM   19  C   UNL     1     -44.784  56.616 -58.860  1.00  0.00    -0.033 A 
HETATM   20  C   UNL     1     -44.094  55.702 -59.663  1.00  0.00     0.028 A 
HETATM   21  C   UNL     1     -44.736  55.168 -60.771  1.00  0.00     0.116 A 
HETATM   22  N   UNL     1     -45.995  55.485 -61.138  1.00  0.00    -0.273 NA
HETATM   23  C   UNL     1     -46.641  56.383 -60.366  1.00  0.00     0.116 A 
HETATM   24  C   UNL     1     -46.086  56.969 -59.239  1.00  0.00     0.028 A 
ENDBRANCH  17  19
ENDBRANCH  14  17
ENDBRANCH   9  13
BRANCH   3  25
HETATM   25  C   UNL     1     -42.812  58.179 -51.409  1.00  0.00    -0.002 A 
HETATM   26  C   UNL     1     -42.078  59.320 -51.066  1.00  0.00     0.014 A 
HETATM   27  C   UNL     1     -42.737  60.479 -50.652  1.00  0.00     0.001 A 
HETATM   28  C   UNL     1     -44.129  60.509 -50.586  1.00  0.00     0.000 A 
HETATM   29  C   UNL     1     -44.867  59.380 -50.936  1.00  0.00     0.001 A 
HETATM   30  C   UNL     1     -44.212  58.220 -51.350  1.00  0.00     0.014 A 
ENDBRANCH   3  25
TORSDOF 4
ENDMDL
