MODEL 1
REMARK VINA RESULT:      -8.2      0.000      0.000
REMARK  5 active torsions:
REMARK  status: ('A' for Active; 'I' for Inactive)
REMARK    1  A    between atoms: C_8  and  C_9 
REMARK       I    between atoms: N_10  and  C_11 
REMARK       I    between atoms: C_11  and  N_12 
REMARK    2  A    between atoms: N_12  and  C_13 
REMARK    3  A    between atoms: C_15  and  O_16 
REMARK    4  A    between atoms: O_16  and  C_17 
REMARK    5  A    between atoms: C_17  and  C_18 
ROOT
HETATM    1  C   UNL     1     -43.966  56.826 -56.863  1.00  0.00     0.126 C 
HETATM    2  N   UNL     1     -43.120  56.515 -55.716  1.00  0.00    -0.325 N 
HETATM    3  C   UNL     1     -42.682  55.218 -55.488  1.00  0.00     0.323 C 
HETATM    4  N   UNL     1     -41.682  55.169 -54.537  1.00  0.00    -0.309 N 
HETATM    5  O   UNL     1     -43.114  54.258 -56.118  1.00  0.00    -0.247 OA
HETATM    6  C   UNL     1     -43.316  57.483 -54.643  1.00  0.00     0.128 C 
HETATM    7  C   UNL     1     -44.603  58.202 -55.014  1.00  0.00     0.022 C 
HETATM    8  C   UNL     1     -44.560  58.202 -56.535  1.00  0.00     0.032 C 
HETATM    9  H   UNL     1     -41.177  56.037 -54.438  1.00  0.00     0.170 HD
ENDROOT
BRANCH   4  10
HETATM   10  C   UNL     1     -41.043  54.015 -54.051  1.00  0.00     0.039 A 
HETATM   11  C   UNL     1     -40.907  53.887 -52.665  1.00  0.00     0.066 A 
HETATM   12  C   UNL     1     -40.248  52.789 -52.107  1.00  0.00     0.071 A 
HETATM   13  C   UNL     1     -39.791  51.767 -52.937  1.00  0.00     0.037 A 
HETATM   14  C   UNL     1     -39.948  51.875 -54.321  1.00  0.00     0.005 A 
HETATM   15  C   UNL     1     -40.561  53.000 -54.877  1.00  0.00     0.030 A 
BRANCH  12  16
HETATM   16  O   UNL     1     -40.117  52.828 -50.746  1.00  0.00    -0.347 OA
BRANCH  16  17
HETATM   17  C   UNL     1     -39.567  54.027 -50.196  1.00  0.00     0.208 C 
BRANCH  17  18
HETATM   18  C   UNL     1     -40.448  54.479 -49.055  1.00  0.00    -0.069 C 
HETATM   19  C   UNL     1     -41.348  55.651 -49.328  1.00  0.00     0.044 C 
HETATM   20  C   UNL     1     -40.438  53.865 -47.859  1.00  0.00     0.016 C 
ENDBRANCH  17  18
ENDBRANCH  16  17
ENDBRANCH  12  16
ENDBRANCH   4  10
BRANCH   1  21
HETATM   21  C   UNL     1     -43.190  56.845 -58.148  1.00  0.00     0.014 A 
HETATM   22  C   UNL     1     -42.208  57.759 -58.501  1.00  0.00     0.034 A 
HETATM   23  C   UNL     1     -41.656  58.935 -57.791  1.00  0.00     0.070 C 
HETATM   24  N   UNL     1     -41.777  57.396 -59.744  1.00  0.00    -0.282 N 
HETATM   25  H   UNL     1     -41.078  57.849 -60.323  1.00  0.00     0.189 HD
HETATM   26  N   UNL     1     -42.358  56.288 -60.214  1.00  0.00    -0.179 NA
HETATM   27  C   UNL     1     -43.238  55.952 -59.263  1.00  0.00     0.061 A 
HETATM   28  C   UNL     1     -44.098  54.758 -59.472  1.00  0.00     0.073 C 
ENDBRANCH   1  21
TORSDOF 5
ENDMDL
MODEL 2
REMARK VINA RESULT:      -8.1      2.402      4.195
REMARK  5 active torsions:
REMARK  status: ('A' for Active; 'I' for Inactive)
REMARK    1  A    between atoms: C_8  and  C_9 
REMARK       I    between atoms: N_10  and  C_11 
REMARK       I    between atoms: C_11  and  N_12 
REMARK    2  A    between atoms: N_12  and  C_13 
REMARK    3  A    between atoms: C_15  and  O_16 
REMARK    4  A    between atoms: O_16  and  C_17 
REMARK    5  A    between atoms: C_17  and  C_18 
ROOT
HETATM    1  C   UNL     1     -43.812  58.027 -58.621  1.00  0.00     0.126 C 
HETATM    2  N   UNL     1     -43.490  56.697 -58.115  1.00  0.00    -0.325 N 
HETATM    3  C   UNL     1     -43.110  56.514 -56.792  1.00  0.00     0.323 C 
HETATM    4  N   UNL     1     -43.121  55.182 -56.431  1.00  0.00    -0.309 N 
HETATM    5  O   UNL     1     -42.859  57.454 -56.045  1.00  0.00    -0.247 OA
HETATM    6  C   UNL     1     -43.050  55.819 -59.191  1.00  0.00     0.128 C 
HETATM    7  C   UNL     1     -42.743  56.760 -60.345  1.00  0.00     0.022 C 
HETATM    8  C   UNL     1     -43.760  57.874 -60.148  1.00  0.00     0.032 C 
HETATM    9  H   UNL     1     -43.727  54.614 -57.001  1.00  0.00     0.170 HD
ENDROOT
BRANCH   4  10
HETATM   10  C   UNL     1     -42.759  54.650 -55.180  1.00  0.00     0.039 A 
HETATM   11  C   UNL     1     -41.557  53.938 -55.104  1.00  0.00     0.066 A 
HETATM   12  C   UNL     1     -41.150  53.344 -53.906  1.00  0.00     0.071 A 
HETATM   13  C   UNL     1     -41.910  53.532 -52.753  1.00  0.00     0.037 A 
HETATM   14  C   UNL     1     -43.097  54.265 -52.816  1.00  0.00     0.005 A 
HETATM   15  C   UNL     1     -43.527  54.812 -54.027  1.00  0.00     0.030 A 
BRANCH  12  16
HETATM   16  O   UNL     1     -39.997  52.613 -53.991  1.00  0.00    -0.347 OA
BRANCH  16  17
HETATM   17  C   UNL     1     -39.664  51.821 -52.849  1.00  0.00     0.208 C 
BRANCH  17  18
HETATM   18  C   UNL     1     -39.697  50.365 -53.251  1.00  0.00    -0.069 C 
HETATM   19  C   UNL     1     -39.635  49.362 -52.134  1.00  0.00     0.044 C 
HETATM   20  C   UNL     1     -39.784  49.980 -54.536  1.00  0.00     0.016 C 
ENDBRANCH  17  18
ENDBRANCH  16  17
ENDBRANCH  12  16
ENDBRANCH   4  10
BRANCH   1  21
HETATM   21  C   UNL     1     -45.157  58.500 -58.153  1.00  0.00     0.014 A 
HETATM   22  C   UNL     1     -45.401  59.558 -57.291  1.00  0.00     0.034 A 
HETATM   23  C   UNL     1     -44.486  60.487 -56.588  1.00  0.00     0.070 C 
HETATM   24  N   UNL     1     -46.756  59.630 -57.146  1.00  0.00    -0.282 N 
HETATM   25  H   UNL     1     -47.293  60.272 -56.573  1.00  0.00     0.189 HD
HETATM   26  N   UNL     1     -47.424  58.739 -57.885  1.00  0.00    -0.179 NA
HETATM   27  C   UNL     1     -46.464  58.028 -58.488  1.00  0.00     0.061 A 
HETATM   28  C   UNL     1     -46.856  56.908 -59.381  1.00  0.00     0.073 C 
ENDBRANCH   1  21
TORSDOF 5
ENDMDL
MODEL 3
REMARK VINA RESULT:      -8.1      2.266      4.064
REMARK  5 active torsions:
REMARK  status: ('A' for Active; 'I' for Inactive)
REMARK    1  A    between atoms: C_8  and  C_9 
REMARK       I    between atoms: N_10  and  C_11 
REMARK       I    between atoms: C_11  and  N_12 
REMARK    2  A    between atoms: N_12  and  C_13 
REMARK    3  A    between atoms: C_15  and  O_16 
REMARK    4  A    between atoms: O_16  and  C_17 
REMARK    5  A    between atoms: C_17  and  C_18 
ROOT
HETATM    1  C   UNL     1     -44.143  58.545 -58.672  1.00  0.00     0.126 C 
HETATM    2  N   UNL     1     -42.979  57.986 -57.993  1.00  0.00    -0.325 N 
HETATM    3  C   UNL     1     -43.072  57.529 -56.686  1.00  0.00     0.323 C 
HETATM    4  N   UNL     1     -41.966  56.790 -56.317  1.00  0.00    -0.309 N 
HETATM    5  O   UNL     1     -44.062  57.728 -55.989  1.00  0.00    -0.247 OA
HETATM    6  C   UNL     1     -41.741  58.503 -58.563  1.00  0.00     0.128 C 
HETATM    7  C   UNL     1     -42.177  59.707 -59.383  1.00  0.00     0.022 C 
HETATM    8  C   UNL     1     -43.556  59.294 -59.877  1.00  0.00     0.032 C 
HETATM    9  H   UNL     1     -41.472  56.385 -57.097  1.00  0.00     0.170 HD
ENDROOT
BRANCH   4  10
HETATM   10  C   UNL     1     -41.726  56.212 -55.057  1.00  0.00     0.039 A 
HETATM   11  C   UNL     1     -41.627  54.819 -54.993  1.00  0.00     0.066 A 
HETATM   12  C   UNL     1     -41.432  54.169 -53.772  1.00  0.00     0.071 A 
HETATM   13  C   UNL     1     -41.253  54.922 -52.613  1.00  0.00     0.037 A 
HETATM   14  C   UNL     1     -41.324  56.316 -52.674  1.00  0.00     0.005 A 
HETATM   15  C   UNL     1     -41.571  56.959 -53.889  1.00  0.00     0.030 A 
BRANCH  12  16
HETATM   16  O   UNL     1     -41.432  52.802 -53.842  1.00  0.00    -0.347 OA
BRANCH  16  17
HETATM   17  C   UNL     1     -40.331  52.202 -54.526  1.00  0.00     0.208 C 
BRANCH  17  18
HETATM   18  C   UNL     1     -39.786  51.084 -53.668  1.00  0.00    -0.069 C 
HETATM   19  C   UNL     1     -39.481  51.426 -52.238  1.00  0.00     0.044 C 
HETATM   20  C   UNL     1     -39.591  49.844 -54.151  1.00  0.00     0.016 C 
ENDBRANCH  17  18
ENDBRANCH  16  17
ENDBRANCH  12  16
ENDBRANCH   4  10
BRANCH   1  21
HETATM   21  C   UNL     1     -45.115  57.483 -59.096  1.00  0.00     0.014 A 
HETATM   22  C   UNL     1     -46.498  57.555 -59.014  1.00  0.00     0.034 A 
HETATM   23  C   UNL     1     -47.400  58.614 -58.505  1.00  0.00     0.070 C 
HETATM   24  N   UNL     1     -46.973  56.375 -59.509  1.00  0.00    -0.282 N 
HETATM   25  H   UNL     1     -47.937  56.070 -59.586  1.00  0.00     0.189 HD
HETATM   26  N   UNL     1     -46.017  55.556 -59.959  1.00  0.00    -0.179 NA
HETATM   27  C   UNL     1     -44.878  56.206 -59.694  1.00  0.00     0.061 A 
HETATM   28  C   UNL     1     -43.586  55.560 -60.042  1.00  0.00     0.073 C 
ENDBRANCH   1  21
TORSDOF 5
ENDMDL
MODEL 4
REMARK VINA RESULT:      -7.8      2.403      3.534
REMARK  5 active torsions:
REMARK  status: ('A' for Active; 'I' for Inactive)
REMARK    1  A    between atoms: C_8  and  C_9 
REMARK       I    between atoms: N_10  and  C_11 
REMARK       I    between atoms: C_11  and  N_12 
REMARK    2  A    between atoms: N_12  and  C_13 
REMARK    3  A    between atoms: C_15  and  O_16 
REMARK    4  A    between atoms: O_16  and  C_17 
REMARK    5  A    between atoms: C_17  and  C_18 
ROOT
HETATM    1  C   UNL     1     -43.607  58.334 -58.479  1.00  0.00     0.126 C 
HETATM    2  N   UNL     1     -43.052  57.024 -58.158  1.00  0.00    -0.325 N 
HETATM    3  C   UNL     1     -42.648  56.721 -56.865  1.00  0.00     0.323 C 
HETATM    4  N   UNL     1     -42.419  55.370 -56.698  1.00  0.00    -0.309 N 
HETATM    5  O   UNL     1     -42.570  57.572 -55.985  1.00  0.00    -0.247 OA
HETATM    6  C   UNL     1     -42.460  56.402 -59.337  1.00  0.00     0.128 C 
HETATM    7  C   UNL     1     -42.326  57.540 -60.336  1.00  0.00     0.022 C 
HETATM    8  C   UNL     1     -43.526  58.416 -60.010  1.00  0.00     0.032 C 
HETATM    9  H   UNL     1     -42.913  54.792 -57.360  1.00  0.00     0.170 HD
ENDROOT
BRANCH   4  10
HETATM   10  C   UNL     1     -41.969  54.735 -55.526  1.00  0.00     0.039 A 
HETATM   11  C   UNL     1     -42.872  54.627 -54.463  1.00  0.00     0.066 A 
HETATM   12  C   UNL     1     -42.486  54.047 -53.251  1.00  0.00     0.071 A 
HETATM   13  C   UNL     1     -41.212  53.496 -53.128  1.00  0.00     0.037 A 
HETATM   14  C   UNL     1     -40.315  53.577 -54.195  1.00  0.00     0.005 A 
HETATM   15  C   UNL     1     -40.687  54.205 -55.385  1.00  0.00     0.030 A 
BRANCH  12  16
HETATM   16  O   UNL     1     -43.441  54.076 -52.272  1.00  0.00    -0.347 OA
BRANCH  16  17
HETATM   17  C   UNL     1     -42.982  54.359 -50.948  1.00  0.00     0.208 C 
BRANCH  17  18
HETATM   18  C   UNL     1     -42.819  55.854 -50.808  1.00  0.00    -0.069 C 
HETATM   19  C   UNL     1     -44.051  56.685 -51.031  1.00  0.00     0.044 C 
HETATM   20  C   UNL     1     -41.640  56.418 -50.494  1.00  0.00     0.016 C 
ENDBRANCH  17  18
ENDBRANCH  16  17
ENDBRANCH  12  16
ENDBRANCH   4  10
BRANCH   1  21
HETATM   21  C   UNL     1     -45.016  58.488 -57.985  1.00  0.00     0.014 A 
HETATM   22  C   UNL     1     -45.450  59.364 -57.002  1.00  0.00     0.034 A 
HETATM   23  C   UNL     1     -44.723  60.347 -56.167  1.00  0.00     0.070 C 
HETATM   24  N   UNL     1     -46.796  59.166 -56.880  1.00  0.00    -0.282 N 
HETATM   25  H   UNL     1     -47.441  59.619 -56.243  1.00  0.00     0.189 HD
HETATM   26  N   UNL     1     -47.288  58.269 -57.740  1.00  0.00    -0.179 NA
HETATM   27  C   UNL     1     -46.214  57.830 -58.407  1.00  0.00     0.061 A 
HETATM   28  C   UNL     1     -46.392  56.781 -59.443  1.00  0.00     0.073 C 
ENDBRANCH   1  21
TORSDOF 5
ENDMDL
MODEL 5
REMARK VINA RESULT:      -7.6      2.452      8.066
REMARK  5 active torsions:
REMARK  status: ('A' for Active; 'I' for Inactive)
REMARK    1  A    between atoms: C_8  and  C_9 
REMARK       I    between atoms: N_10  and  C_11 
REMARK       I    between atoms: C_11  and  N_12 
REMARK    2  A    between atoms: N_12  and  C_13 
REMARK    3  A    between atoms: C_15  and  O_16 
REMARK    4  A    between atoms: O_16  and  C_17 
REMARK    5  A    between atoms: C_17  and  C_18 
ROOT
HETATM    1  C   UNL     1     -41.954  54.122 -53.170  1.00  0.00     0.126 C 
HETATM    2  N   UNL     1     -41.682  54.491 -54.555  1.00  0.00    -0.325 N 
HETATM    3  C   UNL     1     -42.713  54.862 -55.407  1.00  0.00     0.323 C 
HETATM    4  N   UNL     1     -42.242  55.438 -56.570  1.00  0.00    -0.309 N 
HETATM    5  O   UNL     1     -43.895  54.730 -55.104  1.00  0.00    -0.247 OA
HETATM    6  C   UNL     1     -40.449  53.876 -55.029  1.00  0.00     0.128 C 
HETATM    7  C   UNL     1     -40.149  52.793 -54.005  1.00  0.00     0.022 C 
HETATM    8  C   UNL     1     -40.680  53.398 -52.714  1.00  0.00     0.032 C 
HETATM    9  H   UNL     1     -41.321  55.837 -56.478  1.00  0.00     0.170 HD
ENDROOT
BRANCH   4  10
HETATM   10  C   UNL     1     -43.016  55.892 -57.653  1.00  0.00     0.039 A 
HETATM   11  C   UNL     1     -43.259  57.267 -57.742  1.00  0.00     0.066 A 
HETATM   12  C   UNL     1     -44.053  57.789 -58.766  1.00  0.00     0.071 A 
HETATM   13  C   UNL     1     -44.544  56.941 -59.757  1.00  0.00     0.037 A 
HETATM   14  C   UNL     1     -44.282  55.571 -59.689  1.00  0.00     0.005 A 
HETATM   15  C   UNL     1     -43.531  55.046 -58.635  1.00  0.00     0.030 A 
BRANCH  12  16
HETATM   16  O   UNL     1     -44.275  59.137 -58.690  1.00  0.00    -0.347 OA
BRANCH  16  17
HETATM   17  C   UNL     1     -44.042  59.886 -59.884  1.00  0.00     0.208 C 
BRANCH  17  18
HETATM   18  C   UNL     1     -42.553  60.091 -60.039  1.00  0.00    -0.069 C 
HETATM   19  C   UNL     1     -41.857  60.810 -58.918  1.00  0.00     0.044 C 
HETATM   20  C   UNL     1     -41.880  59.650 -61.116  1.00  0.00     0.016 C 
ENDBRANCH  17  18
ENDBRANCH  16  17
ENDBRANCH  12  16
ENDBRANCH   4  10
BRANCH   1  21
HETATM   21  C   UNL     1     -42.253  55.318 -52.314  1.00  0.00     0.014 A 
HETATM   22  C   UNL     1     -43.098  55.350 -51.215  1.00  0.00     0.034 A 
HETATM   23  C   UNL     1     -43.932  54.303 -50.583  1.00  0.00     0.070 C 
HETATM   24  N   UNL     1     -43.066  56.632 -50.746  1.00  0.00    -0.282 N 
HETATM   25  H   UNL     1     -43.578  57.026 -49.964  1.00  0.00     0.189 HD
HETATM   26  N   UNL     1     -42.230  57.430 -51.415  1.00  0.00    -0.179 NA
HETATM   27  C   UNL     1     -41.742  56.651 -52.388  1.00  0.00     0.061 A 
HETATM   28  C   UNL     1     -40.783  57.235 -53.360  1.00  0.00     0.073 C 
ENDBRANCH   1  21
TORSDOF 5
ENDMDL
MODEL 6
REMARK VINA RESULT:      -7.5      2.361      4.316
REMARK  5 active torsions:
REMARK  status: ('A' for Active; 'I' for Inactive)
REMARK    1  A    between atoms: C_8  and  C_9 
REMARK       I    between atoms: N_10  and  C_11 
REMARK       I    between atoms: C_11  and  N_12 
REMARK    2  A    between atoms: N_12  and  C_13 
REMARK    3  A    between atoms: C_15  and  O_16 
REMARK    4  A    between atoms: O_16  and  C_17 
REMARK    5  A    between atoms: C_17  and  C_18 
ROOT
HETATM    1  C   UNL     1     -43.240  58.307 -53.516  1.00  0.00     0.126 C 
HETATM    2  N   UNL     1     -42.183  57.859 -52.617  1.00  0.00    -0.325 N 
HETATM    3  C   UNL     1     -42.321  56.687 -51.886  1.00  0.00     0.323 C 
HETATM    4  N   UNL     1     -41.127  56.287 -51.319  1.00  0.00    -0.309 N 
HETATM    5  O   UNL     1     -43.382  56.074 -51.822  1.00  0.00    -0.247 OA
HETATM    6  C   UNL     1     -41.371  58.982 -52.163  1.00  0.00     0.128 C 
HETATM    7  C   UNL     1     -42.196  60.210 -52.514  1.00  0.00     0.022 C 
HETATM    8  C   UNL     1     -42.910  59.781 -53.787  1.00  0.00     0.032 C 
HETATM    9  H   UNL     1     -40.314  56.646 -51.795  1.00  0.00     0.170 HD
ENDROOT
BRANCH   4  10
HETATM   10  C   UNL     1     -40.926  55.166 -50.494  1.00  0.00     0.039 A 
HETATM   11  C   UNL     1     -40.622  53.952 -51.117  1.00  0.00     0.066 A 
HETATM   12  C   UNL     1     -40.448  52.785 -50.368  1.00  0.00     0.071 A 
HETATM   13  C   UNL     1     -40.500  52.847 -48.976  1.00  0.00     0.037 A 
HETATM   14  C   UNL     1     -40.776  54.063 -48.347  1.00  0.00     0.005 A 
HETATM   15  C   UNL     1     -41.001  55.216 -49.102  1.00  0.00     0.030 A 
BRANCH  12  16
HETATM   16  O   UNL     1     -40.233  51.654 -51.108  1.00  0.00    -0.347 OA
BRANCH  16  17
HETATM   17  C   UNL     1     -39.218  51.735 -52.109  1.00  0.00     0.208 C 
BRANCH  17  18
HETATM   18  C   UNL     1     -39.794  51.242 -53.416  1.00  0.00    -0.069 C 
HETATM   19  C   UNL     1     -40.406  52.282 -54.311  1.00  0.00     0.044 C 
HETATM   20  C   UNL     1     -39.758  49.945 -53.768  1.00  0.00     0.016 C 
ENDBRANCH  17  18
ENDBRANCH  16  17
ENDBRANCH  12  16
ENDBRANCH   4  10
BRANCH   1  21
HETATM   21  C   UNL     1     -43.282  57.502 -54.783  1.00  0.00     0.014 A 
HETATM   22  C   UNL     1     -44.315  57.481 -55.708  1.00  0.00     0.034 A 
HETATM   23  C   UNL     1     -45.623  58.176 -55.741  1.00  0.00     0.070 C 
HETATM   24  N   UNL     1     -43.928  56.622 -56.695  1.00  0.00    -0.282 N 
HETATM   25  H   UNL     1     -44.442  56.346 -57.525  1.00  0.00     0.189 HD
HETATM   26  N   UNL     1     -42.702  56.118 -56.520  1.00  0.00    -0.179 NA
HETATM   27  C   UNL     1     -42.304  56.627 -55.349  1.00  0.00     0.061 A 
HETATM   28  C   UNL     1     -40.969  56.246 -54.818  1.00  0.00     0.073 C 
ENDBRANCH   1  21
TORSDOF 5
ENDMDL
MODEL 7
REMARK VINA RESULT:      -7.4      2.642      3.671
REMARK  5 active torsions:
REMARK  status: ('A' for Active; 'I' for Inactive)
REMARK    1  A    between atoms: C_8  and  C_9 
REMARK       I    between atoms: N_10  and  C_11 
REMARK       I    between atoms: C_11  and  N_12 
REMARK    2  A    between atoms: N_12  and  C_13 
REMARK    3  A    between atoms: C_15  and  O_16 
REMARK    4  A    between atoms: O_16  and  C_17 
REMARK    5  A    between atoms: C_17  and  C_18 
ROOT
HETATM    1  C   UNL     1     -44.153  58.529 -58.323  1.00  0.00     0.126 C 
HETATM    2  N   UNL     1     -42.973  57.889 -57.753  1.00  0.00    -0.325 N 
HETATM    3  C   UNL     1     -43.034  57.258 -56.518  1.00  0.00     0.323 C 
HETATM    4  N   UNL     1     -41.917  56.482 -56.279  1.00  0.00    -0.309 N 
HETATM    5  O   UNL     1     -44.008  57.355 -55.779  1.00  0.00    -0.247 OA
HETATM    6  C   UNL     1     -41.750  58.485 -58.276  1.00  0.00     0.128 C 
HETATM    7  C   UNL     1     -42.207  59.786 -58.915  1.00  0.00     0.022 C 
HETATM    8  C   UNL     1     -43.596  59.437 -59.428  1.00  0.00     0.032 C 
HETATM    9  H   UNL     1     -41.441  56.190 -57.118  1.00  0.00     0.170 HD
ENDROOT
BRANCH   4  10
HETATM   10  C   UNL     1     -41.647  55.740 -55.115  1.00  0.00     0.039 A 
HETATM   11  C   UNL     1     -41.569  56.440 -53.906  1.00  0.00     0.066 A 
HETATM   12  C   UNL     1     -41.263  55.780 -52.713  1.00  0.00     0.071 A 
HETATM   13  C   UNL     1     -41.113  54.394 -52.714  1.00  0.00     0.037 A 
HETATM   14  C   UNL     1     -41.217  53.685 -53.913  1.00  0.00     0.005 A 
HETATM   15  C   UNL     1     -41.471  54.357 -55.111  1.00  0.00     0.030 A 
BRANCH  12  16
HETATM   16  O   UNL     1     -41.140  56.594 -51.621  1.00  0.00    -0.347 OA
BRANCH  16  17
HETATM   17  C   UNL     1     -42.117  57.628 -51.488  1.00  0.00     0.208 C 
BRANCH  17  18
HETATM   18  C   UNL     1     -41.425  58.882 -51.008  1.00  0.00    -0.069 C 
HETATM   19  C   UNL     1     -39.925  58.832 -50.938  1.00  0.00     0.044 C 
HETATM   20  C   UNL     1     -42.107  59.989 -50.667  1.00  0.00     0.016 C 
ENDBRANCH  17  18
ENDBRANCH  16  17
ENDBRANCH  12  16
ENDBRANCH   4  10
BRANCH   1  21
HETATM   21  C   UNL     1     -45.133  57.528 -58.865  1.00  0.00     0.014 A 
HETATM   22  C   UNL     1     -46.511  57.565 -58.714  1.00  0.00     0.034 A 
HETATM   23  C   UNL     1     -47.400  58.517 -58.011  1.00  0.00     0.070 C 
HETATM   24  N   UNL     1     -46.996  56.468 -59.366  1.00  0.00    -0.282 N 
HETATM   25  H   UNL     1     -47.960  56.162 -59.448  1.00  0.00     0.189 HD
HETATM   26  N   UNL     1     -46.053  55.743 -59.976  1.00  0.00    -0.179 NA
HETATM   27  C   UNL     1     -44.910  56.363 -59.663  1.00  0.00     0.061 A 
HETATM   28  C   UNL     1     -43.629  55.799 -60.160  1.00  0.00     0.073 C 
ENDBRANCH   1  21
TORSDOF 5
ENDMDL
MODEL 8
REMARK VINA RESULT:      -7.4      2.809      8.188
REMARK  5 active torsions:
REMARK  status: ('A' for Active; 'I' for Inactive)
REMARK    1  A    between atoms: C_8  and  C_9 
REMARK       I    between atoms: N_10  and  C_11 
REMARK       I    between atoms: C_11  and  N_12 
REMARK    2  A    between atoms: N_12  and  C_13 
REMARK    3  A    between atoms: C_15  and  O_16 
REMARK    4  A    between atoms: O_16  and  C_17 
REMARK    5  A    between atoms: C_17  and  C_18 
ROOT
HETATM    1  C   UNL     1     -42.600  56.040 -53.111  1.00  0.00     0.126 C 
HETATM    2  N   UNL     1     -42.049  56.114 -54.460  1.00  0.00    -0.325 N 
HETATM    3  C   UNL     1     -42.777  56.689 -55.493  1.00  0.00     0.323 C 
HETATM    4  N   UNL     1     -41.997  56.920 -56.609  1.00  0.00    -0.309 N 
HETATM    5  O   UNL     1     -43.959  56.994 -55.373  1.00  0.00    -0.247 OA
HETATM    6  C   UNL     1     -41.056  55.071 -54.678  1.00  0.00     0.128 C 
HETATM    7  C   UNL     1     -41.276  54.094 -53.535  1.00  0.00     0.022 C 
HETATM    8  C   UNL     1     -41.721  55.003 -52.399  1.00  0.00     0.032 C 
HETATM    9  H   UNL     1     -41.013  57.002 -56.403  1.00  0.00     0.170 HD
ENDROOT
BRANCH   4  10
HETATM   10  C   UNL     1     -42.427  57.458 -57.835  1.00  0.00     0.039 A 
HETATM   11  C   UNL     1     -43.147  56.617 -58.691  1.00  0.00     0.066 A 
HETATM   12  C   UNL     1     -43.573  57.066 -59.945  1.00  0.00     0.071 A 
HETATM   13  C   UNL     1     -43.348  58.391 -60.314  1.00  0.00     0.037 A 
HETATM   14  C   UNL     1     -42.654  59.243 -59.451  1.00  0.00     0.005 A 
HETATM   15  C   UNL     1     -42.184  58.775 -58.222  1.00  0.00     0.030 A 
BRANCH  12  16
HETATM   16  O   UNL     1     -44.195  56.120 -60.712  1.00  0.00    -0.347 OA
BRANCH  16  17
HETATM   17  C   UNL     1     -45.320  55.465 -60.121  1.00  0.00     0.208 C 
BRANCH  17  18
HETATM   18  C   UNL     1     -46.521  56.372 -60.245  1.00  0.00    -0.069 C 
HETATM   19  C   UNL     1     -46.824  57.246 -59.061  1.00  0.00     0.044 C 
HETATM   20  C   UNL     1     -47.279  56.406 -61.355  1.00  0.00     0.016 C 
ENDBRANCH  17  18
ENDBRANCH  16  17
ENDBRANCH  12  16
ENDBRANCH   4  10
BRANCH   1  21
HETATM   21  C   UNL     1     -42.572  57.369 -52.414  1.00  0.00     0.014 A 
HETATM   22  C   UNL     1     -43.538  57.865 -51.552  1.00  0.00     0.034 A 
HETATM   23  C   UNL     1     -44.824  57.299 -51.083  1.00  0.00     0.070 C 
HETATM   24  N   UNL     1     -43.101  59.096 -51.155  1.00  0.00    -0.282 N 
HETATM   25  H   UNL     1     -43.563  59.757 -50.539  1.00  0.00     0.189 HD
HETATM   26  N   UNL     1     -41.903  59.426 -51.646  1.00  0.00    -0.179 NA
HETATM   27  C   UNL     1     -41.576  58.395 -52.433  1.00  0.00     0.061 A 
HETATM   28  C   UNL     1     -40.291  58.440 -53.177  1.00  0.00     0.073 C 
ENDBRANCH   1  21
TORSDOF 5
ENDMDL
MODEL 9
REMARK VINA RESULT:      -7.3      3.012      5.496
REMARK  5 active torsions:
REMARK  status: ('A' for Active; 'I' for Inactive)
REMARK    1  A    between atoms: C_8  and  C_9 
REMARK       I    between atoms: N_10  and  C_11 
REMARK       I    between atoms: C_11  and  N_12 
REMARK    2  A    between atoms: N_12  and  C_13 
REMARK    3  A    between atoms: C_15  and  O_16 
REMARK    4  A    between atoms: O_16  and  C_17 
REMARK    5  A    between atoms: C_17  and  C_18 
ROOT
HETATM    1  C   UNL     1     -43.450  58.729 -53.891  1.00  0.00     0.126 C 
HETATM    2  N   UNL     1     -43.368  57.353 -53.414  1.00  0.00    -0.325 N 
HETATM    3  C   UNL     1     -42.339  56.954 -52.571  1.00  0.00     0.323 C 
HETATM    4  N   UNL     1     -42.582  55.716 -52.010  1.00  0.00    -0.309 N 
HETATM    5  O   UNL     1     -41.372  57.669 -52.331  1.00  0.00    -0.247 OA
HETATM    6  C   UNL     1     -44.036  56.439 -54.333  1.00  0.00     0.128 C 
HETATM    7  C   UNL     1     -44.216  57.249 -55.607  1.00  0.00     0.022 C 
HETATM    8  C   UNL     1     -44.420  58.662 -55.079  1.00  0.00     0.032 C 
HETATM    9  H   UNL     1     -43.559  55.472 -51.978  1.00  0.00     0.170 HD
ENDROOT
BRANCH   4  10
HETATM   10  C   UNL     1     -41.731  55.010 -51.141  1.00  0.00     0.039 A 
HETATM   11  C   UNL     1     -41.014  53.933 -51.673  1.00  0.00     0.066 A 
HETATM   12  C   UNL     1     -40.180  53.157 -50.864  1.00  0.00     0.071 A 
HETATM   13  C   UNL     1     -39.998  53.508 -49.527  1.00  0.00     0.037 A 
HETATM   14  C   UNL     1     -40.691  54.598 -48.996  1.00  0.00     0.005 A 
HETATM   15  C   UNL     1     -41.563  55.339 -49.796  1.00  0.00     0.030 A 
BRANCH  12  16
HETATM   16  O   UNL     1     -39.600  52.089 -51.493  1.00  0.00    -0.347 OA
BRANCH  16  17
HETATM   17  C   UNL     1     -39.862  51.960 -52.892  1.00  0.00     0.208 C 
BRANCH  17  18
HETATM   18  C   UNL     1     -39.757  50.500 -53.265  1.00  0.00    -0.069 C 
HETATM   19  C   UNL     1     -39.600  49.529 -52.129  1.00  0.00     0.044 C 
HETATM   20  C   UNL     1     -39.808  50.084 -54.543  1.00  0.00     0.016 C 
ENDBRANCH  17  18
ENDBRANCH  16  17
ENDBRANCH  12  16
ENDBRANCH   4  10
BRANCH   1  21
HETATM   21  C   UNL     1     -43.937  59.668 -52.826  1.00  0.00     0.014 A 
HETATM   22  C   UNL     1     -43.691  61.032 -52.759  1.00  0.00     0.034 A 
HETATM   23  C   UNL     1     -42.913  61.937 -53.635  1.00  0.00     0.070 C 
HETATM   24  N   UNL     1     -44.323  61.479 -51.635  1.00  0.00    -0.282 N 
HETATM   25  H   UNL     1     -44.342  62.422 -51.259  1.00  0.00     0.189 HD
HETATM   26  N   UNL     1     -45.008  60.531 -50.989  1.00  0.00    -0.179 NA
HETATM   27  C   UNL     1     -44.766  59.417 -51.689  1.00  0.00     0.061 A 
HETATM   28  C   UNL     1     -45.360  58.137 -51.226  1.00  0.00     0.073 C 
ENDBRANCH   1  21
TORSDOF 5
ENDMDL
MODEL 10
REMARK VINA RESULT:      -7.2      2.894      8.059
REMARK  5 active torsions:
REMARK  status: ('A' for Active; 'I' for Inactive)
REMARK    1  A    between atoms: C_8  and  C_9 
REMARK       I    between atoms: N_10  and  C_11 
REMARK       I    between atoms: C_11  and  N_12 
REMARK    2  A    between atoms: N_12  and  C_13 
REMARK    3  A    between atoms: C_15  and  O_16 
REMARK    4  A    between atoms: O_16  and  C_17 
REMARK    5  A    between atoms: C_17  and  C_18 
ROOT
HETATM    1  C   UNL     1     -41.309  56.829 -52.360  1.00  0.00     0.126 C 
HETATM    2  N   UNL     1     -41.747  57.518 -53.570  1.00  0.00    -0.325 N 
HETATM    3  C   UNL     1     -41.710  56.881 -54.802  1.00  0.00     0.323 C 
HETATM    4  N   UNL     1     -42.415  57.576 -55.765  1.00  0.00    -0.309 N 
HETATM    5  O   UNL     1     -41.157  55.798 -54.966  1.00  0.00    -0.247 OA
HETATM    6  C   UNL     1     -41.623  58.963 -53.423  1.00  0.00     0.128 C 
HETATM    7  C   UNL     1     -40.729  59.144 -52.207  1.00  0.00     0.022 C 
HETATM    8  C   UNL     1     -41.103  57.954 -51.337  1.00  0.00     0.032 C 
HETATM    9  H   UNL     1     -43.123  58.185 -55.386  1.00  0.00     0.170 HD
ENDROOT
BRANCH   4  10
HETATM   10  C   UNL     1     -42.549  57.226 -57.121  1.00  0.00     0.039 A 
HETATM   11  C   UNL     1     -42.108  58.150 -58.073  1.00  0.00     0.066 A 
HETATM   12  C   UNL     1     -42.246  57.893 -59.440  1.00  0.00     0.071 A 
HETATM   13  C   UNL     1     -42.757  56.666 -59.860  1.00  0.00     0.037 A 
HETATM   14  C   UNL     1     -43.174  55.728 -58.913  1.00  0.00     0.005 A 
HETATM   15  C   UNL     1     -43.083  56.011 -57.549  1.00  0.00     0.030 A 
BRANCH  12  16
HETATM   16  O   UNL     1     -41.845  58.912 -60.259  1.00  0.00    -0.347 OA
BRANCH  16  17
HETATM   17  C   UNL     1     -42.549  60.148 -60.124  1.00  0.00     0.208 C 
BRANCH  17  18
HETATM   18  C   UNL     1     -41.545  61.277 -60.155  1.00  0.00    -0.069 C 
HETATM   19  C   UNL     1     -40.962  61.688 -58.833  1.00  0.00     0.044 C 
HETATM   20  C   UNL     1     -41.184  61.880 -61.301  1.00  0.00     0.016 C 
ENDBRANCH  17  18
ENDBRANCH  16  17
ENDBRANCH  12  16
ENDBRANCH   4  10
BRANCH   1  21
HETATM   21  C   UNL     1     -42.316  55.822 -51.888  1.00  0.00     0.014 A 
HETATM   22  C   UNL     1     -43.600  56.092 -51.438  1.00  0.00     0.034 A 
HETATM   23  C   UNL     1     -44.337  57.366 -51.271  1.00  0.00     0.070 C 
HETATM   24  N   UNL     1     -44.155  54.887 -51.117  1.00  0.00    -0.282 N 
HETATM   25  H   UNL     1     -45.077  54.703 -50.736  1.00  0.00     0.189 HD
HETATM   26  N   UNL     1     -43.359  53.844 -51.369  1.00  0.00    -0.179 NA
HETATM   27  C   UNL     1     -42.227  54.396 -51.818  1.00  0.00     0.061 A 
HETATM   28  C   UNL     1     -41.089  53.510 -52.174  1.00  0.00     0.073 C 
ENDBRANCH   1  21
TORSDOF 5
ENDMDL
