MODEL 1
REMARK VINA RESULT:      -8.2      0.000      0.000
REMARK  5 active torsions:
REMARK  status: ('A' for Active; 'I' for Inactive)
REMARK    1  A    between atoms: C_2  and  C_3 
REMARK    2  A    between atoms: C_6  and  C_7 
REMARK    3  A    between atoms: C_7  and  C_8 
REMARK       I    between atoms: C_8  and  N_9 
REMARK    4  A    between atoms: N_9  and  C_10 
REMARK    5  A    between atoms: C_12  and  C_13 
ROOT
HETATM    1  C   UNL     1     -42.436  56.368 -53.971  1.00  0.00     0.226 C 
HETATM    2  N   UNL     1     -41.954  56.990 -55.109  1.00  0.00    -0.327 N 
HETATM    3  O   UNL     1     -43.608  56.061 -53.762  1.00  0.00    -0.273 OA
HETATM    4  H   UNL     1     -40.989  57.299 -55.083  1.00  0.00     0.169 HD
ENDROOT
BRANCH   2   5
HETATM    5  C   UNL     1     -42.681  57.337 -56.269  1.00  0.00     0.035 A 
HETATM    6  C   UNL     1     -43.103  56.411 -57.230  1.00  0.00     0.042 A 
HETATM    7  C   UNL     1     -43.809  56.814 -58.379  1.00  0.00    -0.021 A 
HETATM    8  C   UNL     1     -44.091  58.176 -58.543  1.00  0.00     0.012 A 
HETATM    9  C   UNL     1     -43.670  59.109 -57.595  1.00  0.00     0.003 A 
HETATM   10  C   UNL     1     -42.964  58.692 -56.467  1.00  0.00     0.029 A 
BRANCH   7  11
HETATM   11  C   UNL     1     -44.229  55.849 -59.391  1.00  0.00     0.010 A 
HETATM   12  C   UNL     1     -44.669  56.034 -60.726  1.00  0.00     0.152 A 
HETATM   13  N   UNL     1     -44.964  54.888 -61.345  1.00  0.00    -0.187 NA
HETATM   14  N   UNL     1     -44.712  53.958 -60.412  1.00  0.00    -0.289 N 
HETATM   15  H   UNL     1     -44.860  52.983 -60.651  1.00  0.00     0.188 HD
HETATM   16  C   UNL     1     -44.275  54.479 -59.230  1.00  0.00     0.123 A 
ENDBRANCH   7  11
ENDBRANCH   2   5
BRANCH   1  17
HETATM   17  C   UNL     1     -41.367  55.975 -52.960  1.00  0.00     0.141 C 
BRANCH  17  18
HETATM   18  C   UNL     1     -40.842  54.561 -53.039  1.00  0.00    -0.049 A 
HETATM   19  C   UNL     1     -40.597  53.815 -51.880  1.00  0.00     0.008 A 
HETATM   20  C   UNL     1     -40.164  52.487 -51.965  1.00  0.00     0.007 A 
HETATM   21  C   UNL     1     -39.967  51.874 -53.209  1.00  0.00    -0.059 A 
HETATM   22  C   UNL     1     -40.229  52.622 -54.366  1.00  0.00     0.007 A 
HETATM   23  C   UNL     1     -40.659  53.950 -54.283  1.00  0.00     0.008 A 
BRANCH  21  24
HETATM   24  C   UNL     1     -39.572  50.423 -53.364  1.00  0.00     0.034 C 
HETATM   25  C   UNL     1     -39.850  49.789 -54.722  1.00  0.00     0.010 C 
ENDBRANCH  21  24
ENDBRANCH  17  18
ENDBRANCH   1  17
TORSDOF 5
ENDMDL
MODEL 2
REMARK VINA RESULT:      -7.7      2.770      7.795
REMARK  5 active torsions:
REMARK  status: ('A' for Active; 'I' for Inactive)
REMARK    1  A    between atoms: C_2  and  C_3 
REMARK    2  A    between atoms: C_6  and  C_7 
REMARK    3  A    between atoms: C_7  and  C_8 
REMARK       I    between atoms: C_8  and  N_9 
REMARK    4  A    between atoms: N_9  and  C_10 
REMARK    5  A    between atoms: C_12  and  C_13 
ROOT
HETATM    1  C   UNL     1     -42.620  56.082 -53.889  1.00  0.00     0.226 C 
HETATM    2  N   UNL     1     -41.330  55.746 -53.512  1.00  0.00    -0.327 N 
HETATM    3  O   UNL     1     -43.647  55.533 -53.497  1.00  0.00    -0.273 OA
HETATM    4  H   UNL     1     -40.577  56.199 -54.018  1.00  0.00     0.169 HD
ENDROOT
BRANCH   2   5
HETATM    5  C   UNL     1     -40.941  54.769 -52.570  1.00  0.00     0.035 A 
HETATM    6  C   UNL     1     -40.574  53.462 -52.910  1.00  0.00     0.042 A 
HETATM    7  C   UNL     1     -40.214  52.520 -51.928  1.00  0.00    -0.021 A 
HETATM    8  C   UNL     1     -40.223  52.922 -50.586  1.00  0.00     0.012 A 
HETATM    9  C   UNL     1     -40.593  54.221 -50.234  1.00  0.00     0.003 A 
HETATM   10  C   UNL     1     -40.956  55.137 -51.222  1.00  0.00     0.029 A 
BRANCH   7  11
HETATM   11  C   UNL     1     -39.853  51.150 -52.283  1.00  0.00     0.010 A 
HETATM   12  C   UNL     1     -39.723  50.521 -53.546  1.00  0.00     0.152 A 
HETATM   13  N   UNL     1     -39.366  49.237 -53.458  1.00  0.00    -0.187 NA
HETATM   14  N   UNL     1     -39.261  49.034 -52.136  1.00  0.00    -0.289 N 
HETATM   15  H   UNL     1     -38.990  48.113 -51.810  1.00  0.00     0.188 HD
HETATM   16  C   UNL     1     -39.544  50.142 -51.393  1.00  0.00     0.123 A 
ENDBRANCH   7  11
ENDBRANCH   2   5
BRANCH   1  17
HETATM   17  C   UNL     1     -42.719  57.295 -54.803  1.00  0.00     0.141 C 
BRANCH  17  18
HETATM   18  C   UNL     1     -43.159  57.042 -56.226  1.00  0.00    -0.049 A 
HETATM   19  C   UNL     1     -42.806  55.863 -56.894  1.00  0.00     0.008 A 
HETATM   20  C   UNL     1     -43.266  55.614 -58.191  1.00  0.00     0.007 A 
HETATM   21  C   UNL     1     -44.089  56.535 -58.851  1.00  0.00    -0.059 A 
HETATM   22  C   UNL     1     -44.451  57.706 -58.171  1.00  0.00     0.007 A 
HETATM   23  C   UNL     1     -43.991  57.959 -56.876  1.00  0.00     0.008 A 
BRANCH  21  24
HETATM   24  C   UNL     1     -44.675  56.288 -60.223  1.00  0.00     0.034 C 
HETATM   25  C   UNL     1     -44.820  54.830 -60.643  1.00  0.00     0.010 C 
ENDBRANCH  21  24
ENDBRANCH  17  18
ENDBRANCH   1  17
TORSDOF 5
ENDMDL
MODEL 3
REMARK VINA RESULT:      -7.6      2.273      2.959
REMARK  5 active torsions:
REMARK  status: ('A' for Active; 'I' for Inactive)
REMARK    1  A    between atoms: C_2  and  C_3 
REMARK    2  A    between atoms: C_6  and  C_7 
REMARK    3  A    between atoms: C_7  and  C_8 
REMARK       I    between atoms: C_8  and  N_9 
REMARK    4  A    between atoms: N_9  and  C_10 
REMARK    5  A    between atoms: C_12  and  C_13 
ROOT
HETATM    1  C   UNL     1     -42.578  56.220 -55.531  1.00  0.00     0.226 C 
HETATM    2  N   UNL     1     -42.360  56.565 -56.854  1.00  0.00    -0.327 N 
HETATM    3  O   UNL     1     -43.655  55.879 -55.046  1.00  0.00    -0.273 OA
HETATM    4  H   UNL     1     -41.450  56.952 -57.077  1.00  0.00     0.169 HD
ENDROOT
BRANCH   2   5
HETATM    5  C   UNL     1     -43.295  56.537 -57.911  1.00  0.00     0.035 A 
HETATM    6  C   UNL     1     -44.336  57.461 -58.056  1.00  0.00     0.042 A 
HETATM    7  C   UNL     1     -45.255  57.373 -59.118  1.00  0.00    -0.021 A 
HETATM    8  C   UNL     1     -45.103  56.334 -60.045  1.00  0.00     0.012 A 
HETATM    9  C   UNL     1     -44.073  55.402 -59.908  1.00  0.00     0.003 A 
HETATM   10  C   UNL     1     -43.178  55.501 -58.842  1.00  0.00     0.029 A 
BRANCH   7  11
HETATM   11  C   UNL     1     -46.353  58.326 -59.256  1.00  0.00     0.010 A 
HETATM   12  C   UNL     1     -47.068  58.761 -60.400  1.00  0.00     0.152 A 
HETATM   13  N   UNL     1     -48.022  59.651 -60.115  1.00  0.00    -0.187 NA
HETATM   14  N   UNL     1     -47.927  59.793 -58.784  1.00  0.00    -0.289 N 
HETATM   15  H   UNL     1     -48.565  60.430 -58.320  1.00  0.00     0.188 HD
HETATM   16  C   UNL     1     -46.946  59.027 -58.226  1.00  0.00     0.123 A 
ENDBRANCH   7  11
ENDBRANCH   2   5
BRANCH   1  17
HETATM   17  C   UNL     1     -41.325  56.195 -54.666  1.00  0.00     0.141 C 
BRANCH  17  18
HETATM   18  C   UNL     1     -40.844  54.840 -54.203  1.00  0.00    -0.049 A 
HETATM   19  C   UNL     1     -40.954  54.453 -52.861  1.00  0.00     0.008 A 
HETATM   20  C   UNL     1     -40.557  53.175 -52.453  1.00  0.00     0.007 A 
HETATM   21  C   UNL     1     -40.044  52.254 -53.375  1.00  0.00    -0.059 A 
HETATM   22  C   UNL     1     -39.952  52.641 -54.719  1.00  0.00     0.007 A 
HETATM   23  C   UNL     1     -40.344  53.919 -55.129  1.00  0.00     0.008 A 
BRANCH  21  24
HETATM   24  C   UNL     1     -39.668  50.835 -53.007  1.00  0.00     0.034 C 
HETATM   25  C   UNL     1     -39.543  49.849 -54.162  1.00  0.00     0.010 C 
ENDBRANCH  21  24
ENDBRANCH  17  18
ENDBRANCH   1  17
TORSDOF 5
ENDMDL
MODEL 4
REMARK VINA RESULT:      -7.4      1.662      2.423
REMARK  5 active torsions:
REMARK  status: ('A' for Active; 'I' for Inactive)
REMARK    1  A    between atoms: C_2  and  C_3 
REMARK    2  A    between atoms: C_6  and  C_7 
REMARK    3  A    between atoms: C_7  and  C_8 
REMARK       I    between atoms: C_8  and  N_9 
REMARK    4  A    between atoms: N_9  and  C_10 
REMARK    5  A    between atoms: C_12  and  C_13 
ROOT
HETATM    1  C   UNL     1     -42.698  56.556 -52.910  1.00  0.00     0.226 C 
HETATM    2  N   UNL     1     -41.777  57.330 -53.596  1.00  0.00    -0.327 N 
HETATM    3  O   UNL     1     -43.899  56.483 -53.158  1.00  0.00    -0.273 OA
HETATM    4  H   UNL     1     -40.848  57.391 -53.195  1.00  0.00     0.169 HD
ENDROOT
BRANCH   2   5
HETATM    5  C   UNL     1     -42.011  58.129 -54.736  1.00  0.00     0.035 A 
HETATM    6  C   UNL     1     -42.060  57.628 -56.042  1.00  0.00     0.042 A 
HETATM    7  C   UNL     1     -42.276  58.474 -57.146  1.00  0.00    -0.021 A 
HETATM    8  C   UNL     1     -42.450  59.844 -56.911  1.00  0.00     0.012 A 
HETATM    9  C   UNL     1     -42.397  60.356 -55.614  1.00  0.00     0.003 A 
HETATM   10  C   UNL     1     -42.172  59.503 -54.533  1.00  0.00     0.029 A 
BRANCH   7  11
HETATM   11  C   UNL     1     -42.305  57.953 -58.510  1.00  0.00     0.010 A 
HETATM   12  C   UNL     1     -42.826  56.742 -59.032  1.00  0.00     0.152 A 
HETATM   13  N   UNL     1     -42.663  56.627 -60.352  1.00  0.00    -0.187 NA
HETATM   14  N   UNL     1     -42.039  57.765 -60.688  1.00  0.00    -0.289 N 
HETATM   15  H   UNL     1     -41.805  57.917 -61.664  1.00  0.00     0.188 HD
HETATM   16  C   UNL     1     -41.799  58.587 -59.627  1.00  0.00     0.123 A 
ENDBRANCH   7  11
ENDBRANCH   2   5
BRANCH   1  17
HETATM   17  C   UNL     1     -42.101  55.675 -51.821  1.00  0.00     0.141 C 
BRANCH  17  18
HETATM   18  C   UNL     1     -41.444  54.390 -52.269  1.00  0.00    -0.049 A 
HETATM   19  C   UNL     1     -41.689  53.857 -53.540  1.00  0.00     0.008 A 
HETATM   20  C   UNL     1     -41.032  52.697 -53.965  1.00  0.00     0.007 A 
HETATM   21  C   UNL     1     -40.116  52.044 -53.131  1.00  0.00    -0.059 A 
HETATM   22  C   UNL     1     -39.863  52.592 -51.865  1.00  0.00     0.007 A 
HETATM   23  C   UNL     1     -40.520  53.749 -51.437  1.00  0.00     0.008 A 
BRANCH  21  24
HETATM   24  C   UNL     1     -39.322  50.831 -53.562  1.00  0.00     0.034 C 
HETATM   25  C   UNL     1     -40.015  49.880 -54.531  1.00  0.00     0.010 C 
ENDBRANCH  21  24
ENDBRANCH  17  18
ENDBRANCH   1  17
TORSDOF 5
ENDMDL
MODEL 5
REMARK VINA RESULT:      -7.4     14.795     18.254
REMARK  5 active torsions:
REMARK  status: ('A' for Active; 'I' for Inactive)
REMARK    1  A    between atoms: C_2  and  C_3 
REMARK    2  A    between atoms: C_6  and  C_7 
REMARK    3  A    between atoms: C_7  and  C_8 
REMARK       I    between atoms: C_8  and  N_9 
REMARK    4  A    between atoms: N_9  and  C_10 
REMARK    5  A    between atoms: C_12  and  C_13 
ROOT
HETATM    1  C   UNL     1     -35.822  42.089 -55.638  1.00  0.00     0.226 C 
HETATM    2  N   UNL     1     -35.527  40.892 -55.008  1.00  0.00    -0.327 N 
HETATM    3  O   UNL     1     -35.039  43.020 -55.812  1.00  0.00    -0.273 OA
HETATM    4  H   UNL     1     -36.308  40.273 -54.822  1.00  0.00     0.169 HD
ENDROOT
BRANCH   2   5
HETATM    5  C   UNL     1     -34.276  40.477 -54.501  1.00  0.00     0.035 A 
HETATM    6  C   UNL     1     -33.197  40.094 -55.307  1.00  0.00     0.042 A 
HETATM    7  C   UNL     1     -31.978  39.668 -54.748  1.00  0.00    -0.021 A 
HETATM    8  C   UNL     1     -31.859  39.640 -53.353  1.00  0.00     0.012 A 
HETATM    9  C   UNL     1     -32.929  40.014 -52.539  1.00  0.00     0.003 A 
HETATM   10  C   UNL     1     -34.134  40.424 -53.111  1.00  0.00     0.029 A 
BRANCH   7  11
HETATM   11  C   UNL     1     -30.860  39.248 -55.589  1.00  0.00     0.010 A 
HETATM   12  C   UNL     1     -29.981  38.142 -55.482  1.00  0.00     0.152 A 
HETATM   13  N   UNL     1     -29.076  38.095 -56.463  1.00  0.00    -0.187 NA
HETATM   14  N   UNL     1     -29.370  39.170 -57.209  1.00  0.00    -0.289 N 
HETATM   15  H   UNL     1     -28.810  39.352 -58.035  1.00  0.00     0.188 HD
HETATM   16  C   UNL     1     -30.423  39.892 -56.729  1.00  0.00     0.123 A 
ENDBRANCH   7  11
ENDBRANCH   2   5
BRANCH   1  17
HETATM   17  C   UNL     1     -37.225  42.170 -56.223  1.00  0.00     0.141 C 
BRANCH  17  18
HETATM   18  C   UNL     1     -37.458  41.460 -57.536  1.00  0.00    -0.049 A 
HETATM   19  C   UNL     1     -37.059  42.033 -58.749  1.00  0.00     0.008 A 
HETATM   20  C   UNL     1     -37.228  41.342 -59.954  1.00  0.00     0.007 A 
HETATM   21  C   UNL     1     -37.799  40.064 -59.975  1.00  0.00    -0.059 A 
HETATM   22  C   UNL     1     -38.183  39.489 -58.755  1.00  0.00     0.007 A 
HETATM   23  C   UNL     1     -38.017  40.178 -57.550  1.00  0.00     0.008 A 
BRANCH  21  24
HETATM   24  C   UNL     1     -37.941  39.240 -61.235  1.00  0.00     0.034 C 
HETATM   25  C   UNL     1     -39.019  38.163 -61.220  1.00  0.00     0.010 C 
ENDBRANCH  21  24
ENDBRANCH  17  18
ENDBRANCH   1  17
TORSDOF 5
ENDMDL
MODEL 6
REMARK VINA RESULT:      -7.3     14.632     17.843
REMARK  5 active torsions:
REMARK  status: ('A' for Active; 'I' for Inactive)
REMARK    1  A    between atoms: C_2  and  C_3 
REMARK    2  A    between atoms: C_6  and  C_7 
REMARK    3  A    between atoms: C_7  and  C_8 
REMARK       I    between atoms: C_8  and  N_9 
REMARK    4  A    between atoms: N_9  and  C_10 
REMARK    5  A    between atoms: C_12  and  C_13 
ROOT
HETATM    1  C   UNL     1     -36.293  41.652 -55.070  1.00  0.00     0.226 C 
HETATM    2  N   UNL     1     -36.817  41.833 -53.801  1.00  0.00    -0.327 N 
HETATM    3  O   UNL     1     -35.350  40.918 -55.359  1.00  0.00    -0.273 OA
HETATM    4  H   UNL     1     -37.508  42.568 -53.696  1.00  0.00     0.169 HD
ENDROOT
BRANCH   2   5
HETATM    5  C   UNL     1     -36.427  41.178 -52.613  1.00  0.00     0.035 A 
HETATM    6  C   UNL     1     -35.096  41.027 -52.207  1.00  0.00     0.042 A 
HETATM    7  C   UNL     1     -34.761  40.347 -51.022  1.00  0.00    -0.021 A 
HETATM    8  C   UNL     1     -35.798  39.820 -50.241  1.00  0.00     0.012 A 
HETATM    9  C   UNL     1     -37.129  39.958 -50.638  1.00  0.00     0.003 A 
HETATM   10  C   UNL     1     -37.440  40.629 -51.821  1.00  0.00     0.029 A 
BRANCH   7  11
HETATM   11  C   UNL     1     -33.371  40.172 -50.611  1.00  0.00     0.010 A 
HETATM   12  C   UNL     1     -32.812  39.703 -49.395  1.00  0.00     0.152 A 
HETATM   13  N   UNL     1     -31.477  39.683 -49.405  1.00  0.00    -0.187 NA
HETATM   14  N   UNL     1     -31.168  40.136 -50.629  1.00  0.00    -0.289 N 
HETATM   15  H   UNL     1     -30.189  40.209 -50.884  1.00  0.00     0.188 HD
HETATM   16  C   UNL     1     -32.261  40.444 -51.385  1.00  0.00     0.123 A 
ENDBRANCH   7  11
ENDBRANCH   2   5
BRANCH   1  17
HETATM   17  C   UNL     1     -37.042  42.382 -56.176  1.00  0.00     0.141 C 
BRANCH  17  18
HETATM   18  C   UNL     1     -37.372  41.585 -57.416  1.00  0.00    -0.049 A 
HETATM   19  C   UNL     1     -36.953  42.010 -58.683  1.00  0.00     0.008 A 
HETATM   20  C   UNL     1     -37.216  41.235 -59.818  1.00  0.00     0.007 A 
HETATM   21  C   UNL     1     -37.900  40.018 -59.714  1.00  0.00    -0.059 A 
HETATM   22  C   UNL     1     -38.303  39.590 -58.441  1.00  0.00     0.007 A 
HETATM   23  C   UNL     1     -38.045  40.364 -57.306  1.00  0.00     0.008 A 
BRANCH  21  24
HETATM   24  C   UNL     1     -38.148  39.104 -60.893  1.00  0.00     0.034 C 
HETATM   25  C   UNL     1     -39.321  38.140 -60.765  1.00  0.00     0.010 C 
ENDBRANCH  21  24
ENDBRANCH  17  18
ENDBRANCH   1  17
TORSDOF 5
ENDMDL
MODEL 7
REMARK VINA RESULT:      -7.3      2.308      3.156
REMARK  5 active torsions:
REMARK  status: ('A' for Active; 'I' for Inactive)
REMARK    1  A    between atoms: C_2  and  C_3 
REMARK    2  A    between atoms: C_6  and  C_7 
REMARK    3  A    between atoms: C_7  and  C_8 
REMARK       I    between atoms: C_8  and  N_9 
REMARK    4  A    between atoms: N_9  and  C_10 
REMARK    5  A    between atoms: C_12  and  C_13 
ROOT
HETATM    1  C   UNL     1     -42.850  56.356 -55.089  1.00  0.00     0.226 C 
HETATM    2  N   UNL     1     -42.117  56.466 -56.259  1.00  0.00    -0.327 N 
HETATM    3  O   UNL     1     -44.077  56.373 -55.006  1.00  0.00    -0.273 OA
HETATM    4  H   UNL     1     -41.114  56.568 -56.157  1.00  0.00     0.169 HD
ENDROOT
BRANCH   2   5
HETATM    5  C   UNL     1     -42.617  56.554 -57.576  1.00  0.00     0.035 A 
HETATM    6  C   UNL     1     -42.541  57.709 -58.363  1.00  0.00     0.042 A 
HETATM    7  C   UNL     1     -43.075  57.748 -59.665  1.00  0.00    -0.021 A 
HETATM    8  C   UNL     1     -43.687  56.593 -60.168  1.00  0.00     0.012 A 
HETATM    9  C   UNL     1     -43.775  55.437 -59.390  1.00  0.00     0.003 A 
HETATM   10  C   UNL     1     -43.248  55.421 -58.099  1.00  0.00     0.029 A 
BRANCH   7  11
HETATM   11  C   UNL     1     -43.013  58.960 -60.476  1.00  0.00     0.010 A 
HETATM   12  C   UNL     1     -41.910  59.636 -61.057  1.00  0.00     0.152 A 
HETATM   13  N   UNL     1     -42.264  60.725 -61.743  1.00  0.00    -0.187 NA
HETATM   14  N   UNL     1     -43.599  60.756 -61.610  1.00  0.00    -0.289 N 
HETATM   15  H   UNL     1     -44.111  61.508 -62.058  1.00  0.00     0.188 HD
HETATM   16  C   UNL     1     -44.093  59.728 -60.862  1.00  0.00     0.123 A 
ENDBRANCH   7  11
ENDBRANCH   2   5
BRANCH   1  17
HETATM   17  C   UNL     1     -42.017  56.109 -53.838  1.00  0.00     0.141 C 
BRANCH  17  18
HETATM   18  C   UNL     1     -41.474  54.712 -53.647  1.00  0.00    -0.049 A 
HETATM   19  C   UNL     1     -41.596  53.745 -54.652  1.00  0.00     0.008 A 
HETATM   20  C   UNL     1     -41.040  52.471 -54.486  1.00  0.00     0.007 A 
HETATM   21  C   UNL     1     -40.350  52.136 -53.314  1.00  0.00    -0.059 A 
HETATM   22  C   UNL     1     -40.219  53.114 -52.318  1.00  0.00     0.007 A 
HETATM   23  C   UNL     1     -40.775  54.386 -52.480  1.00  0.00     0.008 A 
BRANCH  21  24
HETATM   24  C   UNL     1     -39.667  50.802 -53.108  1.00  0.00     0.034 C 
HETATM   25  C   UNL     1     -39.532  49.915 -54.340  1.00  0.00     0.010 C 
ENDBRANCH  21  24
ENDBRANCH  17  18
ENDBRANCH   1  17
TORSDOF 5
ENDMDL
MODEL 8
REMARK VINA RESULT:      -7.3     14.840     18.490
REMARK  5 active torsions:
REMARK  status: ('A' for Active; 'I' for Inactive)
REMARK    1  A    between atoms: C_2  and  C_3 
REMARK    2  A    between atoms: C_6  and  C_7 
REMARK    3  A    between atoms: C_7  and  C_8 
REMARK       I    between atoms: C_8  and  N_9 
REMARK    4  A    between atoms: N_9  and  C_10 
REMARK    5  A    between atoms: C_12  and  C_13 
ROOT
HETATM    1  C   UNL     1     -36.258  41.463 -53.002  1.00  0.00     0.226 C 
HETATM    2  N   UNL     1     -35.569  40.297 -52.715  1.00  0.00    -0.327 N 
HETATM    3  O   UNL     1     -35.885  42.602 -52.727  1.00  0.00    -0.273 OA
HETATM    4  H   UNL     1     -36.061  39.427 -52.885  1.00  0.00     0.169 HD
ENDROOT
BRANCH   2   5
HETATM    5  C   UNL     1     -34.295  40.180 -52.118  1.00  0.00     0.035 A 
HETATM    6  C   UNL     1     -34.085  39.712 -50.815  1.00  0.00     0.042 A 
HETATM    7  C   UNL     1     -32.794  39.635 -50.261  1.00  0.00    -0.021 A 
HETATM    8  C   UNL     1     -31.707  40.035 -51.049  1.00  0.00     0.012 A 
HETATM    9  C   UNL     1     -31.904  40.510 -52.346  1.00  0.00     0.003 A 
HETATM   10  C   UNL     1     -33.193  40.587 -52.875  1.00  0.00     0.029 A 
BRANCH   7  11
HETATM   11  C   UNL     1     -32.579  39.166 -48.895  1.00  0.00     0.010 A 
HETATM   12  C   UNL     1     -31.530  39.427 -47.977  1.00  0.00     0.152 A 
HETATM   13  N   UNL     1     -31.694  38.810 -46.804  1.00  0.00    -0.187 NA
HETATM   14  N   UNL     1     -32.851  38.150 -46.960  1.00  0.00    -0.289 N 
HETATM   15  H   UNL     1     -33.199  37.596 -46.184  1.00  0.00     0.188 HD
HETATM   16  C   UNL     1     -33.416  38.327 -48.189  1.00  0.00     0.123 A 
ENDBRANCH   7  11
ENDBRANCH   2   5
BRANCH   1  17
HETATM   17  C   UNL     1     -37.537  41.266 -53.803  1.00  0.00     0.141 C 
BRANCH  17  18
HETATM   18  C   UNL     1     -37.428  41.398 -55.304  1.00  0.00    -0.049 A 
HETATM   19  C   UNL     1     -36.310  41.997 -55.898  1.00  0.00     0.008 A 
HETATM   20  C   UNL     1     -36.193  42.064 -57.291  1.00  0.00     0.007 A 
HETATM   21  C   UNL     1     -37.188  41.535 -58.121  1.00  0.00    -0.059 A 
HETATM   22  C   UNL     1     -38.298  40.923 -57.520  1.00  0.00     0.007 A 
HETATM   23  C   UNL     1     -38.418  40.857 -56.129  1.00  0.00     0.008 A 
BRANCH  21  24
HETATM   24  C   UNL     1     -37.083  41.513 -59.630  1.00  0.00     0.034 C 
HETATM   25  C   UNL     1     -37.402  42.819 -60.348  1.00  0.00     0.010 C 
ENDBRANCH  21  24
ENDBRANCH  17  18
ENDBRANCH   1  17
TORSDOF 5
ENDMDL
MODEL 9
REMARK VINA RESULT:      -7.2     14.539     17.996
REMARK  5 active torsions:
REMARK  status: ('A' for Active; 'I' for Inactive)
REMARK    1  A    between atoms: C_2  and  C_3 
REMARK    2  A    between atoms: C_6  and  C_7 
REMARK    3  A    between atoms: C_7  and  C_8 
REMARK       I    between atoms: C_8  and  N_9 
REMARK    4  A    between atoms: N_9  and  C_10 
REMARK    5  A    between atoms: C_12  and  C_13 
ROOT
HETATM    1  C   UNL     1     -36.142  42.244 -55.384  1.00  0.00     0.226 C 
HETATM    2  N   UNL     1     -36.313  41.696 -54.124  1.00  0.00    -0.327 N 
HETATM    3  O   UNL     1     -35.069  42.585 -55.879  1.00  0.00    -0.273 OA
HETATM    4  H   UNL     1     -37.268  41.588 -53.803  1.00  0.00     0.169 HD
ENDROOT
BRANCH   2   5
HETATM    5  C   UNL     1     -35.306  41.363 -53.192  1.00  0.00     0.035 A 
HETATM    6  C   UNL     1     -34.444  40.270 -53.332  1.00  0.00     0.042 A 
HETATM    7  C   UNL     1     -33.471  39.971 -52.361  1.00  0.00    -0.021 A 
HETATM    8  C   UNL     1     -33.374  40.803 -51.238  1.00  0.00     0.012 A 
HETATM    9  C   UNL     1     -34.233  41.893 -51.083  1.00  0.00     0.003 A 
HETATM   10  C   UNL     1     -35.197  42.167 -52.053  1.00  0.00     0.029 A 
BRANCH   7  11
HETATM   11  C   UNL     1     -32.586  38.818 -52.498  1.00  0.00     0.010 A 
HETATM   12  C   UNL     1     -32.231  37.803 -51.574  1.00  0.00     0.152 A 
HETATM   13  N   UNL     1     -31.386  36.903 -52.083  1.00  0.00    -0.187 NA
HETATM   14  N   UNL     1     -31.194  37.332 -53.339  1.00  0.00    -0.289 N 
HETATM   15  H   UNL     1     -30.578  36.798 -53.942  1.00  0.00     0.188 HD
HETATM   16  C   UNL     1     -31.884  38.471 -53.635  1.00  0.00     0.123 A 
ENDBRANCH   7  11
ENDBRANCH   2   5
BRANCH   1  17
HETATM   17  C   UNL     1     -37.413  42.330 -56.218  1.00  0.00     0.141 C 
BRANCH  17  18
HETATM   18  C   UNL     1     -37.436  41.542 -57.506  1.00  0.00    -0.049 A 
HETATM   19  C   UNL     1     -37.864  40.209 -57.532  1.00  0.00     0.008 A 
HETATM   20  C   UNL     1     -37.935  39.507 -58.740  1.00  0.00     0.007 A 
HETATM   21  C   UNL     1     -37.582  40.118 -59.949  1.00  0.00    -0.059 A 
HETATM   22  C   UNL     1     -37.169  41.458 -59.918  1.00  0.00     0.007 A 
HETATM   23  C   UNL     1     -37.094  42.162 -58.713  1.00  0.00     0.008 A 
BRANCH  21  24
HETATM   24  C   UNL     1     -37.707  39.434 -61.292  1.00  0.00     0.034 C 
HETATM   25  C   UNL     1     -38.747  38.324 -61.389  1.00  0.00     0.010 C 
ENDBRANCH  21  24
ENDBRANCH  17  18
ENDBRANCH   1  17
TORSDOF 5
ENDMDL
MODEL 10
REMARK VINA RESULT:      -7.1     14.456     17.396
REMARK  5 active torsions:
REMARK  status: ('A' for Active; 'I' for Inactive)
REMARK    1  A    between atoms: C_2  and  C_3 
REMARK    2  A    between atoms: C_6  and  C_7 
REMARK    3  A    between atoms: C_7  and  C_8 
REMARK       I    between atoms: C_8  and  N_9 
REMARK    4  A    between atoms: N_9  and  C_10 
REMARK    5  A    between atoms: C_12  and  C_13 
ROOT
HETATM    1  C   UNL     1     -36.364  41.955 -55.499  1.00  0.00     0.226 C 
HETATM    2  N   UNL     1     -36.859  42.214 -54.232  1.00  0.00    -0.327 N 
HETATM    3  O   UNL     1     -35.356  41.299 -55.756  1.00  0.00    -0.273 OA
HETATM    4  H   UNL     1     -37.623  42.878 -54.171  1.00  0.00     0.169 HD
ENDROOT
BRANCH   2   5
HETATM    5  C   UNL     1     -36.356  41.737 -53.003  1.00  0.00     0.035 A 
HETATM    6  C   UNL     1     -37.005  40.781 -52.213  1.00  0.00     0.042 A 
HETATM    7  C   UNL     1     -36.468  40.355 -50.984  1.00  0.00    -0.021 A 
HETATM    8  C   UNL     1     -35.252  40.908 -50.562  1.00  0.00     0.012 A 
HETATM    9  C   UNL     1     -34.599  41.867 -51.337  1.00  0.00     0.003 A 
HETATM   10  C   UNL     1     -35.152  42.283 -52.549  1.00  0.00     0.029 A 
BRANCH   7  11
HETATM   11  C   UNL     1     -37.157  39.374 -50.151  1.00  0.00     0.010 A 
HETATM   12  C   UNL     1     -38.140  38.405 -50.476  1.00  0.00     0.152 A 
HETATM   13  N   UNL     1     -38.529  37.679 -49.425  1.00  0.00    -0.187 NA
HETATM   14  N   UNL     1     -37.795  38.175 -48.417  1.00  0.00    -0.289 N 
HETATM   15  H   UNL     1     -37.911  37.773 -47.493  1.00  0.00     0.188 HD
HETATM   16  C   UNL     1     -36.965  39.188 -48.797  1.00  0.00     0.123 A 
ENDBRANCH   7  11
ENDBRANCH   2   5
BRANCH   1  17
HETATM   17  C   UNL     1     -37.229  42.477 -56.638  1.00  0.00     0.141 C 
BRANCH  17  18
HETATM   18  C   UNL     1     -37.500  41.525 -57.780  1.00  0.00    -0.049 A 
HETATM   19  C   UNL     1     -37.041  41.799 -59.074  1.00  0.00     0.008 A 
HETATM   20  C   UNL     1     -37.249  40.883 -60.112  1.00  0.00     0.007 A 
HETATM   21  C   UNL     1     -37.917  39.675 -59.881  1.00  0.00    -0.059 A 
HETATM   22  C   UNL     1     -38.359  39.400 -58.579  1.00  0.00     0.007 A 
HETATM   23  C   UNL     1     -38.156  40.314 -57.541  1.00  0.00     0.008 A 
BRANCH  21  24
HETATM   24  C   UNL     1     -38.106  38.616 -60.945  1.00  0.00     0.034 C 
HETATM   25  C   UNL     1     -37.483  38.907 -62.305  1.00  0.00     0.010 C 
ENDBRANCH  21  24
ENDBRANCH  17  18
ENDBRANCH   1  17
TORSDOF 5
ENDMDL
