MODEL 1
REMARK VINA RESULT:      -8.0      0.000      0.000
REMARK  3 active torsions:
REMARK  status: ('A' for Active; 'I' for Inactive)
REMARK    1  A    between atoms: C_7  and  C_8 
REMARK    2  A    between atoms: N_11  and  C_13 
REMARK    3  A    between atoms: C_13  and  C_14 
ROOT
HETATM    1  C   UNL     1     -43.020  54.846 -50.657  1.00  0.00     0.024 C 
HETATM    2  C   UNL     1     -43.796  56.166 -50.848  1.00  0.00     0.037 C 
HETATM    3  C   UNL     1     -42.892  57.281 -51.359  1.00  0.00     0.236 C 
HETATM    4  N   UNL     1     -41.721  57.498 -50.426  1.00  0.00    -0.067 N 
HETATM    5  H   UNL     1     -42.083  57.869 -49.537  1.00  0.00     0.280 HD
HETATM    6  C   UNL     1     -40.969  56.224 -50.106  1.00  0.00     0.236 C 
HETATM    7  C   UNL     1     -41.933  55.148 -49.624  1.00  0.00     0.037 C 
ENDROOT
BRANCH   1   8
HETATM    8  C   UNL     1     -42.535  54.260 -51.978  1.00  0.00    -0.026 A 
HETATM    9  C   UNL     1     -41.479  53.309 -52.259  1.00  0.00    -0.001 A 
HETATM   10  C   UNL     1     -41.394  53.179 -53.650  1.00  0.00     0.045 A 
HETATM   11  C   UNL     1     -40.566  52.548 -51.487  1.00  0.00     0.017 A 
HETATM   12  C   UNL     1     -40.430  52.391 -54.294  1.00  0.00     0.072 A 
HETATM   13  N   UNL     1     -42.413  53.916 -54.196  1.00  0.00    -0.365 N 
HETATM   14  C   UNL     1     -39.531  51.697 -53.495  1.00  0.00     0.118 A 
HETATM   15  C   UNL     1     -39.594  51.756 -52.114  1.00  0.00     0.043 A 
HETATM   16  F   UNL     1     -38.587  50.943 -54.074  1.00  0.00    -0.206 F 
HETATM   17  C   UNL     1     -43.105  54.556 -53.209  1.00  0.00     0.096 A 
HETATM   18  H   UNL     1     -42.625  53.957 -55.186  1.00  0.00     0.165 HD
ENDBRANCH   1   8
BRANCH   4  19
HETATM   19  C   UNL     1     -40.807  58.579 -50.990  1.00  0.00     0.282 C 
BRANCH  19  20
HETATM   20  C   UNL     1     -41.256  59.141 -52.289  1.00  0.00     0.027 A 
HETATM   21  S   UNL     1     -42.419  60.402 -52.373  1.00  0.00    -0.084 SA
HETATM   22  C   UNL     1     -42.290  60.386 -54.084  1.00  0.00     0.166 A 
HETATM   23  N   UNL     1     -41.440  59.519 -54.583  1.00  0.00    -0.265 NA
HETATM   24  C   UNL     1     -40.865  58.790 -53.566  1.00  0.00     0.133 A 
ENDBRANCH  19  20
ENDBRANCH   4  19
TORSDOF 3
ENDMDL
MODEL 2
REMARK VINA RESULT:      -7.8      2.120      2.846
REMARK  3 active torsions:
REMARK  status: ('A' for Active; 'I' for Inactive)
REMARK    1  A    between atoms: C_7  and  C_8 
REMARK    2  A    between atoms: N_11  and  C_13 
REMARK    3  A    between atoms: C_13  and  C_14 
ROOT
HETATM    1  C   UNL     1     -41.035  55.285 -50.664  1.00  0.00     0.024 C 
HETATM    2  C   UNL     1     -42.319  54.892 -49.906  1.00  0.00     0.037 C 
HETATM    3  C   UNL     1     -43.570  55.376 -50.629  1.00  0.00     0.236 C 
HETATM    4  N   UNL     1     -43.529  56.874 -50.838  1.00  0.00    -0.067 N 
HETATM    5  H   UNL     1     -43.592  57.328 -49.917  1.00  0.00     0.280 HD
HETATM    6  C   UNL     1     -42.246  57.351 -51.486  1.00  0.00     0.236 C 
HETATM    7  C   UNL     1     -41.040  56.814 -50.727  1.00  0.00     0.037 C 
ENDROOT
BRANCH   1   8
HETATM    8  C   UNL     1     -40.906  54.566 -52.003  1.00  0.00    -0.026 A 
HETATM    9  C   UNL     1     -40.452  53.227 -52.316  1.00  0.00    -0.001 A 
HETATM   10  C   UNL     1     -40.450  53.103 -53.711  1.00  0.00     0.045 A 
HETATM   11  C   UNL     1     -40.025  52.099 -51.572  1.00  0.00     0.017 A 
HETATM   12  C   UNL     1     -39.999  51.959 -54.383  1.00  0.00     0.072 A 
HETATM   13  N   UNL     1     -40.979  54.257 -54.228  1.00  0.00    -0.365 N 
HETATM   14  C   UNL     1     -39.551  50.895 -53.610  1.00  0.00     0.118 A 
HETATM   15  C   UNL     1     -39.570  50.947 -52.227  1.00  0.00     0.043 A 
HETATM   16  F   UNL     1     -39.101  49.789 -54.217  1.00  0.00    -0.206 F 
HETATM   17  C   UNL     1     -41.264  55.132 -53.219  1.00  0.00     0.096 A 
HETATM   18  H   UNL     1     -41.149  54.419 -55.214  1.00  0.00     0.165 HD
ENDBRANCH   1   8
BRANCH   4  19
HETATM   19  C   UNL     1     -44.763  57.320 -51.611  1.00  0.00     0.282 C 
BRANCH  19  20
HETATM   20  C   UNL     1     -45.183  58.719 -51.337  1.00  0.00     0.027 A 
HETATM   21  S   UNL     1     -45.130  59.931 -52.552  1.00  0.00    -0.084 SA
HETATM   22  C   UNL     1     -45.746  61.067 -51.423  1.00  0.00     0.166 A 
HETATM   23  N   UNL     1     -45.993  60.599 -50.221  1.00  0.00    -0.265 NA
HETATM   24  C   UNL     1     -45.651  59.266 -50.159  1.00  0.00     0.133 A 
ENDBRANCH  19  20
ENDBRANCH   4  19
TORSDOF 3
ENDMDL
MODEL 3
REMARK VINA RESULT:      -7.7      2.416      3.586
REMARK  3 active torsions:
REMARK  status: ('A' for Active; 'I' for Inactive)
REMARK    1  A    between atoms: C_7  and  C_8 
REMARK    2  A    between atoms: N_11  and  C_13 
REMARK    3  A    between atoms: C_13  and  C_14 
ROOT
HETATM    1  C   UNL     1     -41.218  54.841 -54.358  1.00  0.00     0.024 C 
HETATM    2  C   UNL     1     -40.961  56.327 -54.030  1.00  0.00     0.037 C 
HETATM    3  C   UNL     1     -41.749  56.777 -52.805  1.00  0.00     0.236 C 
HETATM    4  N   UNL     1     -43.230  56.536 -52.996  1.00  0.00    -0.067 N 
HETATM    5  H   UNL     1     -43.563  57.163 -53.741  1.00  0.00     0.280 HD
HETATM    6  C   UNL     1     -43.554  55.121 -53.423  1.00  0.00     0.236 C 
HETATM    7  C   UNL     1     -42.719  54.730 -54.635  1.00  0.00     0.037 C 
ENDROOT
BRANCH   1   8
HETATM    8  C   UNL     1     -40.670  53.906 -53.286  1.00  0.00    -0.026 A 
HETATM    9  C   UNL     1     -40.296  52.508 -53.354  1.00  0.00    -0.001 A 
HETATM   10  C   UNL     1     -39.934  52.110 -52.061  1.00  0.00     0.045 A 
HETATM   11  C   UNL     1     -40.236  51.520 -54.369  1.00  0.00     0.017 A 
HETATM   12  C   UNL     1     -39.581  50.795 -51.729  1.00  0.00     0.072 A 
HETATM   13  N   UNL     1     -39.972  53.223 -51.261  1.00  0.00    -0.365 N 
HETATM   14  C   UNL     1     -39.577  49.854 -52.751  1.00  0.00     0.118 A 
HETATM   15  C   UNL     1     -39.885  50.200 -54.055  1.00  0.00     0.043 A 
HETATM   16  F   UNL     1     -39.256  48.584 -52.470  1.00  0.00    -0.206 F 
HETATM   17  C   UNL     1     -40.399  54.300 -51.983  1.00  0.00     0.096 A 
HETATM   18  H   UNL     1     -39.701  53.237 -50.286  1.00  0.00     0.165 HD
ENDBRANCH   1   8
BRANCH   4  19
HETATM   19  C   UNL     1     -43.984  56.944 -51.736  1.00  0.00     0.282 C 
BRANCH  19  20
HETATM   20  C   UNL     1     -44.784  58.186 -51.879  1.00  0.00     0.027 A 
HETATM   21  S   UNL     1     -44.819  59.074 -53.348  1.00  0.00    -0.084 SA
HETATM   22  C   UNL     1     -45.896  60.199 -52.625  1.00  0.00     0.166 A 
HETATM   23  N   UNL     1     -46.230  59.948 -51.380  1.00  0.00    -0.265 NA
HETATM   24  C   UNL     1     -45.581  58.815 -50.942  1.00  0.00     0.133 A 
ENDBRANCH  19  20
ENDBRANCH   4  19
TORSDOF 3
ENDMDL
MODEL 4
REMARK VINA RESULT:      -7.7      1.734      2.275
REMARK  3 active torsions:
REMARK  status: ('A' for Active; 'I' for Inactive)
REMARK    1  A    between atoms: C_7  and  C_8 
REMARK    2  A    between atoms: N_11  and  C_13 
REMARK    3  A    between atoms: C_13  and  C_14 
ROOT
HETATM    1  C   UNL     1     -40.985  55.144 -50.530  1.00  0.00     0.024 C 
HETATM    2  C   UNL     1     -42.301  54.745 -49.832  1.00  0.00     0.037 C 
HETATM    3  C   UNL     1     -43.517  55.305 -50.560  1.00  0.00     0.236 C 
HETATM    4  N   UNL     1     -43.429  56.811 -50.682  1.00  0.00    -0.067 N 
HETATM    5  H   UNL     1     -43.506  57.213 -49.738  1.00  0.00     0.280 HD
HETATM    6  C   UNL     1     -42.115  57.286 -51.265  1.00  0.00     0.236 C 
HETATM    7  C   UNL     1     -40.947  56.673 -50.505  1.00  0.00     0.037 C 
ENDROOT
BRANCH   1   8
HETATM    8  C   UNL     1     -40.836  54.499 -51.904  1.00  0.00    -0.026 A 
HETATM    9  C   UNL     1     -40.413  53.166 -52.281  1.00  0.00    -0.001 A 
HETATM   10  C   UNL     1     -40.371  53.122 -53.680  1.00  0.00     0.045 A 
HETATM   11  C   UNL     1     -40.041  51.985 -51.592  1.00  0.00     0.017 A 
HETATM   12  C   UNL     1     -39.933  52.005 -54.404  1.00  0.00     0.072 A 
HETATM   13  N   UNL     1     -40.850  54.319 -54.145  1.00  0.00    -0.365 N 
HETATM   14  C   UNL     1     -39.540  50.885 -53.681  1.00  0.00     0.118 A 
HETATM   15  C   UNL     1     -39.600  50.858 -52.299  1.00  0.00     0.043 A 
HETATM   16  F   UNL     1     -39.104  49.802 -54.338  1.00  0.00    -0.206 F 
HETATM   17  C   UNL     1     -41.140  55.143 -53.095  1.00  0.00     0.096 A 
HETATM   18  H   UNL     1     -40.985  54.542 -55.123  1.00  0.00     0.165 HD
ENDBRANCH   1   8
BRANCH   4  19
HETATM   19  C   UNL     1     -44.628  57.335 -51.461  1.00  0.00     0.282 C 
BRANCH  19  20
HETATM   20  C   UNL     1     -44.370  57.546 -52.909  1.00  0.00     0.027 A 
HETATM   21  S   UNL     1     -44.133  59.115 -53.565  1.00  0.00    -0.084 SA
HETATM   22  C   UNL     1     -43.918  58.417 -55.118  1.00  0.00     0.166 A 
HETATM   23  N   UNL     1     -44.002  57.107 -55.169  1.00  0.00    -0.265 NA
HETATM   24  C   UNL     1     -44.284  56.607 -53.918  1.00  0.00     0.133 A 
ENDBRANCH  19  20
ENDBRANCH   4  19
TORSDOF 3
ENDMDL
MODEL 5
REMARK VINA RESULT:      -7.5      1.972      3.447
REMARK  3 active torsions:
REMARK  status: ('A' for Active; 'I' for Inactive)
REMARK    1  A    between atoms: C_7  and  C_8 
REMARK    2  A    between atoms: N_11  and  C_13 
REMARK    3  A    between atoms: C_13  and  C_14 
ROOT
HETATM    1  C   UNL     1     -41.472  54.309 -55.039  1.00  0.00     0.024 C 
HETATM    2  C   UNL     1     -41.067  55.796 -55.128  1.00  0.00     0.037 C 
HETATM    3  C   UNL     1     -41.650  56.607 -53.977  1.00  0.00     0.236 C 
HETATM    4  N   UNL     1     -43.157  56.482 -53.935  1.00  0.00    -0.067 N 
HETATM    5  H   UNL     1     -43.540  56.941 -54.773  1.00  0.00     0.280 HD
HETATM    6  C   UNL     1     -43.637  55.046 -53.953  1.00  0.00     0.236 C 
HETATM    7  C   UNL     1     -43.001  54.290 -55.111  1.00  0.00     0.037 C 
ENDROOT
BRANCH   1   8
HETATM    8  C   UNL     1     -40.855  53.609 -53.833  1.00  0.00    -0.026 A 
HETATM    9  C   UNL     1     -40.415  52.240 -53.659  1.00  0.00    -0.001 A 
HETATM   10  C   UNL     1     -40.007  52.100 -52.327  1.00  0.00     0.045 A 
HETATM   11  C   UNL     1     -40.328  51.089 -54.481  1.00  0.00     0.017 A 
HETATM   12  C   UNL     1     -39.581  50.884 -51.774  1.00  0.00     0.072 A 
HETATM   13  N   UNL     1     -40.081  53.336 -51.740  1.00  0.00    -0.365 N 
HETATM   14  C   UNL     1     -39.553  49.774 -52.610  1.00  0.00     0.118 A 
HETATM   15  C   UNL     1     -39.906  49.864 -53.945  1.00  0.00     0.043 A 
HETATM   16  F   UNL     1     -39.164  48.592 -52.115  1.00  0.00    -0.206 F 
HETATM   17  C   UNL     1     -40.576  54.245 -52.631  1.00  0.00     0.096 A 
HETATM   18  H   UNL     1     -39.791  53.540 -50.792  1.00  0.00     0.165 HD
ENDBRANCH   1   8
BRANCH   4  19
HETATM   19  C   UNL     1     -43.705  57.257 -52.744  1.00  0.00     0.282 C 
BRANCH  19  20
HETATM   20  C   UNL     1     -42.670  57.963 -51.946  1.00  0.00     0.027 A 
HETATM   21  S   UNL     1     -42.350  59.636 -52.162  1.00  0.00    -0.084 SA
HETATM   22  C   UNL     1     -41.155  59.550 -50.933  1.00  0.00     0.166 A 
HETATM   23  N   UNL     1     -40.993  58.371 -50.378  1.00  0.00    -0.265 NA
HETATM   24  C   UNL     1     -41.838  57.457 -50.967  1.00  0.00     0.133 A 
ENDBRANCH  19  20
ENDBRANCH   4  19
TORSDOF 3
ENDMDL
MODEL 6
REMARK VINA RESULT:      -7.5      1.765      3.202
REMARK  3 active torsions:
REMARK  status: ('A' for Active; 'I' for Inactive)
REMARK    1  A    between atoms: C_7  and  C_8 
REMARK    2  A    between atoms: N_11  and  C_13 
REMARK    3  A    between atoms: C_13  and  C_14 
ROOT
HETATM    1  C   UNL     1     -43.605  55.011 -54.560  1.00  0.00     0.024 C 
HETATM    2  C   UNL     1     -42.747  55.327 -55.802  1.00  0.00     0.037 C 
HETATM    3  C   UNL     1     -41.918  56.591 -55.607  1.00  0.00     0.236 C 
HETATM    4  N   UNL     1     -42.803  57.772 -55.273  1.00  0.00    -0.067 N 
HETATM    5  H   UNL     1     -43.378  57.985 -56.099  1.00  0.00     0.280 HD
HETATM    6  C   UNL     1     -43.752  57.500 -54.125  1.00  0.00     0.236 C 
HETATM    7  C   UNL     1     -44.530  56.215 -54.375  1.00  0.00     0.037 C 
ENDROOT
BRANCH   1   8
HETATM    8  C   UNL     1     -42.758  54.632 -53.349  1.00  0.00    -0.026 A 
HETATM    9  C   UNL     1     -41.692  53.661 -53.208  1.00  0.00    -0.001 A 
HETATM   10  C   UNL     1     -41.312  53.652 -51.861  1.00  0.00     0.045 A 
HETATM   11  C   UNL     1     -41.010  52.768 -54.072  1.00  0.00     0.017 A 
HETATM   12  C   UNL     1     -40.350  52.779 -51.336  1.00  0.00     0.072 A 
HETATM   13  N   UNL     1     -42.020  54.640 -51.226  1.00  0.00    -0.365 N 
HETATM   14  C   UNL     1     -39.739  51.894 -52.216  1.00  0.00     0.118 A 
HETATM   15  C   UNL     1     -40.046  51.887 -53.565  1.00  0.00     0.043 A 
HETATM   16  F   UNL     1     -38.823  51.035 -51.749  1.00  0.00    -0.206 F 
HETATM   17  C   UNL     1     -42.876  55.237 -52.106  1.00  0.00     0.096 A 
HETATM   18  H   UNL     1     -41.902  54.896 -50.253  1.00  0.00     0.165 HD
ENDBRANCH   1   8
BRANCH   4  19
HETATM   19  C   UNL     1     -41.944  59.006 -55.030  1.00  0.00     0.282 C 
BRANCH  19  20
HETATM   20  C   UNL     1     -41.451  59.142 -53.635  1.00  0.00     0.027 A 
HETATM   21  S   UNL     1     -42.259  60.129 -52.485  1.00  0.00    -0.084 SA
HETATM   22  C   UNL     1     -41.092  59.684 -51.308  1.00  0.00     0.166 A 
HETATM   23  N   UNL     1     -40.161  58.851 -51.715  1.00  0.00    -0.265 NA
HETATM   24  C   UNL     1     -40.347  58.557 -53.047  1.00  0.00     0.133 A 
ENDBRANCH  19  20
ENDBRANCH   4  19
TORSDOF 3
ENDMDL
MODEL 7
REMARK VINA RESULT:      -7.3      1.829      2.463
REMARK  3 active torsions:
REMARK  status: ('A' for Active; 'I' for Inactive)
REMARK    1  A    between atoms: C_7  and  C_8 
REMARK    2  A    between atoms: N_11  and  C_13 
REMARK    3  A    between atoms: C_13  and  C_14 
ROOT
HETATM    1  C   UNL     1     -43.322  54.708 -52.076  1.00  0.00     0.024 C 
HETATM    2  C   UNL     1     -43.316  55.495 -53.404  1.00  0.00     0.037 C 
HETATM    3  C   UNL     1     -42.326  56.653 -53.368  1.00  0.00     0.236 C 
HETATM    4  N   UNL     1     -42.625  57.584 -52.214  1.00  0.00    -0.067 N 
HETATM    5  H   UNL     1     -43.527  58.044 -52.398  1.00  0.00     0.280 HD
HETATM    6  C   UNL     1     -42.751  56.868 -50.886  1.00  0.00     0.236 C 
HETATM    7  C   UNL     1     -43.736  55.713 -50.999  1.00  0.00     0.037 C 
ENDROOT
BRANCH   1   8
HETATM    8  C   UNL     1     -42.008  53.974 -51.829  1.00  0.00    -0.026 A 
HETATM    9  C   UNL     1     -41.259  53.068 -52.675  1.00  0.00    -0.001 A 
HETATM   10  C   UNL     1     -40.166  52.609 -51.929  1.00  0.00     0.045 A 
HETATM   11  C   UNL     1     -41.390  52.567 -53.994  1.00  0.00     0.017 A 
HETATM   12  C   UNL     1     -39.254  51.656 -52.403  1.00  0.00     0.072 A 
HETATM   13  N   UNL     1     -40.173  53.279 -50.733  1.00  0.00    -0.365 N 
HETATM   14  C   UNL     1     -39.450  51.164 -53.687  1.00  0.00     0.118 A 
HETATM   15  C   UNL     1     -40.489  51.613 -54.484  1.00  0.00     0.043 A 
HETATM   16  F   UNL     1     -38.606  50.242 -54.171  1.00  0.00    -0.206 F 
HETATM   17  C   UNL     1     -41.261  54.102 -50.667  1.00  0.00     0.096 A 
HETATM   18  H   UNL     1     -39.461  53.185 -50.019  1.00  0.00     0.165 HD
ENDBRANCH   1   8
BRANCH   4  19
HETATM   19  C   UNL     1     -41.587  58.699 -52.170  1.00  0.00     0.282 C 
BRANCH  19  20
HETATM   20  C   UNL     1     -42.130  60.024 -51.775  1.00  0.00     0.027 A 
HETATM   21  S   UNL     1     -42.894  61.061 -52.910  1.00  0.00    -0.084 SA
HETATM   22  C   UNL     1     -43.165  62.205 -51.659  1.00  0.00     0.166 A 
HETATM   23  N   UNL     1     -42.736  61.857 -50.467  1.00  0.00    -0.265 NA
HETATM   24  C   UNL     1     -42.124  60.625 -50.532  1.00  0.00     0.133 A 
ENDBRANCH  19  20
ENDBRANCH   4  19
TORSDOF 3
ENDMDL
MODEL 8
REMARK VINA RESULT:      -7.1     15.642     17.611
REMARK  3 active torsions:
REMARK  status: ('A' for Active; 'I' for Inactive)
REMARK    1  A    between atoms: C_7  and  C_8 
REMARK    2  A    between atoms: N_11  and  C_13 
REMARK    3  A    between atoms: C_13  and  C_14 
ROOT
HETATM    1  C   UNL     1     -37.480  42.023 -56.510  1.00  0.00     0.024 C 
HETATM    2  C   UNL     1     -38.434  40.816 -56.624  1.00  0.00     0.037 C 
HETATM    3  C   UNL     1     -37.720  39.585 -57.169  1.00  0.00     0.236 C 
HETATM    4  N   UNL     1     -37.087  39.876 -58.512  1.00  0.00    -0.067 N 
HETATM    5  H   UNL     1     -37.841  40.039 -59.193  1.00  0.00     0.280 HD
HETATM    6  C   UNL     1     -36.216  41.114 -58.505  1.00  0.00     0.236 C 
HETATM    7  C   UNL     1     -36.982  42.297 -57.930  1.00  0.00     0.037 C 
ENDROOT
BRANCH   1   8
HETATM    8  C   UNL     1     -36.397  41.812 -55.456  1.00  0.00    -0.026 A 
HETATM    9  C   UNL     1     -36.490  41.352 -54.086  1.00  0.00    -0.001 A 
HETATM   10  C   UNL     1     -35.205  41.424 -53.535  1.00  0.00     0.045 A 
HETATM   11  C   UNL     1     -37.528  40.894 -53.236  1.00  0.00     0.017 A 
HETATM   12  C   UNL     1     -34.922  41.123 -52.195  1.00  0.00     0.072 A 
HETATM   13  N   UNL     1     -34.347  41.796 -54.536  1.00  0.00    -0.365 N 
HETATM   14  C   UNL     1     -35.980  40.718 -51.391  1.00  0.00     0.118 A 
HETATM   15  C   UNL     1     -37.264  40.590 -51.893  1.00  0.00     0.043 A 
HETATM   16  F   UNL     1     -35.752  40.434 -50.102  1.00  0.00    -0.206 F 
HETATM   17  C   UNL     1     -35.045  42.020 -55.688  1.00  0.00     0.096 A 
HETATM   18  H   UNL     1     -33.342  41.870 -54.433  1.00  0.00     0.165 HD
ENDBRANCH   1   8
BRANCH   4  19
HETATM   19  C   UNL     1     -36.336  38.645 -59.004  1.00  0.00     0.282 C 
BRANCH  19  20
HETATM   20  C   UNL     1     -36.334  38.481 -60.480  1.00  0.00     0.027 A 
HETATM   21  S   UNL     1     -37.715  38.854 -61.432  1.00  0.00    -0.084 SA
HETATM   22  C   UNL     1     -36.843  38.410 -62.842  1.00  0.00     0.166 A 
HETATM   23  N   UNL     1     -35.605  38.018 -62.646  1.00  0.00    -0.265 NA
HETATM   24  C   UNL     1     -35.317  38.034 -61.300  1.00  0.00     0.133 A 
ENDBRANCH  19  20
ENDBRANCH   4  19
TORSDOF 3
ENDMDL
MODEL 9
REMARK VINA RESULT:      -7.0      2.858      3.616
REMARK  3 active torsions:
REMARK  status: ('A' for Active; 'I' for Inactive)
REMARK    1  A    between atoms: C_7  and  C_8 
REMARK    2  A    between atoms: N_11  and  C_13 
REMARK    3  A    between atoms: C_13  and  C_14 
ROOT
HETATM    1  C   UNL     1     -41.351  56.620 -52.700  1.00  0.00     0.024 C 
HETATM    2  C   UNL     1     -42.832  56.600 -52.267  1.00  0.00     0.037 C 
HETATM    3  C   UNL     1     -43.769  56.765 -53.458  1.00  0.00     0.236 C 
HETATM    4  N   UNL     1     -43.465  58.041 -54.212  1.00  0.00    -0.067 N 
HETATM    5  H   UNL     1     -43.704  58.836 -53.605  1.00  0.00     0.280 HD
HETATM    6  C   UNL     1     -42.004  58.183 -54.581  1.00  0.00     0.236 C 
HETATM    7  C   UNL     1     -41.126  57.985 -53.353  1.00  0.00     0.037 C 
ENDROOT
BRANCH   1   8
HETATM    8  C   UNL     1     -40.977  55.409 -53.549  1.00  0.00    -0.026 A 
HETATM    9  C   UNL     1     -40.664  54.047 -53.165  1.00  0.00    -0.001 A 
HETATM   10  C   UNL     1     -40.304  53.359 -54.330  1.00  0.00     0.045 A 
HETATM   11  C   UNL     1     -40.629  53.316 -51.952  1.00  0.00     0.017 A 
HETATM   12  C   UNL     1     -39.867  52.027 -54.336  1.00  0.00     0.072 A 
HETATM   13  N   UNL     1     -40.493  54.211 -55.388  1.00  0.00    -0.365 N 
HETATM   14  C   UNL     1     -39.811  51.365 -53.115  1.00  0.00     0.118 A 
HETATM   15  C   UNL     1     -40.195  51.984 -51.938  1.00  0.00     0.043 A 
HETATM   16  F   UNL     1     -39.387  50.095 -53.079  1.00  0.00    -0.206 F 
HETATM   17  C   UNL     1     -40.903  55.432 -54.934  1.00  0.00     0.096 A 
HETATM   18  H   UNL     1     -40.364  53.956 -56.359  1.00  0.00     0.165 HD
ENDBRANCH   1   8
BRANCH   4  19
HETATM   19  C   UNL     1     -44.379  58.151 -55.426  1.00  0.00     0.282 C 
BRANCH  19  20
HETATM   20  C   UNL     1     -43.747  57.738 -56.705  1.00  0.00     0.027 A 
HETATM   21  S   UNL     1     -43.203  58.890 -57.857  1.00  0.00    -0.084 SA
HETATM   22  C   UNL     1     -42.673  57.608 -58.866  1.00  0.00     0.166 A 
HETATM   23  N   UNL     1     -42.866  56.396 -58.397  1.00  0.00    -0.265 NA
HETATM   24  C   UNL     1     -43.500  56.463 -57.176  1.00  0.00     0.133 A 
ENDBRANCH  19  20
ENDBRANCH   4  19
TORSDOF 3
ENDMDL
MODEL 10
REMARK VINA RESULT:      -7.0     15.466     17.250
REMARK  3 active torsions:
REMARK  status: ('A' for Active; 'I' for Inactive)
REMARK    1  A    between atoms: C_7  and  C_8 
REMARK    2  A    between atoms: N_11  and  C_13 
REMARK    3  A    between atoms: C_13  and  C_14 
ROOT
HETATM    1  C   UNL     1     -36.756  41.781 -53.801  1.00  0.00     0.024 C 
HETATM    2  C   UNL     1     -35.583  42.099 -52.851  1.00  0.00     0.037 C 
HETATM    3  C   UNL     1     -34.472  41.062 -52.963  1.00  0.00     0.236 C 
HETATM    4  N   UNL     1     -35.000  39.671 -52.689  1.00  0.00    -0.067 N 
HETATM    5  H   UNL     1     -35.276  39.623 -51.699  1.00  0.00     0.280 HD
HETATM    6  C   UNL     1     -36.222  39.324 -53.513  1.00  0.00     0.236 C 
HETATM    7  C   UNL     1     -37.280  40.409 -53.372  1.00  0.00     0.037 C 
ENDROOT
BRANCH   1   8
HETATM    8  C   UNL     1     -36.367  41.914 -55.270  1.00  0.00    -0.026 A 
HETATM    9  C   UNL     1     -37.026  41.434 -56.468  1.00  0.00    -0.001 A 
HETATM   10  C   UNL     1     -36.199  41.752 -57.553  1.00  0.00     0.045 A 
HETATM   11  C   UNL     1     -38.230  40.746 -56.760  1.00  0.00     0.017 A 
HETATM   12  C   UNL     1     -36.481  41.377 -58.874  1.00  0.00     0.072 A 
HETATM   13  N   UNL     1     -35.148  42.487 -57.069  1.00  0.00    -0.365 N 
HETATM   14  C   UNL     1     -37.654  40.668 -59.103  1.00  0.00     0.118 A 
HETATM   15  C   UNL     1     -38.528  40.362 -58.074  1.00  0.00     0.043 A 
HETATM   16  F   UNL     1     -37.951  40.281 -60.351  1.00  0.00    -0.206 F 
HETATM   17  C   UNL     1     -35.244  42.597 -55.712  1.00  0.00     0.096 A 
HETATM   18  H   UNL     1     -34.424  42.899 -57.644  1.00  0.00     0.165 HD
ENDBRANCH   1   8
BRANCH   4  19
HETATM   19  C   UNL     1     -33.880  38.652 -52.863  1.00  0.00     0.282 C 
BRANCH  19  20
HETATM   20  C   UNL     1     -32.975  38.929 -54.007  1.00  0.00     0.027 A 
HETATM   21  S   UNL     1     -33.411  38.530 -55.620  1.00  0.00    -0.084 SA
HETATM   22  C   UNL     1     -31.913  39.168 -56.165  1.00  0.00     0.166 A 
HETATM   23  N   UNL     1     -31.130  39.659 -55.232  1.00  0.00    -0.265 NA
HETATM   24  C   UNL     1     -31.719  39.504 -53.998  1.00  0.00     0.133 A 
ENDBRANCH  19  20
ENDBRANCH   4  19
TORSDOF 3
ENDMDL
