MODEL 1
REMARK VINA RESULT:      -8.2      0.000      0.000
REMARK  3 active torsions:
REMARK  status: ('A' for Active; 'I' for Inactive)
REMARK    1  A    between atoms: C_8  and  C_9 
REMARK    2  A    between atoms: C_16  and  O_17 
REMARK    3  A    between atoms: C_24  and  N_25 
ROOT
HETATM    1  C   UNL     1     -43.657  54.638 -54.693  1.00  0.00     0.073 C 
HETATM    2  C   UNL     1     -43.971  56.058 -54.403  1.00  0.00     0.062 A 
HETATM    3  N   UNL     1     -45.221  56.525 -54.562  1.00  0.00    -0.177 NA
HETATM    4  N   UNL     1     -45.138  57.826 -54.215  1.00  0.00    -0.256 N 
HETATM    5  H   UNL     1     -45.971  58.401 -54.267  1.00  0.00     0.191 HD
HETATM    6  C   UNL     1     -43.887  58.188 -53.836  1.00  0.00     0.175 A 
HETATM    7  C   UNL     1     -43.100  57.071 -53.936  1.00  0.00     0.034 A 
HETATM    8  C   UNL     1     -41.648  57.147 -53.604  1.00  0.00     0.106 A 
HETATM    9  C   UNL     1     -41.264  58.579 -53.218  1.00  0.00     0.081 A 
HETATM   10  C   UNL     1     -39.883  58.822 -52.966  1.00  0.00     0.100 C 
HETATM   11  N   UNL     1     -38.760  59.032 -52.760  1.00  0.00    -0.191 NA
HETATM   12  C   UNL     1     -42.166  59.599 -53.163  1.00  0.00     0.140 A 
HETATM   13  O   UNL     1     -43.529  59.408 -53.455  1.00  0.00    -0.279 OA
ENDROOT
BRANCH   8  14
HETATM   14  C   UNL     1     -41.399  56.132 -52.482  1.00  0.00    -0.033 A 
HETATM   15  C   UNL     1     -40.888  54.821 -52.738  1.00  0.00    -0.016 A 
HETATM   16  C   UNL     1     -40.696  53.929 -51.642  1.00  0.00     0.008 A 
HETATM   17  C   UNL     1     -40.547  54.342 -54.031  1.00  0.00     0.013 A 
HETATM   18  C   UNL     1     -40.199  52.629 -51.894  1.00  0.00     0.015 A 
HETATM   19  C   UNL     1     -40.994  54.347 -50.321  1.00  0.00     0.079 A 
HETATM   20  C   UNL     1     -39.881  52.194 -53.177  1.00  0.00     0.001 A 
HETATM   21  C   UNL     1     -40.053  53.052 -54.247  1.00  0.00     0.001 A 
HETATM   22  C   UNL     1     -41.452  55.639 -50.085  1.00  0.00     0.038 A 
HETATM   23  C   UNL     1     -41.643  56.518 -51.146  1.00  0.00     0.012 A 
BRANCH  19  24
HETATM   24  O   UNL     1     -40.787  53.421 -49.325  1.00  0.00    -0.355 OA
HETATM   25  C   UNL     1     -40.365  53.896 -48.053  1.00  0.00     0.210 C 
ENDBRANCH  19  24
ENDBRANCH   8  14
BRANCH  12  26
HETATM   26  N   UNL     1     -41.874  60.903 -52.835  1.00  0.00    -0.282 NA
HETATM   27  H   UNL     1     -41.225  61.029 -52.060  1.00  0.00     0.126 HD
HETATM   28  H   UNL     1     -42.709  61.476 -52.754  1.00  0.00     0.126 HD
ENDBRANCH  12  26
TORSDOF 3
ENDMDL
MODEL 2
REMARK VINA RESULT:      -7.8      2.196      2.431
REMARK  3 active torsions:
REMARK  status: ('A' for Active; 'I' for Inactive)
REMARK    1  A    between atoms: C_8  and  C_9 
REMARK    2  A    between atoms: C_16  and  O_17 
REMARK    3  A    between atoms: C_24  and  N_25 
ROOT
HETATM    1  C   UNL     1     -43.062  55.613 -57.341  1.00  0.00     0.073 C 
HETATM    2  C   UNL     1     -43.417  57.029 -57.082  1.00  0.00     0.062 A 
HETATM    3  N   UNL     1     -44.363  57.639 -57.817  1.00  0.00    -0.177 NA
HETATM    4  N   UNL     1     -44.421  58.890 -57.315  1.00  0.00    -0.256 N 
HETATM    5  H   UNL     1     -45.069  59.553 -57.726  1.00  0.00     0.191 HD
HETATM    6  C   UNL     1     -43.556  59.084 -56.289  1.00  0.00     0.175 A 
HETATM    7  C   UNL     1     -42.890  57.901 -56.100  1.00  0.00     0.034 A 
HETATM    8  C   UNL     1     -41.843  57.793 -55.043  1.00  0.00     0.106 A 
HETATM    9  C   UNL     1     -41.663  59.139 -54.333  1.00  0.00     0.081 A 
HETATM   10  C   UNL     1     -40.624  59.211 -53.359  1.00  0.00     0.100 C 
HETATM   11  N   UNL     1     -39.780  59.282 -52.566  1.00  0.00    -0.191 NA
HETATM   12  C   UNL     1     -42.405  60.241 -54.634  1.00  0.00     0.140 A 
HETATM   13  O   UNL     1     -43.404  60.222 -55.624  1.00  0.00    -0.279 OA
ENDROOT
BRANCH   8  14
HETATM   14  C   UNL     1     -42.283  56.667 -54.100  1.00  0.00    -0.033 A 
HETATM   15  C   UNL     1     -41.656  55.382 -54.100  1.00  0.00    -0.016 A 
HETATM   16  C   UNL     1     -42.130  54.382 -53.202  1.00  0.00     0.008 A 
HETATM   17  C   UNL     1     -40.568  55.031 -54.944  1.00  0.00     0.013 A 
HETATM   18  C   UNL     1     -41.516  53.108 -53.206  1.00  0.00     0.015 A 
HETATM   19  C   UNL     1     -43.198  54.668 -52.314  1.00  0.00     0.079 A 
HETATM   20  C   UNL     1     -40.455  52.800 -54.053  1.00  0.00     0.001 A 
HETATM   21  C   UNL     1     -39.979  53.764 -54.921  1.00  0.00     0.001 A 
HETATM   22  C   UNL     1     -43.771  55.936 -52.299  1.00  0.00     0.038 A 
HETATM   23  C   UNL     1     -43.315  56.920 -53.171  1.00  0.00     0.012 A 
BRANCH  19  24
HETATM   24  O   UNL     1     -43.598  53.644 -51.488  1.00  0.00    -0.355 OA
HETATM   25  C   UNL     1     -44.354  53.980 -50.332  1.00  0.00     0.210 C 
ENDBRANCH  19  24
ENDBRANCH   8  14
BRANCH  12  26
HETATM   26  N   UNL     1     -42.277  61.475 -54.037  1.00  0.00    -0.282 NA
HETATM   27  H   UNL     1     -41.337  61.723 -53.734  1.00  0.00     0.126 HD
HETATM   28  H   UNL     1     -42.982  61.632 -53.322  1.00  0.00     0.126 HD
ENDBRANCH  12  26
TORSDOF 3
ENDMDL
MODEL 3
REMARK VINA RESULT:      -7.2      3.306      5.535
REMARK  3 active torsions:
REMARK  status: ('A' for Active; 'I' for Inactive)
REMARK    1  A    between atoms: C_8  and  C_9 
REMARK    2  A    between atoms: C_16  and  O_17 
REMARK    3  A    between atoms: C_24  and  N_25 
ROOT
HETATM    1  C   UNL     1     -44.071  58.967 -55.808  1.00  0.00     0.073 C 
HETATM    2  C   UNL     1     -43.389  57.708 -56.192  1.00  0.00     0.062 A 
HETATM    3  N   UNL     1     -42.955  57.525 -57.451  1.00  0.00    -0.177 NA
HETATM    4  N   UNL     1     -42.398  56.296 -57.438  1.00  0.00    -0.256 N 
HETATM    5  H   UNL     1     -42.004  55.928 -58.295  1.00  0.00     0.191 HD
HETATM    6  C   UNL     1     -42.458  55.707 -56.217  1.00  0.00     0.175 A 
HETATM    7  C   UNL     1     -43.087  56.590 -55.379  1.00  0.00     0.034 A 
HETATM    8  C   UNL     1     -43.327  56.225 -53.952  1.00  0.00     0.106 A 
HETATM    9  C   UNL     1     -42.823  54.805 -53.674  1.00  0.00     0.081 A 
HETATM   10  C   UNL     1     -43.072  54.284 -52.372  1.00  0.00     0.100 C 
HETATM   11  N   UNL     1     -43.273  53.849 -51.314  1.00  0.00    -0.191 NA
HETATM   12  C   UNL     1     -42.212  54.037 -54.620  1.00  0.00     0.140 A 
HETATM   13  O   UNL     1     -41.993  54.498 -55.931  1.00  0.00    -0.279 OA
ENDROOT
BRANCH   8  14
HETATM   14  C   UNL     1     -42.629  57.291 -53.100  1.00  0.00    -0.033 A 
HETATM   15  C   UNL     1     -43.351  58.169 -52.233  1.00  0.00    -0.016 A 
HETATM   16  C   UNL     1     -42.632  59.144 -51.482  1.00  0.00     0.008 A 
HETATM   17  C   UNL     1     -44.761  58.129 -52.059  1.00  0.00     0.013 A 
HETATM   18  C   UNL     1     -43.345  60.018 -50.629  1.00  0.00     0.015 A 
HETATM   19  C   UNL     1     -41.220  59.227 -51.587  1.00  0.00     0.079 A 
HETATM   20  C   UNL     1     -44.728  59.952 -50.490  1.00  0.00     0.001 A 
HETATM   21  C   UNL     1     -45.437  59.004 -51.205  1.00  0.00     0.001 A 
HETATM   22  C   UNL     1     -40.529  58.339 -52.406  1.00  0.00     0.038 A 
HETATM   23  C   UNL     1     -41.221  57.383 -53.142  1.00  0.00     0.012 A 
BRANCH  19  24
HETATM   24  O   UNL     1     -40.607  60.201 -50.835  1.00  0.00    -0.355 OA
HETATM   25  C   UNL     1     -39.322  59.916 -50.299  1.00  0.00     0.210 C 
ENDBRANCH  19  24
ENDBRANCH   8  14
BRANCH  12  26
HETATM   26  N   UNL     1     -41.752  52.754 -54.427  1.00  0.00    -0.282 NA
HETATM   27  H   UNL     1     -41.810  52.402 -53.474  1.00  0.00     0.126 HD
HETATM   28  H   UNL     1     -40.842  52.603 -54.855  1.00  0.00     0.126 HD
ENDBRANCH  12  26
TORSDOF 3
ENDMDL
MODEL 4
REMARK VINA RESULT:      -7.1      1.725      2.906
REMARK  3 active torsions:
REMARK  status: ('A' for Active; 'I' for Inactive)
REMARK    1  A    between atoms: C_8  and  C_9 
REMARK    2  A    between atoms: C_16  and  O_17 
REMARK    3  A    between atoms: C_24  and  N_25 
ROOT
HETATM    1  C   UNL     1     -43.449  56.392 -56.903  1.00  0.00     0.073 C 
HETATM    2  C   UNL     1     -43.938  57.367 -55.899  1.00  0.00     0.062 A 
HETATM    3  N   UNL     1     -45.222  57.763 -55.903  1.00  0.00    -0.177 NA
HETATM    4  N   UNL     1     -45.308  58.633 -54.876  1.00  0.00    -0.256 N 
HETATM    5  H   UNL     1     -46.196  59.081 -54.686  1.00  0.00     0.191 HD
HETATM    6  C   UNL     1     -44.129  58.788 -54.222  1.00  0.00     0.175 A 
HETATM    7  C   UNL     1     -43.216  57.981 -54.849  1.00  0.00     0.034 A 
HETATM    8  C   UNL     1     -41.802  57.941 -54.373  1.00  0.00     0.106 A 
HETATM    9  C   UNL     1     -41.606  58.915 -53.206  1.00  0.00     0.081 A 
HETATM   10  C   UNL     1     -40.278  59.054 -52.709  1.00  0.00     0.100 C 
HETATM   11  N   UNL     1     -39.199  59.177 -52.298  1.00  0.00    -0.191 NA
HETATM   12  C   UNL     1     -42.620  59.662 -52.685  1.00  0.00     0.140 A 
HETATM   13  O   UNL     1     -43.934  59.589 -53.182  1.00  0.00    -0.279 OA
ENDROOT
BRANCH   8  14
HETATM   14  C   UNL     1     -41.502  56.485 -54.001  1.00  0.00    -0.033 A 
HETATM   15  C   UNL     1     -42.095  55.849 -52.866  1.00  0.00    -0.016 A 
HETATM   16  C   UNL     1     -41.757  54.494 -52.578  1.00  0.00     0.008 A 
HETATM   17  C   UNL     1     -43.022  56.484 -51.996  1.00  0.00     0.013 A 
HETATM   18  C   UNL     1     -42.336  53.866 -51.451  1.00  0.00     0.015 A 
HETATM   19  C   UNL     1     -40.856  53.790 -53.416  1.00  0.00     0.079 A 
HETATM   20  C   UNL     1     -43.236  54.524 -50.618  1.00  0.00     0.001 A 
HETATM   21  C   UNL     1     -43.581  55.834 -50.892  1.00  0.00     0.001 A 
HETATM   22  C   UNL     1     -40.318  54.411 -54.540  1.00  0.00     0.038 A 
HETATM   23  C   UNL     1     -40.643  55.732 -54.831  1.00  0.00     0.012 A 
BRANCH  19  24
HETATM   24  O   UNL     1     -40.578  52.491 -53.061  1.00  0.00    -0.355 OA
HETATM   25  C   UNL     1     -40.285  51.566 -54.100  1.00  0.00     0.210 C 
ENDBRANCH  19  24
ENDBRANCH   8  14
BRANCH  12  26
HETATM   26  N   UNL     1     -42.496  60.558 -51.647  1.00  0.00    -0.282 NA
HETATM   27  H   UNL     1     -42.847  60.240 -50.746  1.00  0.00     0.126 HD
HETATM   28  H   UNL     1     -42.824  61.486 -51.899  1.00  0.00     0.126 HD
ENDBRANCH  12  26
TORSDOF 3
ENDMDL
MODEL 5
REMARK VINA RESULT:      -7.1      3.056      5.176
REMARK  3 active torsions:
REMARK  status: ('A' for Active; 'I' for Inactive)
REMARK    1  A    between atoms: C_8  and  C_9 
REMARK    2  A    between atoms: C_16  and  O_17 
REMARK    3  A    between atoms: C_24  and  N_25 
ROOT
HETATM    1  C   UNL     1     -41.528  55.058 -52.856  1.00  0.00     0.073 C 
HETATM    2  C   UNL     1     -42.191  55.059 -54.182  1.00  0.00     0.062 A 
HETATM    3  N   UNL     1     -42.721  53.928 -54.679  1.00  0.00    -0.177 NA
HETATM    4  N   UNL     1     -43.227  54.293 -55.875  1.00  0.00    -0.256 N 
HETATM    5  H   UNL     1     -43.676  53.591 -56.451  1.00  0.00     0.191 HD
HETATM    6  C   UNL     1     -43.043  55.611 -56.141  1.00  0.00     0.175 A 
HETATM    7  C   UNL     1     -42.382  56.146 -55.067  1.00  0.00     0.034 A 
HETATM    8  C   UNL     1     -42.010  57.591 -55.063  1.00  0.00     0.106 A 
HETATM    9  C   UNL     1     -42.435  58.254 -56.378  1.00  0.00     0.081 A 
HETATM   10  C   UNL     1     -42.058  59.617 -56.555  1.00  0.00     0.100 C 
HETATM   11  N   UNL     1     -41.755  60.726 -56.710  1.00  0.00    -0.191 NA
HETATM   12  C   UNL     1     -43.092  57.585 -57.366  1.00  0.00     0.140 A 
HETATM   13  O   UNL     1     -43.436  56.226 -57.250  1.00  0.00    -0.279 OA
ENDROOT
BRANCH   8  14
HETATM   14  C   UNL     1     -42.675  58.214 -53.831  1.00  0.00    -0.033 A 
HETATM   15  C   UNL     1     -41.920  58.699 -52.718  1.00  0.00    -0.016 A 
HETATM   16  C   UNL     1     -42.612  59.253 -51.602  1.00  0.00     0.008 A 
HETATM   17  C   UNL     1     -40.501  58.672 -52.652  1.00  0.00     0.013 A 
HETATM   18  C   UNL     1     -41.866  59.726 -50.497  1.00  0.00     0.015 A 
HETATM   19  C   UNL     1     -44.028  59.332 -51.607  1.00  0.00     0.079 A 
HETATM   20  C   UNL     1     -40.476  59.677 -50.466  1.00  0.00     0.001 A 
HETATM   21  C   UNL     1     -39.792  59.152 -51.547  1.00  0.00     0.001 A 
HETATM   22  C   UNL     1     -44.746  58.892 -52.715  1.00  0.00     0.038 A 
HETATM   23  C   UNL     1     -44.080  58.351 -53.810  1.00  0.00     0.012 A 
BRANCH  19  24
HETATM   24  O   UNL     1     -44.615  59.873 -50.487  1.00  0.00    -0.355 OA
HETATM   25  C   UNL     1     -45.731  60.733 -50.672  1.00  0.00     0.210 C 
ENDBRANCH  19  24
ENDBRANCH   8  14
BRANCH  12  26
HETATM   26  N   UNL     1     -43.486  58.128 -58.569  1.00  0.00    -0.282 NA
HETATM   27  H   UNL     1     -42.781  58.676 -59.058  1.00  0.00     0.126 HD
HETATM   28  H   UNL     1     -44.384  58.598 -58.503  1.00  0.00     0.126 HD
ENDBRANCH  12  26
TORSDOF 3
ENDMDL
MODEL 6
REMARK VINA RESULT:      -7.0     16.643     19.103
REMARK  3 active torsions:
REMARK  status: ('A' for Active; 'I' for Inactive)
REMARK    1  A    between atoms: C_8  and  C_9 
REMARK    2  A    between atoms: C_16  and  O_17 
REMARK    3  A    between atoms: C_24  and  N_25 
ROOT
HETATM    1  C   UNL     1     -32.951  37.715 -58.196  1.00  0.00     0.073 C 
HETATM    2  C   UNL     1     -32.326  38.526 -57.124  1.00  0.00     0.062 A 
HETATM    3  N   UNL     1     -31.017  38.828 -57.175  1.00  0.00    -0.177 NA
HETATM    4  N   UNL     1     -30.799  39.559 -56.063  1.00  0.00    -0.256 N 
HETATM    5  H   UNL     1     -29.862  39.897 -55.875  1.00  0.00     0.191 HD
HETATM    6  C   UNL     1     -31.922  39.735 -55.323  1.00  0.00     0.175 A 
HETATM    7  C   UNL     1     -32.937  39.088 -55.979  1.00  0.00     0.034 A 
HETATM    8  C   UNL     1     -34.313  39.079 -55.403  1.00  0.00     0.106 A 
HETATM    9  C   UNL     1     -34.334  39.819 -54.062  1.00  0.00     0.081 A 
HETATM   10  C   UNL     1     -35.567  39.810 -53.347  1.00  0.00     0.100 C 
HETATM   11  N   UNL     1     -36.566  39.806 -52.756  1.00  0.00    -0.191 NA
HETATM   12  C   UNL     1     -33.232  40.419 -53.529  1.00  0.00     0.140 A 
HETATM   13  O   UNL     1     -31.985  40.407 -54.180  1.00  0.00    -0.279 OA
ENDROOT
BRANCH   8  14
HETATM   14  C   UNL     1     -35.235  39.708 -56.454  1.00  0.00    -0.033 A 
HETATM   15  C   UNL     1     -36.266  38.964 -57.108  1.00  0.00    -0.016 A 
HETATM   16  C   UNL     1     -37.075  39.617 -58.084  1.00  0.00     0.008 A 
HETATM   17  C   UNL     1     -36.550  37.598 -56.840  1.00  0.00     0.013 A 
HETATM   18  C   UNL     1     -38.090  38.880 -58.738  1.00  0.00     0.015 A 
HETATM   19  C   UNL     1     -36.864  40.986 -58.387  1.00  0.00     0.079 A 
HETATM   20  C   UNL     1     -38.334  37.540 -58.453  1.00  0.00     0.001 A 
HETATM   21  C   UNL     1     -37.564  36.899 -57.500  1.00  0.00     0.001 A 
HETATM   22  C   UNL     1     -35.882  41.705 -57.712  1.00  0.00     0.038 A 
HETATM   23  C   UNL     1     -35.088  41.079 -56.757  1.00  0.00     0.012 A 
BRANCH  19  24
HETATM   24  O   UNL     1     -37.682  41.534 -59.347  1.00  0.00    -0.355 OA
HETATM   25  C   UNL     1     -37.234  42.708 -60.010  1.00  0.00     0.210 C 
ENDBRANCH  19  24
ENDBRANCH   8  14
BRANCH  12  26
HETATM   26  N   UNL     1     -33.192  41.086 -52.325  1.00  0.00    -0.282 NA
HETATM   27  H   UNL     1     -33.780  41.914 -52.259  1.00  0.00     0.126 HD
HETATM   28  H   UNL     1     -32.241  41.244 -52.004  1.00  0.00     0.126 HD
ENDBRANCH  12  26
TORSDOF 3
ENDMDL
MODEL 7
REMARK VINA RESULT:      -7.0     15.692     17.952
REMARK  3 active torsions:
REMARK  status: ('A' for Active; 'I' for Inactive)
REMARK    1  A    between atoms: C_8  and  C_9 
REMARK    2  A    between atoms: C_16  and  O_17 
REMARK    3  A    between atoms: C_24  and  N_25 
ROOT
HETATM    1  C   UNL     1     -34.455  38.097 -57.217  1.00  0.00     0.073 C 
HETATM    2  C   UNL     1     -34.325  39.023 -56.066  1.00  0.00     0.062 A 
HETATM    3  N   UNL     1     -33.129  39.228 -55.489  1.00  0.00    -0.177 NA
HETATM    4  N   UNL     1     -33.381  40.108 -54.499  1.00  0.00    -0.256 N 
HETATM    5  H   UNL     1     -32.617  40.410 -53.906  1.00  0.00     0.191 HD
HETATM    6  C   UNL     1     -34.688  40.469 -54.439  1.00  0.00     0.175 A 
HETATM    7  C   UNL     1     -35.334  39.794 -55.442  1.00  0.00     0.034 A 
HETATM    8  C   UNL     1     -36.804  39.963 -55.630  1.00  0.00     0.106 A 
HETATM    9  C   UNL     1     -37.373  40.903 -54.561  1.00  0.00     0.081 A 
HETATM   10  C   UNL     1     -38.786  41.083 -54.559  1.00  0.00     0.100 C 
HETATM   11  N   UNL     1     -39.937  41.235 -54.546  1.00  0.00    -0.191 NA
HETATM   12  C   UNL     1     -36.598  41.506 -53.616  1.00  0.00     0.140 A 
HETATM   13  O   UNL     1     -35.206  41.312 -53.555  1.00  0.00    -0.279 OA
ENDROOT
BRANCH   8  14
HETATM   14  C   UNL     1     -37.010  40.479 -57.058  1.00  0.00    -0.033 A 
HETATM   15  C   UNL     1     -37.601  39.675 -58.083  1.00  0.00    -0.016 A 
HETATM   16  C   UNL     1     -37.746  40.222 -59.391  1.00  0.00     0.008 A 
HETATM   17  C   UNL     1     -38.067  38.349 -57.879  1.00  0.00     0.013 A 
HETATM   18  C   UNL     1     -38.323  39.425 -60.408  1.00  0.00     0.015 A 
HETATM   19  C   UNL     1     -37.323  41.547 -59.663  1.00  0.00     0.079 A 
HETATM   20  C   UNL     1     -38.764  38.126 -60.171  1.00  0.00     0.001 A 
HETATM   21  C   UNL     1     -38.638  37.589 -58.903  1.00  0.00     0.001 A 
HETATM   22  C   UNL     1     -36.786  42.330 -58.645  1.00  0.00     0.038 A 
HETATM   23  C   UNL     1     -36.641  41.807 -57.364  1.00  0.00     0.012 A 
BRANCH  19  24
HETATM   24  O   UNL     1     -37.492  41.992 -60.953  1.00  0.00    -0.355 OA
HETATM   25  C   UNL     1     -37.532  43.395 -61.172  1.00  0.00     0.210 C 
ENDBRANCH  19  24
ENDBRANCH   8  14
BRANCH  12  26
HETATM   26  N   UNL     1     -37.058  42.348 -52.629  1.00  0.00    -0.282 NA
HETATM   27  H   UNL     1     -36.897  43.341 -52.785  1.00  0.00     0.126 HD
HETATM   28  H   UNL     1     -36.782  42.039 -51.700  1.00  0.00     0.126 HD
ENDBRANCH  12  26
TORSDOF 3
ENDMDL
MODEL 8
REMARK VINA RESULT:      -6.9      2.754      5.862
REMARK  3 active torsions:
REMARK  status: ('A' for Active; 'I' for Inactive)
REMARK    1  A    between atoms: C_8  and  C_9 
REMARK    2  A    between atoms: C_16  and  O_17 
REMARK    3  A    between atoms: C_24  and  N_25 
ROOT
HETATM    1  C   UNL     1     -44.574  55.592 -54.625  1.00  0.00     0.073 C 
HETATM    2  C   UNL     1     -43.376  54.739 -54.440  1.00  0.00     0.062 A 
HETATM    3  N   UNL     1     -42.960  53.927 -55.427  1.00  0.00    -0.177 NA
HETATM    4  N   UNL     1     -41.869  53.316 -54.920  1.00  0.00    -0.256 N 
HETATM    5  H   UNL     1     -41.380  52.635 -55.489  1.00  0.00     0.191 HD
HETATM    6  C   UNL     1     -41.581  53.722 -53.658  1.00  0.00     0.175 A 
HETATM    7  C   UNL     1     -42.529  54.649 -53.311  1.00  0.00     0.034 A 
HETATM    8  C   UNL     1     -42.499  55.279 -51.958  1.00  0.00     0.106 A 
HETATM    9  C   UNL     1     -41.348  54.700 -51.128  1.00  0.00     0.081 A 
HETATM   10  C   UNL     1     -41.255  55.141 -49.776  1.00  0.00     0.100 C 
HETATM   11  N   UNL     1     -41.171  55.492 -48.672  1.00  0.00    -0.191 NA
HETATM   12  C   UNL     1     -40.478  53.771 -51.613  1.00  0.00     0.140 A 
HETATM   13  O   UNL     1     -40.568  53.274 -52.926  1.00  0.00    -0.279 OA
ENDROOT
BRANCH   8  14
HETATM   14  C   UNL     1     -42.383  56.791 -52.178  1.00  0.00    -0.033 A 
HETATM   15  C   UNL     1     -43.403  57.703 -51.761  1.00  0.00    -0.016 A 
HETATM   16  C   UNL     1     -43.228  59.095 -52.013  1.00  0.00     0.008 A 
HETATM   17  C   UNL     1     -44.593  57.310 -51.093  1.00  0.00     0.013 A 
HETATM   18  C   UNL     1     -44.239  59.998 -51.608  1.00  0.00     0.015 A 
HETATM   19  C   UNL     1     -42.054  59.564 -52.655  1.00  0.00     0.079 A 
HETATM   20  C   UNL     1     -45.395  59.574 -50.960  1.00  0.00     0.001 A 
HETATM   21  C   UNL     1     -45.571  58.227 -50.701  1.00  0.00     0.001 A 
HETATM   22  C   UNL     1     -41.054  58.667 -53.019  1.00  0.00     0.038 A 
HETATM   23  C   UNL     1     -41.213  57.306 -52.777  1.00  0.00     0.012 A 
BRANCH  19  24
HETATM   24  O   UNL     1     -41.971  60.920 -52.866  1.00  0.00    -0.355 OA
HETATM   25  C   UNL     1     -42.594  61.451 -54.029  1.00  0.00     0.210 C 
ENDBRANCH  19  24
ENDBRANCH   8  14
BRANCH  12  26
HETATM   26  N   UNL     1     -39.436  53.211 -50.907  1.00  0.00    -0.282 NA
HETATM   27  H   UNL     1     -39.112  52.306 -51.242  1.00  0.00     0.126 HD
HETATM   28  H   UNL     1     -39.595  53.233 -49.904  1.00  0.00     0.126 HD
ENDBRANCH  12  26
TORSDOF 3
ENDMDL
MODEL 9
REMARK VINA RESULT:      -6.8      3.194      6.756
REMARK  3 active torsions:
REMARK  status: ('A' for Active; 'I' for Inactive)
REMARK    1  A    between atoms: C_8  and  C_9 
REMARK    2  A    between atoms: C_16  and  O_17 
REMARK    3  A    between atoms: C_24  and  N_25 
ROOT
HETATM    1  C   UNL     1     -40.783  58.860 -50.537  1.00  0.00     0.073 C 
HETATM    2  C   UNL     1     -41.259  57.519 -50.954  1.00  0.00     0.062 A 
HETATM    3  N   UNL     1     -40.794  56.413 -50.349  1.00  0.00    -0.177 NA
HETATM    4  N   UNL     1     -41.430  55.399 -50.970  1.00  0.00    -0.256 N 
HETATM    5  H   UNL     1     -41.229  54.447 -50.686  1.00  0.00     0.191 HD
HETATM    6  C   UNL     1     -42.283  55.828 -51.934  1.00  0.00     0.175 A 
HETATM    7  C   UNL     1     -42.209  57.197 -51.952  1.00  0.00     0.034 A 
HETATM    8  C   UNL     1     -43.023  57.977 -52.929  1.00  0.00     0.106 A 
HETATM    9  C   UNL     1     -43.826  57.031 -53.827  1.00  0.00     0.081 A 
HETATM   10  C   UNL     1     -44.581  57.635 -54.875  1.00  0.00     0.100 C 
HETATM   11  N   UNL     1     -45.197  58.116 -55.732  1.00  0.00    -0.191 NA
HETATM   12  C   UNL     1     -43.798  55.675 -53.690  1.00  0.00     0.140 A 
HETATM   13  O   UNL     1     -43.026  55.040 -52.700  1.00  0.00    -0.279 OA
ENDROOT
BRANCH   8  14
HETATM   14  C   UNL     1     -43.905  58.925 -52.109  1.00  0.00    -0.033 A 
HETATM   15  C   UNL     1     -43.877  60.343 -52.291  1.00  0.00    -0.016 A 
HETATM   16  C   UNL     1     -44.718  61.160 -51.481  1.00  0.00     0.008 A 
HETATM   17  C   UNL     1     -43.059  61.003 -53.247  1.00  0.00     0.013 A 
HETATM   18  C   UNL     1     -44.685  62.564 -51.655  1.00  0.00     0.015 A 
HETATM   19  C   UNL     1     -45.578  60.570 -50.521  1.00  0.00     0.079 A 
HETATM   20  C   UNL     1     -43.865  63.175 -52.599  1.00  0.00     0.001 A 
HETATM   21  C   UNL     1     -43.052  62.392 -53.398  1.00  0.00     0.001 A 
HETATM   22  C   UNL     1     -45.622  59.185 -50.384  1.00  0.00     0.038 A 
HETATM   23  C   UNL     1     -44.806  58.378 -51.171  1.00  0.00     0.012 A 
BRANCH  19  24
HETATM   24  O   UNL     1     -46.348  61.432 -49.777  1.00  0.00    -0.355 OA
HETATM   25  C   UNL     1     -45.990  61.639 -48.417  1.00  0.00     0.210 C 
ENDBRANCH  19  24
ENDBRANCH   8  14
BRANCH  12  26
HETATM   26  N   UNL     1     -44.490  54.781 -54.475  1.00  0.00    -0.282 NA
HETATM   27  H   UNL     1     -44.453  54.953 -55.478  1.00  0.00     0.126 HD
HETATM   28  H   UNL     1     -45.432  54.615 -54.132  1.00  0.00     0.126 HD
ENDBRANCH  12  26
TORSDOF 3
ENDMDL
MODEL 10
REMARK VINA RESULT:      -6.6      3.712      7.093
REMARK  3 active torsions:
REMARK  status: ('A' for Active; 'I' for Inactive)
REMARK    1  A    between atoms: C_8  and  C_9 
REMARK    2  A    between atoms: C_16  and  O_17 
REMARK    3  A    between atoms: C_24  and  N_25 
ROOT
HETATM    1  C   UNL     1     -42.124  60.480 -56.356  1.00  0.00     0.073 C 
HETATM    2  C   UNL     1     -42.404  59.934 -55.005  1.00  0.00     0.062 A 
HETATM    3  N   UNL     1     -42.363  60.735 -53.926  1.00  0.00    -0.177 NA
HETATM    4  N   UNL     1     -42.661  59.920 -52.894  1.00  0.00    -0.256 N 
HETATM    5  H   UNL     1     -42.680  60.304 -51.956  1.00  0.00     0.191 HD
HETATM    6  C   UNL     1     -42.895  58.642 -53.286  1.00  0.00     0.175 A 
HETATM    7  C   UNL     1     -42.746  58.609 -54.648  1.00  0.00     0.034 A 
HETATM    8  C   UNL     1     -42.921  57.325 -55.388  1.00  0.00     0.106 A 
HETATM    9  C   UNL     1     -43.221  56.184 -54.411  1.00  0.00     0.081 A 
HETATM   10  C   UNL     1     -43.318  54.877 -54.969  1.00  0.00     0.100 C 
HETATM   11  N   UNL     1     -43.398  53.807 -55.414  1.00  0.00    -0.191 NA
HETATM   12  C   UNL     1     -43.340  56.371 -53.067  1.00  0.00     0.140 A 
HETATM   13  O   UNL     1     -43.200  57.639 -52.472  1.00  0.00    -0.279 OA
ENDROOT
BRANCH   8  14
HETATM   14  C   UNL     1     -44.039  57.555 -56.410  1.00  0.00    -0.033 A 
HETATM   15  C   UNL     1     -43.913  57.168 -57.781  1.00  0.00    -0.016 A 
HETATM   16  C   UNL     1     -44.993  57.427 -58.674  1.00  0.00     0.008 A 
HETATM   17  C   UNL     1     -42.768  56.523 -58.320  1.00  0.00     0.013 A 
HETATM   18  C   UNL     1     -44.867  57.051 -60.032  1.00  0.00     0.015 A 
HETATM   19  C   UNL     1     -46.178  58.047 -58.202  1.00  0.00     0.079 A 
HETATM   20  C   UNL     1     -43.725  56.426 -60.524  1.00  0.00     0.001 A 
HETATM   21  C   UNL     1     -42.675  56.159 -59.666  1.00  0.00     0.001 A 
HETATM   22  C   UNL     1     -46.300  58.382 -56.856  1.00  0.00     0.038 A 
HETATM   23  C   UNL     1     -45.252  58.132 -55.976  1.00  0.00     0.012 A 
BRANCH  19  24
HETATM   24  O   UNL     1     -47.166  58.268 -59.132  1.00  0.00    -0.355 OA
HETATM   25  C   UNL     1     -47.549  59.612 -59.389  1.00  0.00     0.210 C 
ENDBRANCH  19  24
ENDBRANCH   8  14
BRANCH  12  26
HETATM   26  N   UNL     1     -43.596  55.382 -52.145  1.00  0.00    -0.282 NA
HETATM   27  H   UNL     1     -42.874  55.233 -51.443  1.00  0.00     0.126 HD
HETATM   28  H   UNL     1     -43.912  54.520 -52.582  1.00  0.00     0.126 HD
ENDBRANCH  12  26
TORSDOF 3
ENDMDL
