MODEL 1
REMARK VINA RESULT:      -8.4      0.000      0.000
REMARK  9 active torsions:
REMARK  status: ('A' for Active; 'I' for Inactive)
REMARK    1  A    between atoms: C_5  and  C_6 
REMARK    2  A    between atoms: C_8  and  C_9 
REMARK    3  A    between atoms: C_9  and  C_10 
REMARK       I    between atoms: C_10  and  N_11 
REMARK    4  A    between atoms: N_11  and  C_12 
REMARK    5  A    between atoms: C_12  and  C_13 
REMARK    6  A    between atoms: C_13  and  N_14 
REMARK    7  A    between atoms: C_28  and  C_29 
REMARK    8  A    between atoms: C_29  and  O_30 
REMARK    9  A    between atoms: O_30  and  C_31 
ROOT
HETATM    1  C   UNL     1     -41.009  56.801 -53.134  1.00  0.00     0.166 C 
HETATM    2  N   UNL     1     -41.947  57.593 -53.952  1.00  0.00    -0.319 N 
HETATM    3  C   UNL     1     -43.028  57.472 -54.648  1.00  0.00     0.011 C 
HETATM    4  C   UNL     1     -41.495  59.077 -53.894  1.00  0.00     0.170 C 
HETATM    5  S   UNL     1     -42.069  59.956 -55.261  1.00  0.00    -0.086 SA
HETATM    6  C   UNL     1     -43.311  58.650 -55.574  1.00  0.00     0.135 C 
HETATM    7  N   UNL     1     -40.888  59.585 -52.875  1.00  0.00    -0.229 NA
HETATM    8  C   UNL     1     -40.814  58.790 -51.728  1.00  0.00     0.048 C 
HETATM    9  C   UNL     1     -40.737  59.591 -50.449  1.00  0.00     0.071 C 
HETATM   10  C   UNL     1     -40.940  57.439 -51.786  1.00  0.00     0.069 C 
ENDROOT
BRANCH   3  11
HETATM   11  C   UNL     1     -43.931  56.274 -54.533  1.00  0.00     0.156 C 
BRANCH  11  12
HETATM   12  C   UNL     1     -43.642  55.201 -55.580  1.00  0.00     0.223 C 
HETATM   13  N   UNL     1     -43.360  55.668 -56.836  1.00  0.00    -0.359 N 
HETATM   14  H   UNL     1     -43.438  56.671 -56.995  1.00  0.00     0.162 HD
HETATM   15  O   UNL     1     -43.651  54.002 -55.316  1.00  0.00    -0.273 OA
BRANCH  13  16
HETATM   16  C   UNL     1     -43.318  54.856 -58.061  1.00  0.00     0.150 C 
BRANCH  16  17
HETATM   17  C   UNL     1     -43.672  55.530 -59.410  1.00  0.00     0.254 C 
BRANCH  17  18
HETATM   18  N   UNL     1     -45.056  56.159 -59.445  1.00  0.00    -0.070 N 
HETATM   19  H   UNL     1     -45.576  55.717 -58.662  1.00  0.00     0.279 HD
HETATM   20  C   UNL     1     -45.068  57.652 -59.212  1.00  0.00     0.235 C 
HETATM   21  C   UNL     1     -46.507  58.142 -59.117  1.00  0.00     0.028 C 
HETATM   22  C   UNL     1     -47.307  57.782 -60.361  1.00  0.00     0.003 C 
HETATM   23  C   UNL     1     -47.229  56.289 -60.648  1.00  0.00     0.028 C 
HETATM   24  C   UNL     1     -45.789  55.800 -60.723  1.00  0.00     0.235 C 
ENDBRANCH  17  18
ENDBRANCH  16  17
ENDBRANCH  13  16
ENDBRANCH  11  12
ENDBRANCH   3  11
BRANCH   1  25
HETATM   25  C   UNL     1     -40.909  55.326 -53.485  1.00  0.00    -0.030 A 
HETATM   26  C   UNL     1     -40.261  54.994 -54.702  1.00  0.00     0.010 A 
HETATM   27  C   UNL     1     -40.001  53.671 -55.065  1.00  0.00     0.007 A 
HETATM   28  C   UNL     1     -40.387  52.627 -54.231  1.00  0.00    -0.062 A 
HETATM   29  C   UNL     1     -40.000  51.211 -54.547  1.00  0.00     0.048 C 
HETATM   30  C   UNL     1     -41.060  52.932 -53.044  1.00  0.00     0.007 A 
HETATM   31  C   UNL     1     -41.332  54.261 -52.684  1.00  0.00     0.010 A 
ENDBRANCH   1  25
BRANCH  10  32
HETATM   32  C   UNL     1     -41.250  56.674 -50.584  1.00  0.00     0.294 C 
HETATM   33  O   UNL     1     -40.392  55.978 -50.064  1.00  0.00    -0.259 OA
BRANCH  32  34
HETATM   34  O   UNL     1     -42.522  56.877 -50.207  1.00  0.00    -0.313 OA
BRANCH  34  35
HETATM   35  C   UNL     1     -43.610  56.301 -50.973  1.00  0.00     0.124 C 
HETATM   36  C   UNL     1     -44.075  54.957 -50.419  1.00  0.00     0.040 C 
HETATM   37  C   UNL     1     -44.753  57.295 -51.147  1.00  0.00     0.040 C 
ENDBRANCH  34  35
ENDBRANCH  32  34
ENDBRANCH  10  32
TORSDOF 9
ENDMDL
MODEL 2
REMARK VINA RESULT:      -8.3      1.457      2.190
REMARK  9 active torsions:
REMARK  status: ('A' for Active; 'I' for Inactive)
REMARK    1  A    between atoms: C_5  and  C_6 
REMARK    2  A    between atoms: C_8  and  C_9 
REMARK    3  A    between atoms: C_9  and  C_10 
REMARK       I    between atoms: C_10  and  N_11 
REMARK    4  A    between atoms: N_11  and  C_12 
REMARK    5  A    between atoms: C_12  and  C_13 
REMARK    6  A    between atoms: C_13  and  N_14 
REMARK    7  A    between atoms: C_28  and  C_29 
REMARK    8  A    between atoms: C_29  and  O_30 
REMARK    9  A    between atoms: O_30  and  C_31 
ROOT
HETATM    1  C   UNL     1     -41.166  56.773 -53.182  1.00  0.00     0.166 C 
HETATM    2  N   UNL     1     -41.987  57.602 -54.084  1.00  0.00    -0.319 N 
HETATM    3  C   UNL     1     -42.984  57.519 -54.902  1.00  0.00     0.011 C 
HETATM    4  C   UNL     1     -41.515  59.074 -53.942  1.00  0.00     0.170 C 
HETATM    5  S   UNL     1     -41.910  59.992 -55.346  1.00  0.00    -0.086 SA
HETATM    6  C   UNL     1     -43.134  58.720 -55.828  1.00  0.00     0.135 C 
HETATM    7  N   UNL     1     -41.019  59.547 -52.849  1.00  0.00    -0.229 NA
HETATM    8  C   UNL     1     -41.094  58.729 -51.719  1.00  0.00     0.048 C 
HETATM    9  C   UNL     1     -41.148  59.502 -50.422  1.00  0.00     0.071 C 
HETATM   10  C   UNL     1     -41.240  57.382 -51.821  1.00  0.00     0.069 C 
ENDROOT
BRANCH   3  11
HETATM   11  C   UNL     1     -43.918  56.340 -54.918  1.00  0.00     0.156 C 
BRANCH  11  12
HETATM   12  C   UNL     1     -43.605  55.340 -56.029  1.00  0.00     0.223 C 
HETATM   13  N   UNL     1     -43.501  55.874 -57.286  1.00  0.00    -0.359 N 
HETATM   14  H   UNL     1     -43.711  56.864 -57.397  1.00  0.00     0.162 HD
HETATM   15  O   UNL     1     -43.448  54.142 -55.814  1.00  0.00    -0.273 OA
BRANCH  13  16
HETATM   16  C   UNL     1     -43.480  55.108 -58.541  1.00  0.00     0.150 C 
BRANCH  16  17
HETATM   17  C   UNL     1     -43.223  55.867 -59.868  1.00  0.00     0.254 C 
BRANCH  17  18
HETATM   18  N   UNL     1     -43.218  57.380 -59.726  1.00  0.00    -0.070 N 
HETATM   19  H   UNL     1     -43.178  57.558 -58.703  1.00  0.00     0.279 HD
HETATM   20  C   UNL     1     -42.024  58.061 -60.353  1.00  0.00     0.235 C 
HETATM   21  C   UNL     1     -42.049  59.546 -60.017  1.00  0.00     0.028 C 
HETATM   22  C   UNL     1     -43.345  60.204 -60.470  1.00  0.00     0.003 C 
HETATM   23  C   UNL     1     -44.555  59.469 -59.908  1.00  0.00     0.028 C 
HETATM   24  C   UNL     1     -44.515  57.981 -60.230  1.00  0.00     0.235 C 
ENDBRANCH  17  18
ENDBRANCH  16  17
ENDBRANCH  13  16
ENDBRANCH  11  12
ENDBRANCH   3  11
BRANCH   1  25
HETATM   25  C   UNL     1     -41.056  55.303 -53.552  1.00  0.00    -0.030 A 
HETATM   26  C   UNL     1     -40.202  54.971 -54.634  1.00  0.00     0.010 A 
HETATM   27  C   UNL     1     -39.928  53.646 -54.982  1.00  0.00     0.007 A 
HETATM   28  C   UNL     1     -40.504  52.601 -54.266  1.00  0.00    -0.062 A 
HETATM   29  C   UNL     1     -40.116  51.178 -54.546  1.00  0.00     0.048 C 
HETATM   30  C   UNL     1     -41.377  52.908 -53.219  1.00  0.00     0.007 A 
HETATM   31  C   UNL     1     -41.662  54.238 -52.877  1.00  0.00     0.010 A 
ENDBRANCH   1  25
BRANCH  10  32
HETATM   32  C   UNL     1     -41.702  56.601 -50.680  1.00  0.00     0.294 C 
HETATM   33  O   UNL     1     -42.898  56.456 -50.482  1.00  0.00    -0.259 OA
BRANCH  32  34
HETATM   34  O   UNL     1     -40.661  56.121 -49.981  1.00  0.00    -0.313 OA
BRANCH  34  35
HETATM   35  C   UNL     1     -40.586  54.708 -49.664  1.00  0.00     0.124 C 
HETATM   36  C   UNL     1     -39.363  54.029 -50.276  1.00  0.00     0.040 C 
HETATM   37  C   UNL     1     -40.703  54.470 -48.162  1.00  0.00     0.040 C 
ENDBRANCH  34  35
ENDBRANCH  32  34
ENDBRANCH  10  32
TORSDOF 9
ENDMDL
MODEL 3
REMARK VINA RESULT:      -7.8      2.152      3.213
REMARK  9 active torsions:
REMARK  status: ('A' for Active; 'I' for Inactive)
REMARK    1  A    between atoms: C_5  and  C_6 
REMARK    2  A    between atoms: C_8  and  C_9 
REMARK    3  A    between atoms: C_9  and  C_10 
REMARK       I    between atoms: C_10  and  N_11 
REMARK    4  A    between atoms: N_11  and  C_12 
REMARK    5  A    between atoms: C_12  and  C_13 
REMARK    6  A    between atoms: C_13  and  N_14 
REMARK    7  A    between atoms: C_28  and  C_29 
REMARK    8  A    between atoms: C_29  and  O_30 
REMARK    9  A    between atoms: O_30  and  C_31 
ROOT
HETATM    1  C   UNL     1     -42.070  57.085 -54.884  1.00  0.00     0.166 C 
HETATM    2  N   UNL     1     -42.290  57.646 -56.230  1.00  0.00    -0.319 N 
HETATM    3  C   UNL     1     -42.651  57.299 -57.420  1.00  0.00     0.011 C 
HETATM    4  C   UNL     1     -42.060  59.180 -56.151  1.00  0.00     0.170 C 
HETATM    5  S   UNL     1     -41.652  59.828 -57.695  1.00  0.00    -0.086 SA
HETATM    6  C   UNL     1     -42.324  58.327 -58.497  1.00  0.00     0.135 C 
HETATM    7  N   UNL     1     -42.289  59.868 -55.083  1.00  0.00    -0.229 NA
HETATM    8  C   UNL     1     -42.938  59.206 -54.037  1.00  0.00     0.048 C 
HETATM    9  C   UNL     1     -43.752  60.129 -53.159  1.00  0.00     0.071 C 
HETATM   10  C   UNL     1     -42.927  57.852 -53.932  1.00  0.00     0.069 C 
ENDROOT
BRANCH   3  11
HETATM   11  C   UNL     1     -43.349  55.997 -57.704  1.00  0.00     0.156 C 
BRANCH  11  12
HETATM   12  C   UNL     1     -43.801  55.861 -59.156  1.00  0.00     0.223 C 
HETATM   13  N   UNL     1     -45.111  56.181 -59.395  1.00  0.00    -0.359 N 
HETATM   14  H   UNL     1     -45.696  56.407 -58.592  1.00  0.00     0.162 HD
HETATM   15  O   UNL     1     -43.044  55.500 -60.052  1.00  0.00    -0.273 OA
BRANCH  13  16
HETATM   16  C   UNL     1     -45.854  55.879 -60.627  1.00  0.00     0.150 C 
BRANCH  16  17
HETATM   17  C   UNL     1     -47.347  56.287 -60.712  1.00  0.00     0.254 C 
BRANCH  17  18
HETATM   18  N   UNL     1     -47.655  57.280 -61.821  1.00  0.00    -0.070 N 
HETATM   19  H   UNL     1     -46.817  57.272 -62.436  1.00  0.00     0.279 HD
HETATM   20  C   UNL     1     -48.847  56.912 -62.674  1.00  0.00     0.235 C 
HETATM   21  C   UNL     1     -48.965  57.890 -63.835  1.00  0.00     0.028 C 
HETATM   22  C   UNL     1     -49.071  59.330 -63.351  1.00  0.00     0.003 C 
HETATM   23  C   UNL     1     -47.915  59.680 -62.423  1.00  0.00     0.028 C 
HETATM   24  C   UNL     1     -47.789  58.688 -61.274  1.00  0.00     0.235 C 
ENDBRANCH  17  18
ENDBRANCH  16  17
ENDBRANCH  13  16
ENDBRANCH  11  12
ENDBRANCH   3  11
BRANCH   1  25
HETATM   25  C   UNL     1     -41.691  55.614 -54.835  1.00  0.00    -0.030 A 
HETATM   26  C   UNL     1     -40.307  55.303 -54.848  1.00  0.00     0.010 A 
HETATM   27  C   UNL     1     -39.841  53.997 -54.681  1.00  0.00     0.007 A 
HETATM   28  C   UNL     1     -40.739  52.950 -54.505  1.00  0.00    -0.062 A 
HETATM   29  C   UNL     1     -40.248  51.564 -54.196  1.00  0.00     0.048 C 
HETATM   30  C   UNL     1     -42.108  53.231 -54.526  1.00  0.00     0.007 A 
HETATM   31  C   UNL     1     -42.578  54.541 -54.705  1.00  0.00     0.010 A 
ENDBRANCH   1  25
BRANCH  10  32
HETATM   32  C   UNL     1     -43.904  57.168 -53.093  1.00  0.00     0.294 C 
HETATM   33  O   UNL     1     -44.973  56.813 -53.566  1.00  0.00    -0.259 OA
BRANCH  32  34
HETATM   34  O   UNL     1     -43.436  57.020 -51.844  1.00  0.00    -0.313 OA
BRANCH  34  35
HETATM   35  C   UNL     1     -42.737  55.807 -51.468  1.00  0.00     0.124 C 
HETATM   36  C   UNL     1     -41.415  56.084 -50.756  1.00  0.00     0.040 C 
HETATM   37  C   UNL     1     -43.643  54.865 -50.683  1.00  0.00     0.040 C 
ENDBRANCH  34  35
ENDBRANCH  32  34
ENDBRANCH  10  32
TORSDOF 9
ENDMDL
MODEL 4
REMARK VINA RESULT:      -7.6      3.605      7.227
REMARK  9 active torsions:
REMARK  status: ('A' for Active; 'I' for Inactive)
REMARK    1  A    between atoms: C_5  and  C_6 
REMARK    2  A    between atoms: C_8  and  C_9 
REMARK    3  A    between atoms: C_9  and  C_10 
REMARK       I    between atoms: C_10  and  N_11 
REMARK    4  A    between atoms: N_11  and  C_12 
REMARK    5  A    between atoms: C_12  and  C_13 
REMARK    6  A    between atoms: C_13  and  N_14 
REMARK    7  A    between atoms: C_28  and  C_29 
REMARK    8  A    between atoms: C_29  and  O_30 
REMARK    9  A    between atoms: O_30  and  C_31 
ROOT
HETATM    1  C   UNL     1     -41.912  56.423 -52.275  1.00  0.00     0.166 C 
HETATM    2  N   UNL     1     -42.228  57.708 -51.623  1.00  0.00    -0.319 N 
HETATM    3  C   UNL     1     -43.098  58.662 -51.645  1.00  0.00     0.011 C 
HETATM    4  C   UNL     1     -41.184  57.943 -50.498  1.00  0.00     0.170 C 
HETATM    5  S   UNL     1     -41.039  59.618 -50.123  1.00  0.00    -0.086 SA
HETATM    6  C   UNL     1     -42.648  59.934 -50.935  1.00  0.00     0.135 C 
HETATM    7  N   UNL     1     -40.619  56.976 -49.855  1.00  0.00    -0.229 NA
HETATM    8  C   UNL     1     -41.123  55.693 -50.080  1.00  0.00     0.048 C 
HETATM    9  C   UNL     1     -40.941  54.763 -48.902  1.00  0.00     0.071 C 
HETATM   10  C   UNL     1     -41.822  55.387 -51.204  1.00  0.00     0.069 C 
ENDROOT
BRANCH   3  11
HETATM   11  C   UNL     1     -44.442  58.513 -52.304  1.00  0.00     0.156 C 
BRANCH  11  12
HETATM   12  C   UNL     1     -45.548  59.291 -51.595  1.00  0.00     0.223 C 
HETATM   13  N   UNL     1     -45.990  60.411 -52.249  1.00  0.00    -0.359 N 
HETATM   14  H   UNL     1     -45.505  60.680 -53.104  1.00  0.00     0.162 HD
HETATM   15  O   UNL     1     -46.019  58.936 -50.519  1.00  0.00    -0.273 OA
BRANCH  13  16
HETATM   16  C   UNL     1     -46.834  61.464 -51.667  1.00  0.00     0.150 C 
BRANCH  16  17
HETATM   17  C   UNL     1     -46.193  62.461 -50.668  1.00  0.00     0.254 C 
BRANCH  17  18
HETATM   18  N   UNL     1     -46.162  61.965 -49.231  1.00  0.00    -0.070 N 
HETATM   19  H   UNL     1     -46.606  61.026 -49.257  1.00  0.00     0.279 HD
HETATM   20  C   UNL     1     -44.773  61.794 -48.661  1.00  0.00     0.235 C 
HETATM   21  C   UNL     1     -44.863  61.152 -47.282  1.00  0.00     0.028 C 
HETATM   22  C   UNL     1     -45.738  61.966 -46.339  1.00  0.00     0.003 C 
HETATM   23  C   UNL     1     -47.113  62.212 -46.947  1.00  0.00     0.028 C 
HETATM   24  C   UNL     1     -47.017  62.836 -48.332  1.00  0.00     0.235 C 
ENDBRANCH  17  18
ENDBRANCH  16  17
ENDBRANCH  13  16
ENDBRANCH  11  12
ENDBRANCH   3  11
BRANCH   1  25
HETATM   25  C   UNL     1     -42.413  56.264 -53.701  1.00  0.00    -0.030 A 
HETATM   26  C   UNL     1     -41.842  57.111 -54.684  1.00  0.00     0.010 A 
HETATM   27  C   UNL     1     -42.133  56.969 -56.043  1.00  0.00     0.007 A 
HETATM   28  C   UNL     1     -43.014  55.981 -56.470  1.00  0.00    -0.062 A 
HETATM   29  C   UNL     1     -43.236  55.735 -57.935  1.00  0.00     0.048 C 
HETATM   30  C   UNL     1     -43.616  55.159 -55.512  1.00  0.00     0.007 A 
HETATM   31  C   UNL     1     -43.332  55.309 -54.146  1.00  0.00     0.010 A 
ENDBRANCH   1  25
BRANCH  10  32
HETATM   32  C   UNL     1     -42.660  54.194 -51.250  1.00  0.00     0.294 C 
HETATM   33  O   UNL     1     -43.742  54.184 -50.684  1.00  0.00    -0.259 OA
BRANCH  32  34
HETATM   34  O   UNL     1     -42.068  53.227 -51.969  1.00  0.00    -0.313 OA
BRANCH  34  35
HETATM   35  C   UNL     1     -40.647  53.292 -52.247  1.00  0.00     0.124 C 
HETATM   36  C   UNL     1     -39.833  52.321 -51.395  1.00  0.00     0.040 C 
HETATM   37  C   UNL     1     -40.367  53.145 -53.738  1.00  0.00     0.040 C 
ENDBRANCH  34  35
ENDBRANCH  32  34
ENDBRANCH  10  32
TORSDOF 9
ENDMDL
MODEL 5
REMARK VINA RESULT:      -7.6      3.158      6.926
REMARK  9 active torsions:
REMARK  status: ('A' for Active; 'I' for Inactive)
REMARK    1  A    between atoms: C_5  and  C_6 
REMARK    2  A    between atoms: C_8  and  C_9 
REMARK    3  A    between atoms: C_9  and  C_10 
REMARK       I    between atoms: C_10  and  N_11 
REMARK    4  A    between atoms: N_11  and  C_12 
REMARK    5  A    between atoms: C_12  and  C_13 
REMARK    6  A    between atoms: C_13  and  N_14 
REMARK    7  A    between atoms: C_28  and  C_29 
REMARK    8  A    between atoms: C_29  and  O_30 
REMARK    9  A    between atoms: O_30  and  C_31 
ROOT
HETATM    1  C   UNL     1     -42.235  58.349 -53.298  1.00  0.00     0.166 C 
HETATM    2  N   UNL     1     -42.774  56.978 -53.247  1.00  0.00    -0.319 N 
HETATM    3  C   UNL     1     -42.964  55.999 -52.426  1.00  0.00     0.011 C 
HETATM    4  C   UNL     1     -43.354  56.640 -54.647  1.00  0.00     0.170 C 
HETATM    5  S   UNL     1     -43.406  54.937 -54.904  1.00  0.00    -0.086 SA
HETATM    6  C   UNL     1     -43.258  54.664 -53.101  1.00  0.00     0.135 C 
HETATM    7  N   UNL     1     -43.849  57.535 -55.433  1.00  0.00    -0.229 NA
HETATM    8  C   UNL     1     -44.020  58.815 -54.899  1.00  0.00     0.048 C 
HETATM    9  C   UNL     1     -45.148  59.587 -55.545  1.00  0.00     0.071 C 
HETATM   10  C   UNL     1     -43.316  59.238 -53.817  1.00  0.00     0.069 C 
ENDROOT
BRANCH   3  11
HETATM   11  C   UNL     1     -42.914  56.177 -50.933  1.00  0.00     0.156 C 
BRANCH  11  12
HETATM   12  C   UNL     1     -41.997  55.173 -50.238  1.00  0.00     0.223 C 
HETATM   13  N   UNL     1     -40.724  55.099 -50.736  1.00  0.00    -0.359 N 
HETATM   14  H   UNL     1     -40.508  55.651 -51.564  1.00  0.00     0.162 HD
HETATM   15  O   UNL     1     -42.370  54.484 -49.292  1.00  0.00    -0.273 OA
BRANCH  13  16
HETATM   16  C   UNL     1     -39.748  54.042 -50.434  1.00  0.00     0.150 C 
BRANCH  16  17
HETATM   17  C   UNL     1     -40.197  52.563 -50.547  1.00  0.00     0.254 C 
BRANCH  17  18
HETATM   18  N   UNL     1     -39.792  51.890 -51.849  1.00  0.00    -0.070 N 
HETATM   19  H   UNL     1     -38.794  52.145 -51.989  1.00  0.00     0.279 HD
HETATM   20  C   UNL     1     -39.875  50.382 -51.823  1.00  0.00     0.235 C 
HETATM   21  C   UNL     1     -39.303  49.817 -53.117  1.00  0.00     0.028 C 
HETATM   22  C   UNL     1     -40.017  50.377 -54.339  1.00  0.00     0.003 C 
HETATM   23  C   UNL     1     -40.009  51.900 -54.326  1.00  0.00     0.028 C 
HETATM   24  C   UNL     1     -40.563  52.459 -53.023  1.00  0.00     0.235 C 
ENDBRANCH  17  18
ENDBRANCH  16  17
ENDBRANCH  13  16
ENDBRANCH  11  12
ENDBRANCH   3  11
BRANCH   1  25
HETATM   25  C   UNL     1     -41.157  58.674 -52.276  1.00  0.00    -0.030 A 
HETATM   26  C   UNL     1     -39.816  58.698 -52.738  1.00  0.00     0.010 A 
HETATM   27  C   UNL     1     -38.759  59.105 -51.920  1.00  0.00     0.007 A 
HETATM   28  C   UNL     1     -39.000  59.496 -50.607  1.00  0.00    -0.062 A 
HETATM   29  C   UNL     1     -37.895  60.058 -49.760  1.00  0.00     0.048 C 
HETATM   30  C   UNL     1     -40.311  59.445 -50.122  1.00  0.00     0.007 A 
HETATM   31  C   UNL     1     -41.371  59.025 -50.940  1.00  0.00     0.010 A 
ENDBRANCH   1  25
BRANCH  10  32
HETATM   32  C   UNL     1     -43.767  60.390 -53.046  1.00  0.00     0.294 C 
HETATM   33  O   UNL     1     -43.133  61.433 -53.077  1.00  0.00    -0.259 OA
BRANCH  32  34
HETATM   34  O   UNL     1     -44.897  60.102 -52.381  1.00  0.00    -0.313 OA
BRANCH  34  35
HETATM   35  C   UNL     1     -44.842  59.714 -50.986  1.00  0.00     0.124 C 
HETATM   36  C   UNL     1     -45.215  60.853 -50.040  1.00  0.00     0.040 C 
HETATM   37  C   UNL     1     -45.651  58.447 -50.731  1.00  0.00     0.040 C 
ENDBRANCH  34  35
ENDBRANCH  32  34
ENDBRANCH  10  32
TORSDOF 9
ENDMDL
MODEL 6
REMARK VINA RESULT:      -7.5      2.545      7.579
REMARK  9 active torsions:
REMARK  status: ('A' for Active; 'I' for Inactive)
REMARK    1  A    between atoms: C_5  and  C_6 
REMARK    2  A    between atoms: C_8  and  C_9 
REMARK    3  A    between atoms: C_9  and  C_10 
REMARK       I    between atoms: C_10  and  N_11 
REMARK    4  A    between atoms: N_11  and  C_12 
REMARK    5  A    between atoms: C_12  and  C_13 
REMARK    6  A    between atoms: C_13  and  N_14 
REMARK    7  A    between atoms: C_28  and  C_29 
REMARK    8  A    between atoms: C_29  and  O_30 
REMARK    9  A    between atoms: O_30  and  C_31 
ROOT
HETATM    1  C   UNL     1     -44.503  57.992 -56.178  1.00  0.00     0.166 C 
HETATM    2  N   UNL     1     -44.172  59.270 -55.522  1.00  0.00    -0.319 N 
HETATM    3  C   UNL     1     -43.195  59.879 -54.934  1.00  0.00     0.011 C 
HETATM    4  C   UNL     1     -45.408  60.202 -55.640  1.00  0.00     0.170 C 
HETATM    5  S   UNL     1     -45.399  61.407 -54.408  1.00  0.00    -0.086 SA
HETATM    6  C   UNL     1     -43.616  61.105 -54.131  1.00  0.00     0.135 C 
HETATM    7  N   UNL     1     -46.239  60.141 -56.626  1.00  0.00    -0.229 NA
HETATM    8  C   UNL     1     -45.881  59.319 -57.698  1.00  0.00     0.048 C 
HETATM    9  C   UNL     1     -46.466  59.768 -59.017  1.00  0.00     0.071 C 
HETATM   10  C   UNL     1     -44.987  58.306 -57.554  1.00  0.00     0.069 C 
ENDROOT
BRANCH   3  11
HETATM   11  C   UNL     1     -41.769  59.418 -55.054  1.00  0.00     0.156 C 
BRANCH  11  12
HETATM   12  C   UNL     1     -41.176  58.947 -53.728  1.00  0.00     0.223 C 
HETATM   13  N   UNL     1     -41.962  58.090 -53.005  1.00  0.00    -0.359 N 
HETATM   14  H   UNL     1     -42.896  57.894 -53.360  1.00  0.00     0.162 HD
HETATM   15  O   UNL     1     -40.068  59.303 -53.337  1.00  0.00    -0.273 OA
BRANCH  13  16
HETATM   16  C   UNL     1     -41.751  57.715 -51.599  1.00  0.00     0.150 C 
BRANCH  16  17
HETATM   17  C   UNL     1     -42.682  56.650 -50.968  1.00  0.00     0.254 C 
BRANCH  17  18
HETATM   18  N   UNL     1     -41.972  55.369 -50.560  1.00  0.00    -0.070 N 
HETATM   19  H   UNL     1     -42.721  54.652 -50.492  1.00  0.00     0.279 HD
HETATM   20  C   UNL     1     -40.958  54.872 -51.564  1.00  0.00     0.235 C 
HETATM   21  C   UNL     1     -40.427  53.514 -51.123  1.00  0.00     0.028 C 
HETATM   22  C   UNL     1     -39.823  53.571 -49.727  1.00  0.00     0.003 C 
HETATM   23  C   UNL     1     -40.815  54.150 -48.727  1.00  0.00     0.028 C 
HETATM   24  C   UNL     1     -41.357  55.499 -49.181  1.00  0.00     0.235 C 
ENDBRANCH  17  18
ENDBRANCH  16  17
ENDBRANCH  13  16
ENDBRANCH  11  12
ENDBRANCH   3  11
BRANCH   1  25
HETATM   25  C   UNL     1     -43.707  56.784 -55.711  1.00  0.00    -0.030 A 
HETATM   26  C   UNL     1     -44.228  56.052 -54.614  1.00  0.00     0.010 A 
HETATM   27  C   UNL     1     -43.650  54.856 -54.181  1.00  0.00     0.007 A 
HETATM   28  C   UNL     1     -42.524  54.350 -54.822  1.00  0.00    -0.062 A 
HETATM   29  C   UNL     1     -41.971  53.004 -54.450  1.00  0.00     0.048 C 
HETATM   30  C   UNL     1     -41.973  55.077 -55.882  1.00  0.00     0.007 A 
HETATM   31  C   UNL     1     -42.547  56.284 -56.310  1.00  0.00     0.010 A 
ENDBRANCH   1  25
BRANCH  10  32
HETATM   32  C   UNL     1     -44.339  57.723 -58.722  1.00  0.00     0.294 C 
HETATM   33  O   UNL     1     -43.304  58.208 -59.154  1.00  0.00    -0.259 OA
BRANCH  32  34
HETATM   34  O   UNL     1     -45.029  56.661 -59.168  1.00  0.00    -0.313 OA
BRANCH  34  35
HETATM   35  C   UNL     1     -44.353  55.608 -59.901  1.00  0.00     0.124 C 
HETATM   36  C   UNL     1     -44.076  54.376 -59.044  1.00  0.00     0.040 C 
HETATM   37  C   UNL     1     -45.087  55.274 -61.195  1.00  0.00     0.040 C 
ENDBRANCH  34  35
ENDBRANCH  32  34
ENDBRANCH  10  32
TORSDOF 9
ENDMDL
MODEL 7
REMARK VINA RESULT:      -7.4      2.524      4.282
REMARK  9 active torsions:
REMARK  status: ('A' for Active; 'I' for Inactive)
REMARK    1  A    between atoms: C_5  and  C_6 
REMARK    2  A    between atoms: C_8  and  C_9 
REMARK    3  A    between atoms: C_9  and  C_10 
REMARK       I    between atoms: C_10  and  N_11 
REMARK    4  A    between atoms: N_11  and  C_12 
REMARK    5  A    between atoms: C_12  and  C_13 
REMARK    6  A    between atoms: C_13  and  N_14 
REMARK    7  A    between atoms: C_28  and  C_29 
REMARK    8  A    between atoms: C_29  and  O_30 
REMARK    9  A    between atoms: O_30  and  C_31 
ROOT
HETATM    1  C   UNL     1     -41.990  56.312 -52.554  1.00  0.00     0.166 C 
HETATM    2  N   UNL     1     -42.393  57.586 -51.932  1.00  0.00    -0.319 N 
HETATM    3  C   UNL     1     -43.323  58.482 -51.980  1.00  0.00     0.011 C 
HETATM    4  C   UNL     1     -41.377  57.911 -50.805  1.00  0.00     0.170 C 
HETATM    5  S   UNL     1     -41.344  59.600 -50.463  1.00  0.00    -0.086 SA
HETATM    6  C   UNL     1     -42.963  59.794 -51.293  1.00  0.00     0.135 C 
HETATM    7  N   UNL     1     -40.756  56.997 -50.138  1.00  0.00    -0.229 NA
HETATM    8  C   UNL     1     -41.174  55.679 -50.339  1.00  0.00     0.048 C 
HETATM    9  C   UNL     1     -40.942  54.787 -49.141  1.00  0.00     0.071 C 
HETATM   10  C   UNL     1     -41.843  55.305 -51.462  1.00  0.00     0.069 C 
ENDROOT
BRANCH   3  11
HETATM   11  C   UNL     1     -44.649  58.233 -52.645  1.00  0.00     0.156 C 
BRANCH  11  12
HETATM   12  C   UNL     1     -45.072  59.361 -53.583  1.00  0.00     0.223 C 
HETATM   13  N   UNL     1     -44.547  59.303 -54.846  1.00  0.00    -0.359 N 
HETATM   14  H   UNL     1     -43.867  58.570 -55.041  1.00  0.00     0.162 HD
HETATM   15  O   UNL     1     -45.837  60.256 -53.235  1.00  0.00    -0.273 OA
BRANCH  13  16
HETATM   16  C   UNL     1     -44.574  60.390 -55.835  1.00  0.00     0.150 C 
BRANCH  16  17
HETATM   17  C   UNL     1     -45.320  60.156 -57.173  1.00  0.00     0.254 C 
BRANCH  17  18
HETATM   18  N   UNL     1     -44.403  59.889 -58.356  1.00  0.00    -0.070 N 
HETATM   19  H   UNL     1     -44.590  60.662 -59.026  1.00  0.00     0.279 HD
HETATM   20  C   UNL     1     -42.930  59.924 -58.022  1.00  0.00     0.235 C 
HETATM   21  C   UNL     1     -42.114  59.797 -59.302  1.00  0.00     0.028 C 
HETATM   22  C   UNL     1     -42.464  58.530 -60.070  1.00  0.00     0.003 C 
HETATM   23  C   UNL     1     -43.962  58.450 -60.336  1.00  0.00     0.028 C 
HETATM   24  C   UNL     1     -44.774  58.596 -59.056  1.00  0.00     0.235 C 
ENDBRANCH  17  18
ENDBRANCH  16  17
ENDBRANCH  13  16
ENDBRANCH  11  12
ENDBRANCH   3  11
BRANCH   1  25
HETATM   25  C   UNL     1     -42.467  56.092 -53.981  1.00  0.00    -0.030 A 
HETATM   26  C   UNL     1     -41.915  56.929 -54.983  1.00  0.00     0.010 A 
HETATM   27  C   UNL     1     -42.184  56.736 -56.340  1.00  0.00     0.007 A 
HETATM   28  C   UNL     1     -43.024  55.704 -56.747  1.00  0.00    -0.062 A 
HETATM   29  C   UNL     1     -43.218  55.406 -58.206  1.00  0.00     0.048 C 
HETATM   30  C   UNL     1     -43.607  54.890 -55.771  1.00  0.00     0.007 A 
HETATM   31  C   UNL     1     -43.346  55.091 -54.407  1.00  0.00     0.010 A 
ENDBRANCH   1  25
BRANCH  10  32
HETATM   32  C   UNL     1     -42.601  54.061 -51.490  1.00  0.00     0.294 C 
HETATM   33  O   UNL     1     -43.638  53.962 -50.851  1.00  0.00    -0.259 OA
BRANCH  32  34
HETATM   34  O   UNL     1     -41.999  53.155 -52.277  1.00  0.00    -0.313 OA
BRANCH  34  35
HETATM   35  C   UNL     1     -40.568  53.222 -52.502  1.00  0.00     0.124 C 
HETATM   36  C   UNL     1     -39.788  52.238 -51.634  1.00  0.00     0.040 C 
HETATM   37  C   UNL     1     -40.233  53.096 -53.984  1.00  0.00     0.040 C 
ENDBRANCH  34  35
ENDBRANCH  32  34
ENDBRANCH  10  32
TORSDOF 9
ENDMDL
MODEL 8
REMARK VINA RESULT:      -7.3      2.372      4.165
REMARK  9 active torsions:
REMARK  status: ('A' for Active; 'I' for Inactive)
REMARK    1  A    between atoms: C_5  and  C_6 
REMARK    2  A    between atoms: C_8  and  C_9 
REMARK    3  A    between atoms: C_9  and  C_10 
REMARK       I    between atoms: C_10  and  N_11 
REMARK    4  A    between atoms: N_11  and  C_12 
REMARK    5  A    between atoms: C_12  and  C_13 
REMARK    6  A    between atoms: C_13  and  N_14 
REMARK    7  A    between atoms: C_28  and  C_29 
REMARK    8  A    between atoms: C_29  and  O_30 
REMARK    9  A    between atoms: O_30  and  C_31 
ROOT
HETATM    1  C   UNL     1     -42.140  57.014 -53.870  1.00  0.00     0.166 C 
HETATM    2  N   UNL     1     -43.102  57.997 -53.340  1.00  0.00    -0.319 N 
HETATM    3  C   UNL     1     -44.300  58.440 -53.531  1.00  0.00     0.011 C 
HETATM    4  C   UNL     1     -42.458  58.675 -52.100  1.00  0.00     0.170 C 
HETATM    5  S   UNL     1     -43.157  60.221 -51.803  1.00  0.00    -0.086 SA
HETATM    6  C   UNL     1     -44.595  59.766 -52.839  1.00  0.00     0.135 C 
HETATM    7  N   UNL     1     -41.611  58.073 -51.334  1.00  0.00    -0.229 NA
HETATM    8  C   UNL     1     -41.430  56.704 -51.553  1.00  0.00     0.048 C 
HETATM    9  C   UNL     1     -41.012  55.950 -50.311  1.00  0.00     0.071 C 
HETATM   10  C   UNL     1     -41.738  56.124 -52.741  1.00  0.00     0.069 C 
ENDROOT
BRANCH   3  11
HETATM   11  C   UNL     1     -45.314  57.693 -54.355  1.00  0.00     0.156 C 
BRANCH  11  12
HETATM   12  C   UNL     1     -45.649  58.389 -55.671  1.00  0.00     0.223 C 
HETATM   13  N   UNL     1     -46.697  57.852 -56.369  1.00  0.00    -0.359 N 
HETATM   14  H   UNL     1     -47.119  57.000 -56.004  1.00  0.00     0.162 HD
HETATM   15  O   UNL     1     -45.029  59.369 -56.076  1.00  0.00    -0.273 OA
BRANCH  13  16
HETATM   16  C   UNL     1     -47.041  58.156 -57.766  1.00  0.00     0.150 C 
BRANCH  16  17
HETATM   17  C   UNL     1     -46.008  57.822 -58.872  1.00  0.00     0.254 C 
BRANCH  17  18
HETATM   18  N   UNL     1     -45.096  58.981 -59.239  1.00  0.00    -0.070 N 
HETATM   19  H   UNL     1     -44.409  59.044 -58.461  1.00  0.00     0.279 HD
HETATM   20  C   UNL     1     -44.315  58.779 -60.517  1.00  0.00     0.235 C 
HETATM   21  C   UNL     1     -43.330  59.926 -60.699  1.00  0.00     0.028 C 
HETATM   22  C   UNL     1     -44.032  61.277 -60.702  1.00  0.00     0.003 C 
HETATM   23  C   UNL     1     -44.888  61.450 -59.454  1.00  0.00     0.028 C 
HETATM   24  C   UNL     1     -45.858  60.291 -59.266  1.00  0.00     0.235 C 
ENDBRANCH  17  18
ENDBRANCH  16  17
ENDBRANCH  13  16
ENDBRANCH  11  12
ENDBRANCH   3  11
BRANCH   1  25
HETATM   25  C   UNL     1     -42.299  56.659 -55.340  1.00  0.00    -0.030 A 
HETATM   26  C   UNL     1     -42.769  55.357 -55.643  1.00  0.00     0.010 A 
HETATM   27  C   UNL     1     -43.072  54.964 -56.949  1.00  0.00     0.007 A 
HETATM   28  C   UNL     1     -42.906  55.855 -58.004  1.00  0.00    -0.062 A 
HETATM   29  C   UNL     1     -43.348  55.489 -59.391  1.00  0.00     0.048 C 
HETATM   30  C   UNL     1     -42.408  57.133 -57.730  1.00  0.00     0.007 A 
HETATM   31  C   UNL     1     -42.094  57.524 -56.420  1.00  0.00     0.010 A 
ENDBRANCH   1  25
BRANCH  10  32
HETATM   32  C   UNL     1     -41.916  54.680 -52.833  1.00  0.00     0.294 C 
HETATM   33  O   UNL     1     -43.004  54.180 -52.588  1.00  0.00    -0.259 OA
BRANCH  32  34
HETATM   34  O   UNL     1     -40.773  54.083 -53.209  1.00  0.00    -0.313 OA
BRANCH  34  35
HETATM   35  C   UNL     1     -40.501  52.716 -52.811  1.00  0.00     0.124 C 
HETATM   36  C   UNL     1     -39.818  51.906 -53.910  1.00  0.00     0.040 C 
HETATM   37  C   UNL     1     -39.749  52.664 -51.485  1.00  0.00     0.040 C 
ENDBRANCH  34  35
ENDBRANCH  32  34
ENDBRANCH  10  32
TORSDOF 9
ENDMDL
MODEL 9
REMARK VINA RESULT:      -7.3      3.177      6.049
REMARK  9 active torsions:
REMARK  status: ('A' for Active; 'I' for Inactive)
REMARK    1  A    between atoms: C_5  and  C_6 
REMARK    2  A    between atoms: C_8  and  C_9 
REMARK    3  A    between atoms: C_9  and  C_10 
REMARK       I    between atoms: C_10  and  N_11 
REMARK    4  A    between atoms: N_11  and  C_12 
REMARK    5  A    between atoms: C_12  and  C_13 
REMARK    6  A    between atoms: C_13  and  N_14 
REMARK    7  A    between atoms: C_28  and  C_29 
REMARK    8  A    between atoms: C_29  and  O_30 
REMARK    9  A    between atoms: O_30  and  C_31 
ROOT
HETATM    1  C   UNL     1     -43.713  59.911 -52.267  1.00  0.00     0.166 C 
HETATM    2  N   UNL     1     -43.889  60.055 -53.724  1.00  0.00    -0.319 N 
HETATM    3  C   UNL     1     -44.265  59.388 -54.765  1.00  0.00     0.011 C 
HETATM    4  C   UNL     1     -43.563  61.524 -54.102  1.00  0.00     0.170 C 
HETATM    5  S   UNL     1     -43.106  61.654 -55.759  1.00  0.00    -0.086 SA
HETATM    6  C   UNL     1     -43.866  60.024 -56.092  1.00  0.00     0.135 C 
HETATM    7  N   UNL     1     -43.754  62.514 -53.295  1.00  0.00    -0.229 NA
HETATM    8  C   UNL     1     -44.449  62.236 -52.116  1.00  0.00     0.048 C 
HETATM    9  C   UNL     1     -45.208  63.426 -51.574  1.00  0.00     0.071 C 
HETATM   10  C   UNL     1     -44.524  60.978 -51.609  1.00  0.00     0.069 C 
ENDROOT
BRANCH   3  11
HETATM   11  C   UNL     1     -45.041  58.104 -54.663  1.00  0.00     0.156 C 
BRANCH  11  12
HETATM   12  C   UNL     1     -44.236  56.878 -55.088  1.00  0.00     0.223 C 
HETATM   13  N   UNL     1     -44.423  55.759 -54.322  1.00  0.00    -0.359 N 
HETATM   14  H   UNL     1     -45.014  55.845 -53.497  1.00  0.00     0.162 HD
HETATM   15  O   UNL     1     -43.478  56.889 -56.054  1.00  0.00    -0.273 OA
BRANCH  13  16
HETATM   16  C   UNL     1     -43.581  54.554 -54.348  1.00  0.00     0.150 C 
BRANCH  16  17
HETATM   17  C   UNL     1     -42.093  54.680 -53.932  1.00  0.00     0.254 C 
BRANCH  17  18
HETATM   18  N   UNL     1     -41.442  53.359 -53.553  1.00  0.00    -0.070 N 
HETATM   19  H   UNL     1     -42.205  52.788 -53.139  1.00  0.00     0.279 HD
HETATM   20  C   UNL     1     -40.876  52.585 -54.720  1.00  0.00     0.235 C 
HETATM   21  C   UNL     1     -40.392  51.222 -54.242  1.00  0.00     0.028 C 
HETATM   22  C   UNL     1     -39.362  51.350 -53.129  1.00  0.00     0.003 C 
HETATM   23  C   UNL     1     -39.898  52.201 -51.985  1.00  0.00     0.028 C 
HETATM   24  C   UNL     1     -40.398  53.555 -52.470  1.00  0.00     0.235 C 
ENDBRANCH  17  18
ENDBRANCH  16  17
ENDBRANCH  13  16
ENDBRANCH  11  12
ENDBRANCH   3  11
BRANCH   1  25
HETATM   25  C   UNL     1     -43.427  58.503 -51.771  1.00  0.00    -0.030 A 
HETATM   26  C   UNL     1     -42.066  58.133 -51.627  1.00  0.00     0.010 A 
HETATM   27  C   UNL     1     -41.686  56.913 -51.063  1.00  0.00     0.007 A 
HETATM   28  C   UNL     1     -42.653  56.011 -50.628  1.00  0.00    -0.062 A 
HETATM   29  C   UNL     1     -42.259  54.756 -49.904  1.00  0.00     0.048 C 
HETATM   30  C   UNL     1     -44.001  56.343 -50.795  1.00  0.00     0.007 A 
HETATM   31  C   UNL     1     -44.383  57.563 -51.373  1.00  0.00     0.010 A 
ENDBRANCH   1  25
BRANCH  10  32
HETATM   32  C   UNL     1     -45.547  60.636 -50.629  1.00  0.00     0.294 C 
HETATM   33  O   UNL     1     -46.698  60.440 -50.989  1.00  0.00    -0.259 OA
BRANCH  32  34
HETATM   34  O   UNL     1     -45.022  60.579 -49.395  1.00  0.00    -0.313 OA
BRANCH  34  35
HETATM   35  C   UNL     1     -45.589  61.377 -48.325  1.00  0.00     0.124 C 
HETATM   36  C   UNL     1     -45.804  60.578 -47.042  1.00  0.00     0.040 C 
HETATM   37  C   UNL     1     -44.783  62.651 -48.098  1.00  0.00     0.040 C 
ENDBRANCH  34  35
ENDBRANCH  32  34
ENDBRANCH  10  32
TORSDOF 9
ENDMDL
MODEL 10
REMARK VINA RESULT:      -7.3      2.187      3.954
REMARK  9 active torsions:
REMARK  status: ('A' for Active; 'I' for Inactive)
REMARK    1  A    between atoms: C_5  and  C_6 
REMARK    2  A    between atoms: C_8  and  C_9 
REMARK    3  A    between atoms: C_9  and  C_10 
REMARK       I    between atoms: C_10  and  N_11 
REMARK    4  A    between atoms: N_11  and  C_12 
REMARK    5  A    between atoms: C_12  and  C_13 
REMARK    6  A    between atoms: C_13  and  N_14 
REMARK    7  A    between atoms: C_28  and  C_29 
REMARK    8  A    between atoms: C_29  and  O_30 
REMARK    9  A    between atoms: O_30  and  C_31 
ROOT
HETATM    1  C   UNL     1     -42.202  57.415 -54.154  1.00  0.00     0.166 C 
HETATM    2  N   UNL     1     -43.054  58.479 -53.593  1.00  0.00    -0.319 N 
HETATM    3  C   UNL     1     -44.221  59.015 -53.731  1.00  0.00     0.011 C 
HETATM    4  C   UNL     1     -42.296  59.118 -52.398  1.00  0.00     0.170 C 
HETATM    5  S   UNL     1     -42.853  60.720 -52.092  1.00  0.00    -0.086 SA
HETATM    6  C   UNL     1     -44.373  60.369 -53.048  1.00  0.00     0.135 C 
HETATM    7  N   UNL     1     -41.462  58.459 -51.665  1.00  0.00    -0.229 NA
HETATM    8  C   UNL     1     -41.403  57.078 -51.870  1.00  0.00     0.048 C 
HETATM    9  C   UNL     1     -40.984  56.308 -50.638  1.00  0.00     0.071 C 
HETATM   10  C   UNL     1     -41.817  56.509 -53.032  1.00  0.00     0.069 C 
ENDROOT
BRANCH   3  11
HETATM   11  C   UNL     1     -45.332  58.343 -54.491  1.00  0.00     0.156 C 
BRANCH  11  12
HETATM   12  C   UNL     1     -45.512  58.892 -55.905  1.00  0.00     0.223 C 
HETATM   13  N   UNL     1     -45.832  57.964 -56.859  1.00  0.00    -0.359 N 
HETATM   14  H   UNL     1     -45.851  56.985 -56.577  1.00  0.00     0.162 HD
HETATM   15  O   UNL     1     -45.387  60.084 -56.170  1.00  0.00    -0.273 OA
BRANCH  13  16
HETATM   16  C   UNL     1     -45.790  58.181 -58.312  1.00  0.00     0.150 C 
BRANCH  16  17
HETATM   17  C   UNL     1     -46.274  57.043 -59.246  1.00  0.00     0.254 C 
BRANCH  17  18
HETATM   18  N   UNL     1     -47.345  57.469 -60.238  1.00  0.00    -0.070 N 
HETATM   19  H   UNL     1     -48.238  57.431 -59.708  1.00  0.00     0.279 HD
HETATM   20  C   UNL     1     -47.187  58.878 -60.759  1.00  0.00     0.235 C 
HETATM   21  C   UNL     1     -48.391  59.243 -61.617  1.00  0.00     0.028 C 
HETATM   22  C   UNL     1     -48.583  58.261 -62.764  1.00  0.00     0.003 C 
HETATM   23  C   UNL     1     -48.659  56.829 -62.250  1.00  0.00     0.028 C 
HETATM   24  C   UNL     1     -47.463  56.476 -61.377  1.00  0.00     0.235 C 
ENDBRANCH  17  18
ENDBRANCH  16  17
ENDBRANCH  13  16
ENDBRANCH  11  12
ENDBRANCH   3  11
BRANCH   1  25
HETATM   25  C   UNL     1     -42.464  57.056 -55.608  1.00  0.00    -0.030 A 
HETATM   26  C   UNL     1     -42.127  58.027 -56.584  1.00  0.00     0.010 A 
HETATM   27  C   UNL     1     -42.207  57.760 -57.952  1.00  0.00     0.007 A 
HETATM   28  C   UNL     1     -42.636  56.514 -58.399  1.00  0.00    -0.062 A 
HETATM   29  C   UNL     1     -42.603  56.172 -59.860  1.00  0.00     0.048 C 
HETATM   30  C   UNL     1     -43.008  55.555 -57.452  1.00  0.00     0.007 A 
HETATM   31  C   UNL     1     -42.938  55.827 -56.077  1.00  0.00     0.010 A 
ENDBRANCH   1  25
BRANCH  10  32
HETATM   32  C   UNL     1     -42.115  55.083 -53.091  1.00  0.00     0.294 C 
HETATM   33  O   UNL     1     -43.208  54.671 -52.733  1.00  0.00    -0.259 OA
BRANCH  32  34
HETATM   34  O   UNL     1     -41.065  54.398 -53.572  1.00  0.00    -0.313 OA
BRANCH  34  35
HETATM   35  C   UNL     1     -40.863  53.014 -53.193  1.00  0.00     0.124 C 
HETATM   36  C   UNL     1     -40.127  52.210 -54.261  1.00  0.00     0.040 C 
HETATM   37  C   UNL     1     -40.210  52.905 -51.819  1.00  0.00     0.040 C 
ENDBRANCH  34  35
ENDBRANCH  32  34
ENDBRANCH  10  32
TORSDOF 9
ENDMDL
