MODEL 1
REMARK VINA RESULT:      -8.0      0.000      0.000
REMARK  11 active torsions:
REMARK  status: ('A' for Active; 'I' for Inactive)
REMARK    1  A    between atoms: O_2  and  C_3 
REMARK    2  A    between atoms: C_5  and  C_6 
REMARK    3  A    between atoms: C_10  and  C_11 
REMARK       I    between atoms: C_11  and  N_12 
REMARK    4  A    between atoms: N_12  and  C_13 
REMARK    5  A    between atoms: C_13  and  C_14 
REMARK    6  A    between atoms: C_15  and  C_16 
REMARK    7  A    between atoms: C_16  and  O_17 
REMARK    8  A    between atoms: O_17  and  C_18 
REMARK    9  A    between atoms: C_19  and  C_20 
REMARK   10  A    between atoms: C_20  and  C_21 
REMARK   11  A    between atoms: C_29  and  O_30 
ROOT
HETATM    1  C   UNL     1     -43.110  57.282 -52.364  1.00  0.00     0.270 C 
HETATM    2  N   UNL     1     -41.828  57.466 -51.914  1.00  0.00    -0.345 N 
HETATM    3  O   UNL     1     -44.035  56.973 -51.619  1.00  0.00    -0.266 OA
HETATM    4  H   UNL     1     -41.090  57.673 -52.571  1.00  0.00     0.163 HD
ENDROOT
BRANCH   1   5
HETATM    5  C   UNL     1     -43.302  57.455 -53.779  1.00  0.00     0.120 A 
HETATM    6  N   UNL     1     -44.552  57.585 -54.318  1.00  0.00    -0.272 N 
HETATM    7  N   UNL     1     -44.574  57.666 -55.656  1.00  0.00    -0.174 NA
HETATM    8  H   UNL     1     -45.432  57.597 -53.811  1.00  0.00     0.189 HD
HETATM    9  C   UNL     1     -43.281  57.628 -56.009  1.00  0.00     0.092 A 
HETATM   10  C   UNL     1     -42.448  57.505 -54.862  1.00  0.00     0.071 A 
BRANCH   9  11
HETATM   11  C   UNL     1     -42.860  57.618 -57.405  1.00  0.00     0.030 A 
HETATM   12  C   UNL     1     -43.234  56.524 -58.205  1.00  0.00     0.053 A 
HETATM   13  C   UNL     1     -42.887  56.465 -59.556  1.00  0.00     0.069 A 
HETATM   14  C   UNL     1     -42.146  57.504 -60.115  1.00  0.00     0.039 A 
HETATM   15  C   UNL     1     -41.759  58.595 -59.327  1.00  0.00     0.040 A 
HETATM   16  C   UNL     1     -42.122  58.665 -57.977  1.00  0.00     0.081 A 
BRANCH  13  17
HETATM   17  O   UNL     1     -43.319  55.342 -60.206  1.00  0.00    -0.356 OA
HETATM   18  C   UNL     1     -44.347  54.589 -59.576  1.00  0.00     0.210 C 
ENDBRANCH  13  17
BRANCH  16  19
HETATM   19  O   UNL     1     -41.693  59.686 -57.167  1.00  0.00    -0.355 OA
HETATM   20  C   UNL     1     -41.646  60.959 -57.806  1.00  0.00     0.210 C 
ENDBRANCH  16  19
ENDBRANCH   9  11
ENDBRANCH   1   5
BRANCH   2  21
HETATM   21  C   UNL     1     -41.460  57.178 -50.553  1.00  0.00     0.217 C 
BRANCH  21  22
HETATM   22  C   UNL     1     -41.122  55.760 -50.415  1.00  0.00    -0.085 C 
HETATM   23  C   UNL     1     -40.805  54.603 -50.342  1.00  0.00    -0.078 C 
BRANCH  23  24
HETATM   24  C   UNL     1     -40.364  53.202 -50.303  1.00  0.00     0.269 C 
BRANCH  24  25
HETATM   25  O   UNL     1     -39.378  52.945 -51.310  1.00  0.00    -0.339 OA
BRANCH  25  26
HETATM   26  C   UNL     1     -39.608  51.870 -52.130  1.00  0.00     0.076 A 
HETATM   27  C   UNL     1     -39.963  52.148 -53.461  1.00  0.00    -0.021 A 
HETATM   28  C   UNL     1     -40.194  51.079 -54.345  1.00  0.00     0.010 A 
HETATM   29  C   UNL     1     -40.046  49.758 -53.922  1.00  0.00     0.001 A 
HETATM   30  C   UNL     1     -39.665  49.491 -52.612  1.00  0.00     0.003 A 
HETATM   31  C   UNL     1     -39.444  50.542 -51.720  1.00  0.00     0.037 A 
BRANCH  27  32
HETATM   32  C   UNL     1     -40.152  53.564 -53.960  1.00  0.00     0.067 C 
BRANCH  32  33
HETATM   33  C   UNL     1     -41.590  53.865 -54.282  1.00  0.00    -0.032 C 
HETATM   34  C   UNL     1     -42.593  53.815 -53.395  1.00  0.00     0.007 C 
ENDBRANCH  32  33
ENDBRANCH  27  32
ENDBRANCH  25  26
ENDBRANCH  24  25
ENDBRANCH  23  24
ENDBRANCH  21  22
ENDBRANCH   2  21
TORSDOF 11
ENDMDL
MODEL 2
REMARK VINA RESULT:      -7.3      2.245      2.600
REMARK  11 active torsions:
REMARK  status: ('A' for Active; 'I' for Inactive)
REMARK    1  A    between atoms: O_2  and  C_3 
REMARK    2  A    between atoms: C_5  and  C_6 
REMARK    3  A    between atoms: C_10  and  C_11 
REMARK       I    between atoms: C_11  and  N_12 
REMARK    4  A    between atoms: N_12  and  C_13 
REMARK    5  A    between atoms: C_13  and  C_14 
REMARK    6  A    between atoms: C_15  and  C_16 
REMARK    7  A    between atoms: C_16  and  O_17 
REMARK    8  A    between atoms: O_17  and  C_18 
REMARK    9  A    between atoms: C_19  and  C_20 
REMARK   10  A    between atoms: C_20  and  C_21 
REMARK   11  A    between atoms: C_29  and  O_30 
ROOT
HETATM    1  C   UNL     1     -41.888  58.501 -54.255  1.00  0.00     0.270 C 
HETATM    2  N   UNL     1     -42.395  57.635 -53.320  1.00  0.00    -0.345 N 
HETATM    3  O   UNL     1     -40.941  59.246 -54.023  1.00  0.00    -0.266 OA
HETATM    4  H   UNL     1     -43.205  57.075 -53.540  1.00  0.00     0.163 HD
ENDROOT
BRANCH   1   5
HETATM    5  C   UNL     1     -42.556  58.497 -55.529  1.00  0.00     0.120 A 
HETATM    6  N   UNL     1     -42.145  59.308 -56.551  1.00  0.00    -0.272 N 
HETATM    7  N   UNL     1     -42.910  59.245 -57.651  1.00  0.00    -0.174 NA
HETATM    8  H   UNL     1     -41.359  59.951 -56.536  1.00  0.00     0.189 HD
HETATM    9  C   UNL     1     -43.836  58.322 -57.354  1.00  0.00     0.092 A 
HETATM   10  C   UNL     1     -43.646  57.820 -56.037  1.00  0.00     0.071 A 
BRANCH   9  11
HETATM   11  C   UNL     1     -44.924  57.997 -58.270  1.00  0.00     0.030 A 
HETATM   12  C   UNL     1     -44.787  56.865 -59.091  1.00  0.00     0.053 A 
HETATM   13  C   UNL     1     -45.801  56.481 -59.970  1.00  0.00     0.069 A 
HETATM   14  C   UNL     1     -46.965  57.245 -60.040  1.00  0.00     0.039 A 
HETATM   15  C   UNL     1     -47.112  58.380 -59.234  1.00  0.00     0.040 A 
HETATM   16  C   UNL     1     -46.103  58.755 -58.339  1.00  0.00     0.081 A 
BRANCH  13  17
HETATM   17  O   UNL     1     -45.526  55.361 -60.704  1.00  0.00    -0.356 OA
HETATM   18  C   UNL     1     -44.781  54.336 -60.059  1.00  0.00     0.210 C 
ENDBRANCH  13  17
BRANCH  16  19
HETATM   19  O   UNL     1     -46.190  59.902 -57.592  1.00  0.00    -0.355 OA
HETATM   20  C   UNL     1     -47.021  60.909 -58.163  1.00  0.00     0.210 C 
ENDBRANCH  16  19
ENDBRANCH   9  11
ENDBRANCH   1   5
BRANCH   2  21
HETATM   21  C   UNL     1     -41.926  57.641 -51.959  1.00  0.00     0.217 C 
BRANCH  21  22
HETATM   22  C   UNL     1     -41.617  56.275 -51.531  1.00  0.00    -0.085 C 
HETATM   23  C   UNL     1     -41.345  55.144 -51.231  1.00  0.00    -0.078 C 
BRANCH  23  24
HETATM   24  C   UNL     1     -40.986  53.750 -50.935  1.00  0.00     0.269 C 
BRANCH  24  25
HETATM   25  O   UNL     1     -39.804  53.361 -51.643  1.00  0.00    -0.339 OA
BRANCH  25  26
HETATM   26  C   UNL     1     -39.837  52.138 -52.263  1.00  0.00     0.076 A 
HETATM   27  C   UNL     1     -40.044  52.134 -53.653  1.00  0.00    -0.021 A 
HETATM   28  C   UNL     1     -40.072  50.905 -54.337  1.00  0.00     0.010 A 
HETATM   29  C   UNL     1     -39.866  49.706 -53.657  1.00  0.00     0.001 A 
HETATM   30  C   UNL     1     -39.631  49.719 -52.287  1.00  0.00     0.003 A 
HETATM   31  C   UNL     1     -39.613  50.930 -51.592  1.00  0.00     0.037 A 
BRANCH  27  32
HETATM   32  C   UNL     1     -40.289  53.409 -54.430  1.00  0.00     0.067 C 
BRANCH  32  33
HETATM   33  C   UNL     1     -41.755  53.678 -54.632  1.00  0.00    -0.032 C 
HETATM   34  C   UNL     1     -42.251  54.542 -55.528  1.00  0.00     0.007 C 
ENDBRANCH  32  33
ENDBRANCH  27  32
ENDBRANCH  25  26
ENDBRANCH  24  25
ENDBRANCH  23  24
ENDBRANCH  21  22
ENDBRANCH   2  21
TORSDOF 11
ENDMDL
MODEL 3
REMARK VINA RESULT:      -7.2      2.065      7.994
REMARK  11 active torsions:
REMARK  status: ('A' for Active; 'I' for Inactive)
REMARK    1  A    between atoms: O_2  and  C_3 
REMARK    2  A    between atoms: C_5  and  C_6 
REMARK    3  A    between atoms: C_10  and  C_11 
REMARK       I    between atoms: C_11  and  N_12 
REMARK    4  A    between atoms: N_12  and  C_13 
REMARK    5  A    between atoms: C_13  and  C_14 
REMARK    6  A    between atoms: C_15  and  C_16 
REMARK    7  A    between atoms: C_16  and  O_17 
REMARK    8  A    between atoms: O_17  and  C_18 
REMARK    9  A    between atoms: C_19  and  C_20 
REMARK   10  A    between atoms: C_20  and  C_21 
REMARK   11  A    between atoms: C_29  and  O_30 
ROOT
HETATM    1  C   UNL     1     -43.832  58.207 -54.769  1.00  0.00     0.270 C 
HETATM    2  N   UNL     1     -45.032  58.295 -55.427  1.00  0.00    -0.345 N 
HETATM    3  O   UNL     1     -43.140  59.189 -54.520  1.00  0.00    -0.266 OA
HETATM    4  H   UNL     1     -45.545  57.456 -55.652  1.00  0.00     0.163 HD
ENDROOT
BRANCH   1   5
HETATM    5  C   UNL     1     -43.422  56.877 -54.404  1.00  0.00     0.120 A 
HETATM    6  N   UNL     1     -44.331  55.864 -54.267  1.00  0.00    -0.272 N 
HETATM    7  N   UNL     1     -43.807  54.702 -53.852  1.00  0.00    -0.174 NA
HETATM    8  H   UNL     1     -45.333  55.924 -54.420  1.00  0.00     0.189 HD
HETATM    9  C   UNL     1     -42.493  54.950 -53.752  1.00  0.00     0.092 A 
HETATM   10  C   UNL     1     -42.206  56.300 -54.097  1.00  0.00     0.071 A 
BRANCH   9  11
HETATM   11  C   UNL     1     -41.553  53.953 -53.253  1.00  0.00     0.030 A 
HETATM   12  C   UNL     1     -41.183  52.901 -54.108  1.00  0.00     0.053 A 
HETATM   13  C   UNL     1     -40.267  51.928 -53.704  1.00  0.00     0.069 A 
HETATM   14  C   UNL     1     -39.722  51.997 -52.423  1.00  0.00     0.039 A 
HETATM   15  C   UNL     1     -40.089  53.035 -51.557  1.00  0.00     0.040 A 
HETATM   16  C   UNL     1     -40.992  54.021 -51.969  1.00  0.00     0.081 A 
BRANCH  13  17
HETATM   17  O   UNL     1     -40.005  50.967 -54.642  1.00  0.00    -0.356 OA
HETATM   18  C   UNL     1     -39.515  49.721 -54.166  1.00  0.00     0.210 C 
ENDBRANCH  13  17
BRANCH  16  19
HETATM   19  O   UNL     1     -41.424  55.005 -51.116  1.00  0.00    -0.355 OA
HETATM   20  C   UNL     1     -42.244  54.537 -50.049  1.00  0.00     0.210 C 
ENDBRANCH  16  19
ENDBRANCH   9  11
ENDBRANCH   1   5
BRANCH   2  21
HETATM   21  C   UNL     1     -45.493  59.539 -55.985  1.00  0.00     0.217 C 
BRANCH  21  22
HETATM   22  C   UNL     1     -45.593  59.427 -57.442  1.00  0.00    -0.085 C 
HETATM   23  C   UNL     1     -45.644  59.382 -58.641  1.00  0.00    -0.078 C 
BRANCH  23  24
HETATM   24  C   UNL     1     -45.663  59.387 -60.111  1.00  0.00     0.269 C 
BRANCH  24  25
HETATM   25  O   UNL     1     -44.546  58.667 -60.643  1.00  0.00    -0.339 OA
BRANCH  25  26
HETATM   26  C   UNL     1     -44.486  57.328 -60.348  1.00  0.00     0.076 A 
HETATM   27  C   UNL     1     -43.289  56.853 -59.785  1.00  0.00    -0.021 A 
HETATM   28  C   UNL     1     -43.184  55.491 -59.451  1.00  0.00     0.010 A 
HETATM   29  C   UNL     1     -44.258  54.624 -59.643  1.00  0.00     0.001 A 
HETATM   30  C   UNL     1     -45.449  55.107 -60.173  1.00  0.00     0.003 A 
HETATM   31  C   UNL     1     -45.565  56.454 -60.521  1.00  0.00     0.037 A 
BRANCH  27  32
HETATM   32  C   UNL     1     -42.092  57.753 -59.573  1.00  0.00     0.067 C 
BRANCH  32  33
HETATM   33  C   UNL     1     -42.019  58.280 -58.165  1.00  0.00    -0.032 C 
HETATM   34  C   UNL     1     -41.900  59.576 -57.846  1.00  0.00     0.007 C 
ENDBRANCH  32  33
ENDBRANCH  27  32
ENDBRANCH  25  26
ENDBRANCH  24  25
ENDBRANCH  23  24
ENDBRANCH  21  22
ENDBRANCH   2  21
TORSDOF 11
ENDMDL
MODEL 4
REMARK VINA RESULT:      -7.2      1.920      2.976
REMARK  11 active torsions:
REMARK  status: ('A' for Active; 'I' for Inactive)
REMARK    1  A    between atoms: O_2  and  C_3 
REMARK    2  A    between atoms: C_5  and  C_6 
REMARK    3  A    between atoms: C_10  and  C_11 
REMARK       I    between atoms: C_11  and  N_12 
REMARK    4  A    between atoms: N_12  and  C_13 
REMARK    5  A    between atoms: C_13  and  C_14 
REMARK    6  A    between atoms: C_15  and  C_16 
REMARK    7  A    between atoms: C_16  and  O_17 
REMARK    8  A    between atoms: O_17  and  C_18 
REMARK    9  A    between atoms: C_19  and  C_20 
REMARK   10  A    between atoms: C_20  and  C_21 
REMARK   11  A    between atoms: C_29  and  O_30 
ROOT
HETATM    1  C   UNL     1     -41.709  59.615 -52.235  1.00  0.00     0.270 C 
HETATM    2  N   UNL     1     -40.698  58.732 -51.954  1.00  0.00    -0.345 N 
HETATM    3  O   UNL     1     -42.378  60.156 -51.361  1.00  0.00    -0.266 OA
HETATM    4  H   UNL     1     -40.206  58.275 -52.707  1.00  0.00     0.163 HD
ENDROOT
BRANCH   1   5
HETATM    5  C   UNL     1     -41.954  59.852 -53.633  1.00  0.00     0.120 A 
HETATM    6  N   UNL     1     -42.442  61.049 -54.077  1.00  0.00    -0.272 N 
HETATM    7  N   UNL     1     -42.686  61.094 -55.395  1.00  0.00    -0.174 NA
HETATM    8  H   UNL     1     -42.654  61.865 -53.511  1.00  0.00     0.189 HD
HETATM    9  C   UNL     1     -42.303  59.890 -55.841  1.00  0.00     0.092 A 
HETATM   10  C   UNL     1     -41.829  59.082 -54.772  1.00  0.00     0.071 A 
BRANCH   9  11
HETATM   11  C   UNL     1     -42.471  59.492 -57.235  1.00  0.00     0.030 A 
HETATM   12  C   UNL     1     -43.416  58.496 -57.533  1.00  0.00     0.053 A 
HETATM   13  C   UNL     1     -43.646  58.088 -58.848  1.00  0.00     0.069 A 
HETATM   14  C   UNL     1     -42.913  58.672 -59.880  1.00  0.00     0.039 A 
HETATM   15  C   UNL     1     -41.961  59.659 -59.596  1.00  0.00     0.040 A 
HETATM   16  C   UNL     1     -41.743  60.082 -58.280  1.00  0.00     0.081 A 
BRANCH  13  17
HETATM   17  O   UNL     1     -44.595  57.112 -58.985  1.00  0.00    -0.356 OA
HETATM   18  C   UNL     1     -44.188  55.903 -59.612  1.00  0.00     0.210 C 
ENDBRANCH  13  17
BRANCH  16  19
HETATM   19  O   UNL     1     -40.766  60.993 -57.967  1.00  0.00    -0.355 OA
HETATM   20  C   UNL     1     -40.902  62.247 -58.630  1.00  0.00     0.210 C 
ENDBRANCH  16  19
ENDBRANCH   9  11
ENDBRANCH   1   5
BRANCH   2  21
HETATM   21  C   UNL     1     -40.443  58.285 -50.609  1.00  0.00     0.217 C 
BRANCH  21  22
HETATM   22  C   UNL     1     -41.024  56.957 -50.406  1.00  0.00    -0.085 C 
HETATM   23  C   UNL     1     -41.548  55.885 -50.264  1.00  0.00    -0.078 C 
BRANCH  23  24
HETATM   24  C   UNL     1     -42.248  54.600 -50.128  1.00  0.00     0.269 C 
BRANCH  24  25
HETATM   25  O   UNL     1     -41.782  53.655 -51.099  1.00  0.00    -0.339 OA
BRANCH  25  26
HETATM   26  C   UNL     1     -42.142  53.890 -52.401  1.00  0.00     0.076 A 
HETATM   27  C   UNL     1     -41.394  53.237 -53.396  1.00  0.00    -0.021 A 
HETATM   28  C   UNL     1     -41.733  53.434 -54.747  1.00  0.00     0.010 A 
HETATM   29  C   UNL     1     -42.814  54.240 -55.101  1.00  0.00     0.001 A 
HETATM   30  C   UNL     1     -43.568  54.859 -54.111  1.00  0.00     0.003 A 
HETATM   31  C   UNL     1     -43.236  54.683 -52.766  1.00  0.00     0.037 A 
BRANCH  27  32
HETATM   32  C   UNL     1     -40.203  52.366 -53.060  1.00  0.00     0.067 C 
BRANCH  32  33
HETATM   33  C   UNL     1     -39.855  51.424 -54.180  1.00  0.00    -0.032 C 
HETATM   34  C   UNL     1     -39.955  50.090 -54.107  1.00  0.00     0.007 C 
ENDBRANCH  32  33
ENDBRANCH  27  32
ENDBRANCH  25  26
ENDBRANCH  24  25
ENDBRANCH  23  24
ENDBRANCH  21  22
ENDBRANCH   2  21
TORSDOF 11
ENDMDL
MODEL 5
REMARK VINA RESULT:      -7.2      1.829      1.983
REMARK  11 active torsions:
REMARK  status: ('A' for Active; 'I' for Inactive)
REMARK    1  A    between atoms: O_2  and  C_3 
REMARK    2  A    between atoms: C_5  and  C_6 
REMARK    3  A    between atoms: C_10  and  C_11 
REMARK       I    between atoms: C_11  and  N_12 
REMARK    4  A    between atoms: N_12  and  C_13 
REMARK    5  A    between atoms: C_13  and  C_14 
REMARK    6  A    between atoms: C_15  and  C_16 
REMARK    7  A    between atoms: C_16  and  O_17 
REMARK    8  A    between atoms: O_17  and  C_18 
REMARK    9  A    between atoms: C_19  and  C_20 
REMARK   10  A    between atoms: C_20  and  C_21 
REMARK   11  A    between atoms: C_29  and  O_30 
ROOT
HETATM    1  C   UNL     1     -42.114  59.617 -52.480  1.00  0.00     0.270 C 
HETATM    2  N   UNL     1     -41.581  58.382 -52.212  1.00  0.00    -0.345 N 
HETATM    3  O   UNL     1     -42.488  60.382 -51.597  1.00  0.00    -0.266 OA
HETATM    4  H   UNL     1     -41.331  57.767 -52.972  1.00  0.00     0.163 HD
ENDROOT
BRANCH   1   5
HETATM    5  C   UNL     1     -42.227  59.954 -53.874  1.00  0.00     0.120 A 
HETATM    6  N   UNL     1     -42.570  61.216 -54.276  1.00  0.00    -0.272 N 
HETATM    7  N   UNL     1     -42.706  61.357 -55.603  1.00  0.00    -0.174 NA
HETATM    8  H   UNL     1     -42.751  62.015 -53.676  1.00  0.00     0.189 HD
HETATM    9  C   UNL     1     -42.398  60.149 -56.095  1.00  0.00     0.092 A 
HETATM   10  C   UNL     1     -42.083  59.241 -55.047  1.00  0.00     0.071 A 
BRANCH   9  11
HETATM   11  C   UNL     1     -42.492  59.847 -57.519  1.00  0.00     0.030 A 
HETATM   12  C   UNL     1     -43.468  58.928 -57.942  1.00  0.00     0.053 A 
HETATM   13  C   UNL     1     -43.629  58.615 -59.292  1.00  0.00     0.069 A 
HETATM   14  C   UNL     1     -42.798  59.217 -60.235  1.00  0.00     0.039 A 
HETATM   15  C   UNL     1     -41.816  60.128 -59.827  1.00  0.00     0.040 A 
HETATM   16  C   UNL     1     -41.665  60.457 -58.475  1.00  0.00     0.081 A 
BRANCH  13  17
HETATM   17  O   UNL     1     -44.617  57.705 -59.552  1.00  0.00    -0.356 OA
HETATM   18  C   UNL     1     -44.251  56.554 -60.302  1.00  0.00     0.210 C 
ENDBRANCH  13  17
BRANCH  16  19
HETATM   19  O   UNL     1     -40.664  61.289 -58.042  1.00  0.00    -0.355 OA
HETATM   20  C   UNL     1     -40.463  62.437 -58.861  1.00  0.00     0.210 C 
ENDBRANCH  16  19
ENDBRANCH   9  11
ENDBRANCH   1   5
BRANCH   2  21
HETATM   21  C   UNL     1     -41.549  57.852 -50.874  1.00  0.00     0.217 C 
BRANCH  21  22
HETATM   22  C   UNL     1     -41.345  56.402 -50.916  1.00  0.00    -0.085 C 
HETATM   23  C   UNL     1     -41.164  55.215 -50.897  1.00  0.00    -0.078 C 
BRANCH  23  24
HETATM   24  C   UNL     1     -40.925  53.768 -50.800  1.00  0.00     0.269 C 
BRANCH  24  25
HETATM   25  O   UNL     1     -39.757  53.388 -51.535  1.00  0.00    -0.339 OA
BRANCH  25  26
HETATM   26  C   UNL     1     -39.824  52.201 -52.220  1.00  0.00     0.076 A 
HETATM   27  C   UNL     1     -40.119  52.273 -53.592  1.00  0.00    -0.021 A 
HETATM   28  C   UNL     1     -40.185  51.085 -54.341  1.00  0.00     0.010 A 
HETATM   29  C   UNL     1     -39.933  49.851 -53.744  1.00  0.00     0.001 A 
HETATM   30  C   UNL     1     -39.612  49.789 -52.393  1.00  0.00     0.003 A 
HETATM   31  C   UNL     1     -39.555  50.959 -51.634  1.00  0.00     0.037 A 
BRANCH  27  32
HETATM   32  C   UNL     1     -40.417  53.589 -54.279  1.00  0.00     0.067 C 
BRANCH  32  33
HETATM   33  C   UNL     1     -41.853  53.688 -54.717  1.00  0.00    -0.032 C 
HETATM   34  C   UNL     1     -42.790  54.410 -54.088  1.00  0.00     0.007 C 
ENDBRANCH  32  33
ENDBRANCH  27  32
ENDBRANCH  25  26
ENDBRANCH  24  25
ENDBRANCH  23  24
ENDBRANCH  21  22
ENDBRANCH   2  21
TORSDOF 11
ENDMDL
MODEL 6
REMARK VINA RESULT:      -7.1      2.004      8.032
REMARK  11 active torsions:
REMARK  status: ('A' for Active; 'I' for Inactive)
REMARK    1  A    between atoms: O_2  and  C_3 
REMARK    2  A    between atoms: C_5  and  C_6 
REMARK    3  A    between atoms: C_10  and  C_11 
REMARK       I    between atoms: C_11  and  N_12 
REMARK    4  A    between atoms: N_12  and  C_13 
REMARK    5  A    between atoms: C_13  and  C_14 
REMARK    6  A    between atoms: C_15  and  C_16 
REMARK    7  A    between atoms: C_16  and  O_17 
REMARK    8  A    between atoms: O_17  and  C_18 
REMARK    9  A    between atoms: C_19  and  C_20 
REMARK   10  A    between atoms: C_20  and  C_21 
REMARK   11  A    between atoms: C_29  and  O_30 
ROOT
HETATM    1  C   UNL     1     -44.435  57.738 -52.034  1.00  0.00     0.270 C 
HETATM    2  N   UNL     1     -44.262  58.307 -53.270  1.00  0.00    -0.345 N 
HETATM    3  O   UNL     1     -45.384  58.012 -51.306  1.00  0.00    -0.266 OA
HETATM    4  H   UNL     1     -43.441  58.087 -53.814  1.00  0.00     0.163 HD
ENDROOT
BRANCH   1   5
HETATM    5  C   UNL     1     -43.414  56.808 -51.632  1.00  0.00     0.120 A 
HETATM    6  N   UNL     1     -42.336  57.209 -50.892  1.00  0.00    -0.272 N 
HETATM    7  N   UNL     1     -41.434  56.245 -50.658  1.00  0.00    -0.174 NA
HETATM    8  H   UNL     1     -42.153  58.146 -50.545  1.00  0.00     0.189 HD
HETATM    9  C   UNL     1     -41.963  55.154 -51.231  1.00  0.00     0.092 A 
HETATM   10  C   UNL     1     -43.208  55.460 -51.846  1.00  0.00     0.071 A 
BRANCH   9  11
HETATM   11  C   UNL     1     -41.254  53.880 -51.268  1.00  0.00     0.030 A 
HETATM   12  C   UNL     1     -40.878  53.364 -52.520  1.00  0.00     0.053 A 
HETATM   13  C   UNL     1     -40.174  52.163 -52.626  1.00  0.00     0.069 A 
HETATM   14  C   UNL     1     -39.851  51.459 -51.467  1.00  0.00     0.039 A 
HETATM   15  C   UNL     1     -40.228  51.957 -50.213  1.00  0.00     0.040 A 
HETATM   16  C   UNL     1     -40.917  53.171 -50.105  1.00  0.00     0.081 A 
BRANCH  13  17
HETATM   17  O   UNL     1     -39.878  51.787 -53.907  1.00  0.00    -0.356 OA
HETATM   18  C   UNL     1     -39.968  50.400 -54.207  1.00  0.00     0.210 C 
ENDBRANCH  13  17
BRANCH  16  19
HETATM   19  O   UNL     1     -41.361  53.643 -48.896  1.00  0.00    -0.355 OA
HETATM   20  C   UNL     1     -40.324  53.905 -47.954  1.00  0.00     0.210 C 
ENDBRANCH  16  19
ENDBRANCH   9  11
ENDBRANCH   1   5
BRANCH   2  21
HETATM   21  C   UNL     1     -45.120  59.364 -53.737  1.00  0.00     0.217 C 
BRANCH  21  22
HETATM   22  C   UNL     1     -45.305  59.254 -55.185  1.00  0.00    -0.085 C 
HETATM   23  C   UNL     1     -45.489  59.119 -56.365  1.00  0.00    -0.078 C 
BRANCH  23  24
HETATM   24  C   UNL     1     -45.760  58.897 -57.792  1.00  0.00     0.269 C 
BRANCH  24  25
HETATM   25  O   UNL     1     -44.610  58.362 -58.457  1.00  0.00    -0.339 OA
BRANCH  25  26
HETATM   26  C   UNL     1     -44.798  57.199 -59.162  1.00  0.00     0.076 A 
HETATM   27  C   UNL     1     -43.892  56.153 -58.917  1.00  0.00    -0.021 A 
HETATM   28  C   UNL     1     -44.050  54.936 -59.603  1.00  0.00     0.010 A 
HETATM   29  C   UNL     1     -45.108  54.751 -60.492  1.00  0.00     0.001 A 
HETATM   30  C   UNL     1     -46.018  55.780 -60.708  1.00  0.00     0.003 A 
HETATM   31  C   UNL     1     -45.866  56.998 -60.043  1.00  0.00     0.037 A 
BRANCH  27  32
HETATM   32  C   UNL     1     -42.720  56.314 -57.973  1.00  0.00     0.067 C 
BRANCH  32  33
HETATM   33  C   UNL     1     -42.860  55.459 -56.743  1.00  0.00    -0.032 C 
HETATM   34  C   UNL     1     -42.730  55.909 -55.488  1.00  0.00     0.007 C 
ENDBRANCH  32  33
ENDBRANCH  27  32
ENDBRANCH  25  26
ENDBRANCH  24  25
ENDBRANCH  23  24
ENDBRANCH  21  22
ENDBRANCH   2  21
TORSDOF 11
ENDMDL
MODEL 7
REMARK VINA RESULT:      -6.8      4.832      8.223
REMARK  11 active torsions:
REMARK  status: ('A' for Active; 'I' for Inactive)
REMARK    1  A    between atoms: O_2  and  C_3 
REMARK    2  A    between atoms: C_5  and  C_6 
REMARK    3  A    between atoms: C_10  and  C_11 
REMARK       I    between atoms: C_11  and  N_12 
REMARK    4  A    between atoms: N_12  and  C_13 
REMARK    5  A    between atoms: C_13  and  C_14 
REMARK    6  A    between atoms: C_15  and  C_16 
REMARK    7  A    between atoms: C_16  and  O_17 
REMARK    8  A    between atoms: O_17  and  C_18 
REMARK    9  A    between atoms: C_19  and  C_20 
REMARK   10  A    between atoms: C_20  and  C_21 
REMARK   11  A    between atoms: C_29  and  O_30 
ROOT
HETATM    1  C   UNL     1     -42.176  60.371 -52.385  1.00  0.00     0.270 C 
HETATM    2  N   UNL     1     -41.314  59.405 -51.931  1.00  0.00    -0.345 N 
HETATM    3  O   UNL     1     -42.262  60.679 -53.569  1.00  0.00    -0.266 OA
HETATM    4  H   UNL     1     -41.244  59.219 -50.942  1.00  0.00     0.163 HD
ENDROOT
BRANCH   1   5
HETATM    5  C   UNL     1     -42.966  61.021 -51.373  1.00  0.00     0.120 A 
HETATM    6  N   UNL     1     -42.883  62.370 -51.162  1.00  0.00    -0.272 N 
HETATM    7  N   UNL     1     -43.624  62.818 -50.138  1.00  0.00    -0.174 NA
HETATM    8  H   UNL     1     -42.308  63.030 -51.677  1.00  0.00     0.189 HD
HETATM    9  C   UNL     1     -44.252  61.724 -49.684  1.00  0.00     0.092 A 
HETATM   10  C   UNL     1     -43.875  60.576 -50.435  1.00  0.00     0.071 A 
BRANCH   9  11
HETATM   11  C   UNL     1     -45.116  61.759 -48.510  1.00  0.00     0.030 A 
HETATM   12  C   UNL     1     -44.614  61.253 -47.298  1.00  0.00     0.053 A 
HETATM   13  C   UNL     1     -45.378  61.282 -46.131  1.00  0.00     0.069 A 
HETATM   14  C   UNL     1     -46.666  61.811 -46.173  1.00  0.00     0.039 A 
HETATM   15  C   UNL     1     -47.183  62.311 -47.375  1.00  0.00     0.040 A 
HETATM   16  C   UNL     1     -46.411  62.299 -48.542  1.00  0.00     0.081 A 
BRANCH  13  17
HETATM   17  O   UNL     1     -44.758  60.755 -45.031  1.00  0.00    -0.356 OA
HETATM   18  C   UNL     1     -44.171  61.676 -44.121  1.00  0.00     0.210 C 
ENDBRANCH  13  17
BRANCH  16  19
HETATM   19  O   UNL     1     -46.919  62.714 -49.747  1.00  0.00    -0.355 OA
HETATM   20  C   UNL     1     -47.306  64.085 -49.778  1.00  0.00     0.210 C 
ENDBRANCH  16  19
ENDBRANCH   9  11
ENDBRANCH   1   5
BRANCH   2  21
HETATM   21  C   UNL     1     -40.357  58.781 -52.807  1.00  0.00     0.217 C 
BRANCH  21  22
HETATM   22  C   UNL     1     -40.939  57.579 -53.407  1.00  0.00    -0.085 C 
HETATM   23  C   UNL     1     -41.369  56.585 -53.928  1.00  0.00    -0.078 C 
BRANCH  23  24
HETATM   24  C   UNL     1     -41.829  55.361 -54.598  1.00  0.00     0.269 C 
BRANCH  24  25
HETATM   25  O   UNL     1     -42.240  54.375 -53.645  1.00  0.00    -0.339 OA
BRANCH  25  26
HETATM   26  C   UNL     1     -41.298  53.446 -53.281  1.00  0.00     0.076 A 
HETATM   27  C   UNL     1     -41.000  53.343 -51.912  1.00  0.00    -0.021 A 
HETATM   28  C   UNL     1     -40.052  52.396 -51.487  1.00  0.00     0.010 A 
HETATM   29  C   UNL     1     -39.434  51.546 -52.402  1.00  0.00     0.001 A 
HETATM   30  C   UNL     1     -39.754  51.632 -53.752  1.00  0.00     0.003 A 
HETATM   31  C   UNL     1     -40.685  52.576 -54.190  1.00  0.00     0.037 A 
BRANCH  27  32
HETATM   32  C   UNL     1     -41.634  54.256 -50.884  1.00  0.00     0.067 C 
BRANCH  32  33
HETATM   33  C   UNL     1     -40.635  54.759 -49.879  1.00  0.00    -0.032 C 
HETATM   34  C   UNL     1     -40.714  54.547 -48.558  1.00  0.00     0.007 C 
ENDBRANCH  32  33
ENDBRANCH  27  32
ENDBRANCH  25  26
ENDBRANCH  24  25
ENDBRANCH  23  24
ENDBRANCH  21  22
ENDBRANCH   2  21
TORSDOF 11
ENDMDL
MODEL 8
REMARK VINA RESULT:      -6.8      1.569      2.841
REMARK  11 active torsions:
REMARK  status: ('A' for Active; 'I' for Inactive)
REMARK    1  A    between atoms: O_2  and  C_3 
REMARK    2  A    between atoms: C_5  and  C_6 
REMARK    3  A    between atoms: C_10  and  C_11 
REMARK       I    between atoms: C_11  and  N_12 
REMARK    4  A    between atoms: N_12  and  C_13 
REMARK    5  A    between atoms: C_13  and  C_14 
REMARK    6  A    between atoms: C_15  and  C_16 
REMARK    7  A    between atoms: C_16  and  O_17 
REMARK    8  A    between atoms: O_17  and  C_18 
REMARK    9  A    between atoms: C_19  and  C_20 
REMARK   10  A    between atoms: C_20  and  C_21 
REMARK   11  A    between atoms: C_29  and  O_30 
ROOT
HETATM    1  C   UNL     1     -44.394  58.546 -53.278  1.00  0.00     0.270 C 
HETATM    2  N   UNL     1     -43.642  57.511 -52.784  1.00  0.00    -0.345 N 
HETATM    3  O   UNL     1     -45.084  59.265 -52.562  1.00  0.00    -0.266 OA
HETATM    4  H   UNL     1     -43.127  56.917 -53.416  1.00  0.00     0.163 HD
ENDROOT
BRANCH   1   5
HETATM    5  C   UNL     1     -44.340  58.726 -54.704  1.00  0.00     0.120 A 
HETATM    6  N   UNL     1     -45.463  59.013 -55.430  1.00  0.00    -0.272 N 
HETATM    7  N   UNL     1     -45.266  59.079 -56.755  1.00  0.00    -0.174 NA
HETATM    8  H   UNL     1     -46.402  59.147 -55.066  1.00  0.00     0.189 HD
HETATM    9  C   UNL     1     -43.951  58.868 -56.902  1.00  0.00     0.092 A 
HETATM   10  C   UNL     1     -43.329  58.650 -55.641  1.00  0.00     0.071 A 
BRANCH   9  11
HETATM   11  C   UNL     1     -43.323  58.785 -58.216  1.00  0.00     0.030 A 
HETATM   12  C   UNL     1     -42.659  59.922 -58.709  1.00  0.00     0.053 A 
HETATM   13  C   UNL     1     -42.015  59.903 -59.947  1.00  0.00     0.069 A 
HETATM   14  C   UNL     1     -42.043  58.737 -60.711  1.00  0.00     0.039 A 
HETATM   15  C   UNL     1     -42.708  57.600 -60.236  1.00  0.00     0.040 A 
HETATM   16  C   UNL     1     -43.339  57.613 -58.987  1.00  0.00     0.081 A 
BRANCH  13  17
HETATM   17  O   UNL     1     -41.412  61.080 -60.295  1.00  0.00    -0.356 OA
HETATM   18  C   UNL     1     -41.482  62.141 -59.351  1.00  0.00     0.210 C 
ENDBRANCH  13  17
BRANCH  16  19
HETATM   19  O   UNL     1     -44.059  56.537 -58.531  1.00  0.00    -0.355 OA
HETATM   20  C   UNL     1     -44.048  55.413 -59.407  1.00  0.00     0.210 C 
ENDBRANCH  16  19
ENDBRANCH   9  11
ENDBRANCH   1   5
BRANCH   2  21
HETATM   21  C   UNL     1     -43.719  57.120 -51.400  1.00  0.00     0.217 C 
BRANCH  21  22
HETATM   22  C   UNL     1     -43.024  55.847 -51.202  1.00  0.00    -0.085 C 
HETATM   23  C   UNL     1     -42.407  54.830 -51.036  1.00  0.00    -0.078 C 
BRANCH  23  24
HETATM   24  C   UNL     1     -41.588  53.627 -50.825  1.00  0.00     0.269 C 
BRANCH  24  25
HETATM   25  O   UNL     1     -40.482  53.593 -51.735  1.00  0.00    -0.339 OA
BRANCH  25  26
HETATM   26  C   UNL     1     -40.241  52.395 -52.357  1.00  0.00     0.076 A 
HETATM   27  C   UNL     1     -40.623  52.289 -53.706  1.00  0.00    -0.021 A 
HETATM   28  C   UNL     1     -40.384  51.086 -54.393  1.00  0.00     0.010 A 
HETATM   29  C   UNL     1     -39.748  50.018 -53.761  1.00  0.00     0.001 A 
HETATM   30  C   UNL     1     -39.345  50.139 -52.436  1.00  0.00     0.003 A 
HETATM   31  C   UNL     1     -39.587  51.324 -51.737  1.00  0.00     0.037 A 
BRANCH  27  32
HETATM   32  C   UNL     1     -41.331  53.416 -54.427  1.00  0.00     0.067 C 
BRANCH  32  33
HETATM   33  C   UNL     1     -40.399  54.547 -54.766  1.00  0.00    -0.032 C 
HETATM   34  C   UNL     1     -40.683  55.844 -54.588  1.00  0.00     0.007 C 
ENDBRANCH  32  33
ENDBRANCH  27  32
ENDBRANCH  25  26
ENDBRANCH  24  25
ENDBRANCH  23  24
ENDBRANCH  21  22
ENDBRANCH   2  21
TORSDOF 11
ENDMDL
MODEL 9
REMARK VINA RESULT:      -6.8      2.258      8.219
REMARK  11 active torsions:
REMARK  status: ('A' for Active; 'I' for Inactive)
REMARK    1  A    between atoms: O_2  and  C_3 
REMARK    2  A    between atoms: C_5  and  C_6 
REMARK    3  A    between atoms: C_10  and  C_11 
REMARK       I    between atoms: C_11  and  N_12 
REMARK    4  A    between atoms: N_12  and  C_13 
REMARK    5  A    between atoms: C_13  and  C_14 
REMARK    6  A    between atoms: C_15  and  C_16 
REMARK    7  A    between atoms: C_16  and  O_17 
REMARK    8  A    between atoms: O_17  and  C_18 
REMARK    9  A    between atoms: C_19  and  C_20 
REMARK   10  A    between atoms: C_20  and  C_21 
REMARK   11  A    between atoms: C_29  and  O_30 
ROOT
HETATM    1  C   UNL     1     -44.003  57.846 -54.875  1.00  0.00     0.270 C 
HETATM    2  N   UNL     1     -43.080  58.611 -55.541  1.00  0.00    -0.345 N 
HETATM    3  O   UNL     1     -45.153  58.223 -54.672  1.00  0.00    -0.266 OA
HETATM    4  H   UNL     1     -42.133  58.280 -55.644  1.00  0.00     0.163 HD
ENDROOT
BRANCH   1   5
HETATM    5  C   UNL     1     -43.529  56.571 -54.406  1.00  0.00     0.120 A 
HETATM    6  N   UNL     1     -44.359  55.487 -54.329  1.00  0.00    -0.272 N 
HETATM    7  N   UNL     1     -43.792  54.390 -53.805  1.00  0.00    -0.174 NA
HETATM    8  H   UNL     1     -45.338  55.453 -54.597  1.00  0.00     0.189 HD
HETATM    9  C   UNL     1     -42.525  54.757 -53.568  1.00  0.00     0.092 A 
HETATM   10  C   UNL     1     -42.314  56.114 -53.938  1.00  0.00     0.071 A 
BRANCH   9  11
HETATM   11  C   UNL     1     -41.569  53.864 -52.922  1.00  0.00     0.030 A 
HETATM   12  C   UNL     1     -40.900  52.918 -53.717  1.00  0.00     0.053 A 
HETATM   13  C   UNL     1     -39.954  52.052 -53.167  1.00  0.00     0.069 A 
HETATM   14  C   UNL     1     -39.679  52.121 -51.802  1.00  0.00     0.039 A 
HETATM   15  C   UNL     1     -40.345  53.053 -50.997  1.00  0.00     0.040 A 
HETATM   16  C   UNL     1     -41.281  53.935 -51.551  1.00  0.00     0.081 A 
BRANCH  13  17
HETATM   17  O   UNL     1     -39.385  51.187 -54.061  1.00  0.00    -0.356 OA
HETATM   18  C   UNL     1     -39.889  49.857 -54.080  1.00  0.00     0.210 C 
ENDBRANCH  13  17
BRANCH  16  19
HETATM   19  O   UNL     1     -41.999  54.806 -50.772  1.00  0.00    -0.355 OA
HETATM   20  C   UNL     1     -41.508  54.943 -49.441  1.00  0.00     0.210 C 
ENDBRANCH  16  19
ENDBRANCH   9  11
ENDBRANCH   1   5
BRANCH   2  21
HETATM   21  C   UNL     1     -43.369  59.966 -55.932  1.00  0.00     0.217 C 
BRANCH  21  22
HETATM   22  C   UNL     1     -43.294  60.093 -57.389  1.00  0.00    -0.085 C 
HETATM   23  C   UNL     1     -43.255  60.247 -58.580  1.00  0.00    -0.078 C 
BRANCH  23  24
HETATM   24  C   UNL     1     -43.237  60.505 -60.027  1.00  0.00     0.269 C 
BRANCH  24  25
HETATM   25  O   UNL     1     -43.977  59.505 -60.736  1.00  0.00    -0.339 OA
BRANCH  25  26
HETATM   26  C   UNL     1     -43.766  58.204 -60.356  1.00  0.00     0.076 A 
HETATM   27  C   UNL     1     -44.902  57.443 -60.032  1.00  0.00    -0.021 A 
HETATM   28  C   UNL     1     -44.740  56.100 -59.651  1.00  0.00     0.010 A 
HETATM   29  C   UNL     1     -43.475  55.514 -59.622  1.00  0.00     0.001 A 
HETATM   30  C   UNL     1     -42.358  56.264 -59.973  1.00  0.00     0.003 A 
HETATM   31  C   UNL     1     -42.503  57.603 -60.342  1.00  0.00     0.037 A 
BRANCH  27  32
HETATM   32  C   UNL     1     -46.293  58.041 -60.033  1.00  0.00     0.067 C 
BRANCH  32  33
HETATM   33  C   UNL     1     -46.633  58.689 -58.718  1.00  0.00    -0.032 C 
HETATM   34  C   UNL     1     -47.149  58.041 -57.665  1.00  0.00     0.007 C 
ENDBRANCH  32  33
ENDBRANCH  27  32
ENDBRANCH  25  26
ENDBRANCH  24  25
ENDBRANCH  23  24
ENDBRANCH  21  22
ENDBRANCH   2  21
TORSDOF 11
ENDMDL
MODEL 10
REMARK VINA RESULT:      -6.7      2.603      8.014
REMARK  11 active torsions:
REMARK  status: ('A' for Active; 'I' for Inactive)
REMARK    1  A    between atoms: O_2  and  C_3 
REMARK    2  A    between atoms: C_5  and  C_6 
REMARK    3  A    between atoms: C_10  and  C_11 
REMARK       I    between atoms: C_11  and  N_12 
REMARK    4  A    between atoms: N_12  and  C_13 
REMARK    5  A    between atoms: C_13  and  C_14 
REMARK    6  A    between atoms: C_15  and  C_16 
REMARK    7  A    between atoms: C_16  and  O_17 
REMARK    8  A    between atoms: O_17  and  C_18 
REMARK    9  A    between atoms: C_19  and  C_20 
REMARK   10  A    between atoms: C_20  and  C_21 
REMARK   11  A    between atoms: C_29  and  O_30 
ROOT
HETATM    1  C   UNL     1     -42.810  56.646 -57.209  1.00  0.00     0.270 C 
HETATM    2  N   UNL     1     -41.870  57.643 -57.260  1.00  0.00    -0.345 N 
HETATM    3  O   UNL     1     -43.836  56.669 -57.881  1.00  0.00    -0.266 OA
HETATM    4  H   UNL     1     -41.063  57.605 -56.654  1.00  0.00     0.163 HD
ENDROOT
BRANCH   1   5
HETATM    5  C   UNL     1     -42.525  55.571 -56.296  1.00  0.00     0.120 A 
HETATM    6  N   UNL     1     -43.424  54.563 -56.080  1.00  0.00    -0.272 N 
HETATM    7  N   UNL     1     -43.048  53.675 -55.148  1.00  0.00    -0.174 NA
HETATM    8  H   UNL     1     -44.329  54.452 -56.527  1.00  0.00     0.189 HD
HETATM    9  C   UNL     1     -41.832  54.093 -54.767  1.00  0.00     0.092 A 
HETATM   10  C   UNL     1     -41.462  55.274 -55.468  1.00  0.00     0.071 A 
BRANCH   9  11
HETATM   11  C   UNL     1     -41.088  53.435 -53.700  1.00  0.00     0.030 A 
HETATM   12  C   UNL     1     -40.571  52.151 -53.942  1.00  0.00     0.053 A 
HETATM   13  C   UNL     1     -39.826  51.476 -52.973  1.00  0.00     0.069 A 
HETATM   14  C   UNL     1     -39.603  52.086 -51.740  1.00  0.00     0.039 A 
HETATM   15  C   UNL     1     -40.120  53.361 -51.481  1.00  0.00     0.040 A 
HETATM   16  C   UNL     1     -40.851  54.046 -52.459  1.00  0.00     0.081 A 
BRANCH  13  17
HETATM   17  O   UNL     1     -39.389  50.237 -53.351  1.00  0.00    -0.356 OA
HETATM   18  C   UNL     1     -39.795  49.775 -54.633  1.00  0.00     0.210 C 
ENDBRANCH  13  17
BRANCH  16  19
HETATM   19  O   UNL     1     -41.430  55.264 -52.205  1.00  0.00    -0.355 OA
HETATM   20  C   UNL     1     -41.129  55.798 -50.919  1.00  0.00     0.210 C 
ENDBRANCH  16  19
ENDBRANCH   9  11
ENDBRANCH   1   5
BRANCH   2  21
HETATM   21  C   UNL     1     -42.094  58.849 -58.012  1.00  0.00     0.217 C 
BRANCH  21  22
HETATM   22  C   UNL     1     -42.536  59.921 -57.118  1.00  0.00    -0.085 C 
HETATM   23  C   UNL     1     -42.913  60.762 -56.347  1.00  0.00    -0.078 C 
BRANCH  23  24
HETATM   24  C   UNL     1     -43.391  61.735 -55.354  1.00  0.00     0.269 C 
BRANCH  24  25
HETATM   25  O   UNL     1     -44.170  61.093 -54.338  1.00  0.00    -0.339 OA
BRANCH  25  26
HETATM   26  C   UNL     1     -43.634  61.081 -53.075  1.00  0.00     0.076 A 
HETATM   27  C   UNL     1     -42.949  59.917 -52.685  1.00  0.00    -0.021 A 
HETATM   28  C   UNL     1     -42.369  59.861 -51.405  1.00  0.00     0.010 A 
HETATM   29  C   UNL     1     -42.442  60.952 -50.541  1.00  0.00     0.001 A 
HETATM   30  C   UNL     1     -43.095  62.111 -50.944  1.00  0.00     0.003 A 
HETATM   31  C   UNL     1     -43.686  62.177 -52.207  1.00  0.00     0.037 A 
BRANCH  27  32
HETATM   32  C   UNL     1     -42.859  58.702 -53.583  1.00  0.00     0.067 C 
BRANCH  32  33
HETATM   33  C   UNL     1     -44.020  57.765 -53.388  1.00  0.00    -0.032 C 
HETATM   34  C   UNL     1     -44.968  57.529 -54.305  1.00  0.00     0.007 C 
ENDBRANCH  32  33
ENDBRANCH  27  32
ENDBRANCH  25  26
ENDBRANCH  24  25
ENDBRANCH  23  24
ENDBRANCH  21  22
ENDBRANCH   2  21
TORSDOF 11
ENDMDL
