MODEL 1
REMARK VINA RESULT:      -7.5      0.000      0.000
REMARK  6 active torsions:
REMARK  status: ('A' for Active; 'I' for Inactive)
REMARK    1  A    between atoms: N_2  and  C_4 
REMARK    2  A    between atoms: N_2  and  C_11 
REMARK    3  A    between atoms: C_4  and  C_5 
REMARK    4  A    between atoms: C_5  and  O_6 
REMARK    5  A    between atoms: C_11  and  C_12 
REMARK    6  A    between atoms: C_13  and  C_14 
ROOT
HETATM    1  C   UNL     1     -41.696  55.723 -54.808  1.00  0.00     0.016 A 
HETATM    2  C   UNL     1     -41.857  54.304 -54.692  1.00  0.00     0.096 A 
HETATM    3  N   UNL     1     -42.914  53.888 -55.398  1.00  0.00    -0.174 NA
HETATM    4  N   UNL     1     -43.374  54.974 -56.022  1.00  0.00    -0.288 N 
HETATM    5  H   UNL     1     -44.165  54.868 -56.652  1.00  0.00     0.188 HD
HETATM    6  C   UNL     1     -42.683  56.108 -55.699  1.00  0.00     0.120 A 
ENDROOT
BRANCH   1   7
HETATM    7  C   UNL     1     -40.675  56.565 -54.129  1.00  0.00     0.277 C 
BRANCH   7   8
HETATM    8  N   UNL     1     -41.238  57.586 -53.160  1.00  0.00    -0.068 N 
HETATM    9  C   UNL     1     -41.130  58.988 -53.711  1.00  0.00     0.270 C 
HETATM   10  H   UNL     1     -40.648  57.549 -52.325  1.00  0.00     0.279 HD
BRANCH   8  11
HETATM   11  C   UNL     1     -42.663  57.211 -52.754  1.00  0.00     0.272 C 
BRANCH  11  12
HETATM   12  C   UNL     1     -42.786  56.722 -51.292  1.00  0.00     0.082 C 
HETATM   13  C   UNL     1     -43.229  55.254 -51.235  1.00  0.00     0.039 C 
HETATM   14  C   UNL     1     -42.775  54.794 -49.858  1.00  0.00     0.003 C 
HETATM   15  C   UNL     1     -41.427  55.473 -49.670  1.00  0.00     0.003 C 
HETATM   16  C   UNL     1     -41.468  56.759 -50.505  1.00  0.00     0.039 C 
BRANCH  12  17
HETATM   17  O   UNL     1     -43.760  57.528 -50.621  1.00  0.00    -0.388 OA
HETATM   18  H   UNL     1     -44.643  57.127 -50.732  1.00  0.00     0.210 HD
ENDBRANCH  12  17
ENDBRANCH  11  12
ENDBRANCH   8  11
ENDBRANCH   7   8
ENDBRANCH   1   7
BRANCH   2  19
HETATM   19  C   UNL     1     -41.057  53.352 -53.923  1.00  0.00    -0.003 A 
HETATM   20  C   UNL     1     -40.657  52.134 -54.486  1.00  0.00     0.037 A 
HETATM   21  C   UNL     1     -39.877  51.246 -53.743  1.00  0.00     0.035 A 
HETATM   22 CL   UNL     1     -39.369  49.767 -54.462  1.00  0.00    -0.084 Cl
HETATM   23  C   UNL     1     -39.503  51.548 -52.436  1.00  0.00     0.024 A 
HETATM   24  C   UNL     1     -39.920  52.748 -51.862  1.00  0.00     0.003 A 
HETATM   25  C   UNL     1     -40.694  53.645 -52.601  1.00  0.00     0.014 A 
ENDBRANCH   2  19
TORSDOF 6
ENDMDL
MODEL 2
REMARK VINA RESULT:      -7.4      2.328      4.403
REMARK  6 active torsions:
REMARK  status: ('A' for Active; 'I' for Inactive)
REMARK    1  A    between atoms: N_2  and  C_4 
REMARK    2  A    between atoms: N_2  and  C_11 
REMARK    3  A    between atoms: C_4  and  C_5 
REMARK    4  A    between atoms: C_5  and  O_6 
REMARK    5  A    between atoms: C_11  and  C_12 
REMARK    6  A    between atoms: C_13  and  C_14 
ROOT
HETATM    1  C   UNL     1     -41.139  55.117 -50.405  1.00  0.00     0.016 A 
HETATM    2  C   UNL     1     -40.498  53.858 -50.652  1.00  0.00     0.096 A 
HETATM    3  N   UNL     1     -40.032  53.334 -49.513  1.00  0.00    -0.174 NA
HETATM    4  N   UNL     1     -40.428  54.169 -48.550  1.00  0.00    -0.288 N 
HETATM    5  H   UNL     1     -40.205  53.931 -47.586  1.00  0.00     0.188 HD
HETATM    6  C   UNL     1     -41.091  55.262 -49.030  1.00  0.00     0.120 A 
ENDROOT
BRANCH   1   7
HETATM    7  C   UNL     1     -41.731  56.030 -51.419  1.00  0.00     0.277 C 
BRANCH   7   8
HETATM    8  N   UNL     1     -43.128  55.654 -51.870  1.00  0.00    -0.068 N 
HETATM    9  C   UNL     1     -44.038  55.392 -50.693  1.00  0.00     0.270 C 
HETATM   10  H   UNL     1     -43.040  54.770 -52.378  1.00  0.00     0.279 HD
BRANCH   8  11
HETATM   11  C   UNL     1     -43.683  56.703 -52.833  1.00  0.00     0.272 C 
BRANCH  11  12
HETATM   12  C   UNL     1     -43.945  56.165 -54.259  1.00  0.00     0.082 C 
HETATM   13  C   UNL     1     -42.937  56.742 -55.261  1.00  0.00     0.039 C 
HETATM   14  C   UNL     1     -42.962  55.747 -56.412  1.00  0.00     0.003 C 
HETATM   15  C   UNL     1     -43.075  54.394 -55.724  1.00  0.00     0.003 C 
HETATM   16  C   UNL     1     -43.793  54.643 -54.392  1.00  0.00     0.039 C 
BRANCH  12  17
HETATM   17  O   UNL     1     -45.266  56.546 -54.656  1.00  0.00    -0.388 OA
HETATM   18  H   UNL     1     -45.720  56.971 -53.903  1.00  0.00     0.210 HD
ENDBRANCH  12  17
ENDBRANCH  11  12
ENDBRANCH   8  11
ENDBRANCH   7   8
ENDBRANCH   1   7
BRANCH   2  19
HETATM   19  C   UNL     1     -40.303  53.163 -51.922  1.00  0.00    -0.003 A 
HETATM   20  C   UNL     1     -39.976  51.802 -51.952  1.00  0.00     0.037 A 
HETATM   21  C   UNL     1     -39.813  51.150 -53.176  1.00  0.00     0.035 A 
HETATM   22 CL   UNL     1     -39.442  49.471 -53.193  1.00  0.00    -0.084 Cl
HETATM   23  C   UNL     1     -39.955  51.843 -54.375  1.00  0.00     0.024 A 
HETATM   24  C   UNL     1     -40.255  53.205 -54.352  1.00  0.00     0.003 A 
HETATM   25  C   UNL     1     -40.428  53.861 -53.132  1.00  0.00     0.014 A 
ENDBRANCH   2  19
TORSDOF 6
ENDMDL
MODEL 3
REMARK VINA RESULT:      -7.2      2.632      5.179
REMARK  6 active torsions:
REMARK  status: ('A' for Active; 'I' for Inactive)
REMARK    1  A    between atoms: N_2  and  C_4 
REMARK    2  A    between atoms: N_2  and  C_11 
REMARK    3  A    between atoms: C_4  and  C_5 
REMARK    4  A    between atoms: C_5  and  O_6 
REMARK    5  A    between atoms: C_11  and  C_12 
REMARK    6  A    between atoms: C_13  and  C_14 
ROOT
HETATM    1  C   UNL     1     -40.918  55.201 -53.653  1.00  0.00     0.016 A 
HETATM    2  C   UNL     1     -40.736  54.165 -52.680  1.00  0.00     0.096 A 
HETATM    3  N   UNL     1     -40.927  54.639 -51.444  1.00  0.00    -0.174 NA
HETATM    4  N   UNL     1     -41.304  55.909 -51.604  1.00  0.00    -0.288 N 
HETATM    5  H   UNL     1     -41.540  56.449 -50.775  1.00  0.00     0.188 HD
HETATM    6  C   UNL     1     -41.310  56.303 -52.913  1.00  0.00     0.120 A 
ENDROOT
BRANCH   1   7
HETATM    7  C   UNL     1     -40.740  55.084 -55.126  1.00  0.00     0.277 C 
BRANCH   7   8
HETATM    8  N   UNL     1     -42.025  55.153 -55.927  1.00  0.00    -0.068 N 
HETATM    9  C   UNL     1     -43.128  54.355 -55.271  1.00  0.00     0.270 C 
HETATM   10  H   UNL     1     -41.829  54.705 -56.826  1.00  0.00     0.279 HD
BRANCH   8  11
HETATM   11  C   UNL     1     -42.415  56.606 -56.193  1.00  0.00     0.272 C 
BRANCH  11  12
HETATM   12  C   UNL     1     -43.082  56.830 -57.571  1.00  0.00     0.082 C 
HETATM   13  C   UNL     1     -42.411  57.984 -58.328  1.00  0.00     0.039 C 
HETATM   14  C   UNL     1     -42.771  57.718 -59.782  1.00  0.00     0.003 C 
HETATM   15  C   UNL     1     -42.676  56.205 -59.912  1.00  0.00     0.003 C 
HETATM   16  C   UNL     1     -42.974  55.630 -58.522  1.00  0.00     0.039 C 
BRANCH  12  17
HETATM   17  O   UNL     1     -44.462  57.149 -57.364  1.00  0.00    -0.388 OA
HETATM   18  H   UNL     1     -45.017  56.446 -57.752  1.00  0.00     0.210 HD
ENDBRANCH  12  17
ENDBRANCH  11  12
ENDBRANCH   8  11
ENDBRANCH   7   8
ENDBRANCH   1   7
BRANCH   2  19
HETATM   19  C   UNL     1     -40.371  52.765 -52.890  1.00  0.00    -0.003 A 
HETATM   20  C   UNL     1     -39.971  51.960 -51.817  1.00  0.00     0.037 A 
HETATM   21  C   UNL     1     -39.646  50.620 -52.034  1.00  0.00     0.035 A 
HETATM   22 CL   UNL     1     -39.185  49.638 -50.699  1.00  0.00    -0.084 Cl
HETATM   23  C   UNL     1     -39.698  50.074 -53.314  1.00  0.00     0.024 A 
HETATM   24  C   UNL     1     -40.072  50.877 -54.390  1.00  0.00     0.003 A 
HETATM   25  C   UNL     1     -40.406  52.216 -54.180  1.00  0.00     0.014 A 
ENDBRANCH   2  19
TORSDOF 6
ENDMDL
MODEL 4
REMARK VINA RESULT:      -7.1      1.293      1.917
REMARK  6 active torsions:
REMARK  status: ('A' for Active; 'I' for Inactive)
REMARK    1  A    between atoms: N_2  and  C_4 
REMARK    2  A    between atoms: N_2  and  C_11 
REMARK    3  A    between atoms: C_4  and  C_5 
REMARK    4  A    between atoms: C_5  and  O_6 
REMARK    5  A    between atoms: C_11  and  C_12 
REMARK    6  A    between atoms: C_13  and  C_14 
ROOT
HETATM    1  C   UNL     1     -41.760  55.639 -55.029  1.00  0.00     0.016 A 
HETATM    2  C   UNL     1     -41.968  54.252 -54.734  1.00  0.00     0.096 A 
HETATM    3  N   UNL     1     -43.070  53.799 -55.341  1.00  0.00    -0.174 NA
HETATM    4  N   UNL     1     -43.517  54.822 -56.074  1.00  0.00    -0.288 N 
HETATM    5  H   UNL     1     -44.339  54.674 -56.654  1.00  0.00     0.188 HD
HETATM    6  C   UNL     1     -42.771  55.956 -55.919  1.00  0.00     0.120 A 
ENDROOT
BRANCH   1   7
HETATM    7  C   UNL     1     -40.678  56.512 -54.499  1.00  0.00     0.277 C 
BRANCH   7   8
HETATM    8  N   UNL     1     -41.162  57.697 -53.687  1.00  0.00    -0.068 N 
HETATM    9  C   UNL     1     -41.650  58.815 -54.578  1.00  0.00     0.270 C 
HETATM   10  H   UNL     1     -40.346  58.055 -53.184  1.00  0.00     0.279 HD
BRANCH   8  11
HETATM   11  C   UNL     1     -42.201  57.255 -52.658  1.00  0.00     0.272 C 
BRANCH  11  12
HETATM   12  C   UNL     1     -42.045  57.939 -51.280  1.00  0.00     0.082 C 
HETATM   13  C   UNL     1     -40.589  58.354 -51.032  1.00  0.00     0.039 C 
HETATM   14  C   UNL     1     -40.700  59.445 -49.976  1.00  0.00     0.003 C 
HETATM   15  C   UNL     1     -41.940  60.225 -50.385  1.00  0.00     0.003 C 
HETATM   16  C   UNL     1     -42.848  59.239 -51.131  1.00  0.00     0.039 C 
BRANCH  12  17
HETATM   17  O   UNL     1     -42.445  57.015 -50.263  1.00  0.00    -0.388 OA
HETATM   18  H   UNL     1     -41.817  56.268 -50.241  1.00  0.00     0.210 HD
ENDBRANCH  12  17
ENDBRANCH  11  12
ENDBRANCH   8  11
ENDBRANCH   7   8
ENDBRANCH   1   7
BRANCH   2  19
HETATM   19  C   UNL     1     -41.170  53.366 -53.888  1.00  0.00    -0.003 A 
HETATM   20  C   UNL     1     -40.654  52.166 -54.392  1.00  0.00     0.037 A 
HETATM   21  C   UNL     1     -39.878  51.343 -53.575  1.00  0.00     0.035 A 
HETATM   22 CL   UNL     1     -39.228  49.887 -54.221  1.00  0.00    -0.084 Cl
HETATM   23  C   UNL     1     -39.623  51.691 -52.251  1.00  0.00     0.024 A 
HETATM   24  C   UNL     1     -40.155  52.872 -51.735  1.00  0.00     0.003 A 
HETATM   25  C   UNL     1     -40.926  53.706 -52.550  1.00  0.00     0.014 A 
ENDBRANCH   2  19
TORSDOF 6
ENDMDL
MODEL 5
REMARK VINA RESULT:      -7.1      2.162      3.930
REMARK  6 active torsions:
REMARK  status: ('A' for Active; 'I' for Inactive)
REMARK    1  A    between atoms: N_2  and  C_4 
REMARK    2  A    between atoms: N_2  and  C_11 
REMARK    3  A    between atoms: C_4  and  C_5 
REMARK    4  A    between atoms: C_5  and  O_6 
REMARK    5  A    between atoms: C_11  and  C_12 
REMARK    6  A    between atoms: C_13  and  C_14 
ROOT
HETATM    1  C   UNL     1     -41.458  54.330 -51.341  1.00  0.00     0.016 A 
HETATM    2  C   UNL     1     -40.417  53.441 -50.917  1.00  0.00     0.096 A 
HETATM    3  N   UNL     1     -39.629  54.033 -50.012  1.00  0.00    -0.174 NA
HETATM    4  N   UNL     1     -40.183  55.227 -49.787  1.00  0.00    -0.288 N 
HETATM    5  H   UNL     1     -39.754  55.832 -49.091  1.00  0.00     0.188 HD
HETATM    6  C   UNL     1     -41.282  55.461 -50.565  1.00  0.00     0.120 A 
ENDROOT
BRANCH   1   7
HETATM    7  C   UNL     1     -42.496  54.061 -52.373  1.00  0.00     0.277 C 
BRANCH   7   8
HETATM    8  N   UNL     1     -42.294  54.800 -53.681  1.00  0.00    -0.068 N 
HETATM    9  C   UNL     1     -42.374  53.864 -54.864  1.00  0.00     0.270 C 
HETATM   10  H   UNL     1     -41.340  55.170 -53.660  1.00  0.00     0.279 HD
BRANCH   8  11
HETATM   11  C   UNL     1     -43.260  55.979 -53.786  1.00  0.00     0.272 C 
BRANCH  11  12
HETATM   12  C   UNL     1     -42.560  57.357 -53.831  1.00  0.00     0.082 C 
HETATM   13  C   UNL     1     -42.900  58.191 -52.588  1.00  0.00     0.039 C 
HETATM   14  C   UNL     1     -41.764  59.200 -52.509  1.00  0.00     0.003 C 
HETATM   15  C   UNL     1     -40.534  58.400 -52.910  1.00  0.00     0.003 C 
HETATM   16  C   UNL     1     -41.026  57.281 -53.836  1.00  0.00     0.039 C 
BRANCH  12  17
HETATM   17  O   UNL     1     -43.004  58.058 -54.997  1.00  0.00    -0.388 OA
HETATM   18  H   UNL     1     -43.967  57.938 -55.098  1.00  0.00     0.210 HD
ENDBRANCH  12  17
ENDBRANCH  11  12
ENDBRANCH   8  11
ENDBRANCH   7   8
ENDBRANCH   1   7
BRANCH   2  19
HETATM   19  C   UNL     1     -40.143  52.074 -51.357  1.00  0.00    -0.003 A 
HETATM   20  C   UNL     1     -39.959  51.780 -52.713  1.00  0.00     0.037 A 
HETATM   21  C   UNL     1     -39.679  50.473 -53.112  1.00  0.00     0.035 A 
HETATM   22 CL   UNL     1     -39.425  50.136 -54.780  1.00  0.00    -0.084 Cl
HETATM   23  C   UNL     1     -39.597  49.445 -52.175  1.00  0.00     0.024 A 
HETATM   24  C   UNL     1     -39.805  49.727 -50.825  1.00  0.00     0.003 A 
HETATM   25  C   UNL     1     -40.077  51.035 -50.418  1.00  0.00     0.014 A 
ENDBRANCH   2  19
TORSDOF 6
ENDMDL
MODEL 6
REMARK VINA RESULT:      -6.8      2.515      5.027
REMARK  6 active torsions:
REMARK  status: ('A' for Active; 'I' for Inactive)
REMARK    1  A    between atoms: N_2  and  C_4 
REMARK    2  A    between atoms: N_2  and  C_11 
REMARK    3  A    between atoms: C_4  and  C_5 
REMARK    4  A    between atoms: C_5  and  O_6 
REMARK    5  A    between atoms: C_11  and  C_12 
REMARK    6  A    between atoms: C_13  and  C_14 
ROOT
HETATM    1  C   UNL     1     -42.020  58.968 -52.946  1.00  0.00     0.016 A 
HETATM    2  C   UNL     1     -42.411  58.549 -51.633  1.00  0.00     0.096 A 
HETATM    3  N   UNL     1     -42.772  59.600 -50.888  1.00  0.00    -0.174 NA
HETATM    4  N   UNL     1     -42.705  60.654 -51.705  1.00  0.00    -0.288 N 
HETATM    5  H   UNL     1     -42.980  61.562 -51.341  1.00  0.00     0.188 HD
HETATM    6  C   UNL     1     -42.252  60.333 -52.954  1.00  0.00     0.120 A 
ENDROOT
BRANCH   1   7
HETATM    7  C   UNL     1     -41.504  58.105 -54.042  1.00  0.00     0.277 C 
BRANCH   7   8
HETATM    8  N   UNL     1     -42.432  56.978 -54.450  1.00  0.00    -0.068 N 
HETATM    9  C   UNL     1     -43.760  57.505 -54.940  1.00  0.00     0.270 C 
HETATM   10  H   UNL     1     -42.623  56.439 -53.601  1.00  0.00     0.279 HD
BRANCH   8  11
HETATM   11  C   UNL     1     -41.747  56.055 -55.457  1.00  0.00     0.272 C 
BRANCH  11  12
HETATM   12  C   UNL     1     -41.723  54.570 -55.026  1.00  0.00     0.082 C 
HETATM   13  C   UNL     1     -40.373  53.920 -55.359  1.00  0.00     0.039 C 
HETATM   14  C   UNL     1     -40.309  52.723 -54.422  1.00  0.00     0.003 C 
HETATM   15  C   UNL     1     -40.913  53.240 -53.125  1.00  0.00     0.003 C 
HETATM   16  C   UNL     1     -41.893  54.353 -53.516  1.00  0.00     0.039 C 
BRANCH  12  17
HETATM   17  O   UNL     1     -42.759  53.874 -55.725  1.00  0.00    -0.388 OA
HETATM   18  H   UNL     1     -43.595  53.953 -55.227  1.00  0.00     0.210 HD
ENDBRANCH  12  17
ENDBRANCH  11  12
ENDBRANCH   8  11
ENDBRANCH   7   8
ENDBRANCH   1   7
BRANCH   2  19
HETATM   19  C   UNL     1     -42.431  57.200 -51.070  1.00  0.00    -0.003 A 
HETATM   20  C   UNL     1     -41.256  56.601 -50.601  1.00  0.00     0.037 A 
HETATM   21  C   UNL     1     -41.299  55.320 -50.049  1.00  0.00     0.035 A 
HETATM   22 CL   UNL     1     -39.850  54.612 -49.449  1.00  0.00    -0.084 Cl
HETATM   23  C   UNL     1     -42.499  54.617 -49.974  1.00  0.00     0.024 A 
HETATM   24  C   UNL     1     -43.668  55.198 -50.462  1.00  0.00     0.003 A 
HETATM   25  C   UNL     1     -43.634  56.483 -51.008  1.00  0.00     0.014 A 
ENDBRANCH   2  19
TORSDOF 6
ENDMDL
MODEL 7
REMARK VINA RESULT:      -6.7      1.398      1.855
REMARK  6 active torsions:
REMARK  status: ('A' for Active; 'I' for Inactive)
REMARK    1  A    between atoms: N_2  and  C_4 
REMARK    2  A    between atoms: N_2  and  C_11 
REMARK    3  A    between atoms: C_4  and  C_5 
REMARK    4  A    between atoms: C_5  and  O_6 
REMARK    5  A    between atoms: C_11  and  C_12 
REMARK    6  A    between atoms: C_13  and  C_14 
ROOT
HETATM    1  C   UNL     1     -42.186  56.264 -54.383  1.00  0.00     0.016 A 
HETATM    2  C   UNL     1     -42.420  54.894 -54.036  1.00  0.00     0.096 A 
HETATM    3  N   UNL     1     -43.678  54.541 -54.325  1.00  0.00    -0.174 NA
HETATM    4  N   UNL     1     -44.218  55.609 -54.917  1.00  0.00    -0.288 N 
HETATM    5  H   UNL     1     -45.175  55.537 -55.255  1.00  0.00     0.188 HD
HETATM    6  C   UNL     1     -43.368  56.677 -54.972  1.00  0.00     0.120 A 
ENDROOT
BRANCH   1   7
HETATM    7  C   UNL     1     -40.934  57.039 -54.165  1.00  0.00     0.277 C 
BRANCH   7   8
HETATM    8  N   UNL     1     -40.928  57.892 -52.913  1.00  0.00    -0.068 N 
HETATM    9  C   UNL     1     -39.622  58.634 -52.755  1.00  0.00     0.270 C 
HETATM   10  H   UNL     1     -40.999  57.247 -52.122  1.00  0.00     0.279 HD
BRANCH   8  11
HETATM   11  C   UNL     1     -42.146  58.815 -52.885  1.00  0.00     0.272 C 
BRANCH  11  12
HETATM   12  C   UNL     1     -43.097  58.557 -51.693  1.00  0.00     0.082 C 
HETATM   13  C   UNL     1     -44.560  58.786 -52.093  1.00  0.00     0.039 C 
HETATM   14  C   UNL     1     -45.345  57.992 -51.060  1.00  0.00     0.003 C 
HETATM   15  C   UNL     1     -44.515  56.733 -50.857  1.00  0.00     0.003 C 
HETATM   16  C   UNL     1     -43.062  57.117 -51.163  1.00  0.00     0.039 C 
BRANCH  12  17
HETATM   17  O   UNL     1     -42.758  59.460 -50.635  1.00  0.00    -0.388 OA
HETATM   18  H   UNL     1     -43.514  59.538 -50.023  1.00  0.00     0.210 HD
ENDBRANCH  12  17
ENDBRANCH  11  12
ENDBRANCH   8  11
ENDBRANCH   7   8
ENDBRANCH   1   7
BRANCH   2  19
HETATM   19  C   UNL     1     -41.502  53.932 -53.430  1.00  0.00    -0.003 A 
HETATM   20  C   UNL     1     -41.110  52.780 -54.122  1.00  0.00     0.037 A 
HETATM   21  C   UNL     1     -40.216  51.883 -53.534  1.00  0.00     0.035 A 
HETATM   22 CL   UNL     1     -39.723  50.488 -54.412  1.00  0.00    -0.084 Cl
HETATM   23  C   UNL     1     -39.719  52.110 -52.253  1.00  0.00     0.024 A 
HETATM   24  C   UNL     1     -40.124  53.243 -51.549  1.00  0.00     0.003 A 
HETATM   25  C   UNL     1     -41.012  54.149 -52.134  1.00  0.00     0.014 A 
ENDBRANCH   2  19
TORSDOF 6
ENDMDL
MODEL 8
REMARK VINA RESULT:      -6.6     14.621     16.817
REMARK  6 active torsions:
REMARK  status: ('A' for Active; 'I' for Inactive)
REMARK    1  A    between atoms: N_2  and  C_4 
REMARK    2  A    between atoms: N_2  and  C_11 
REMARK    3  A    between atoms: C_4  and  C_5 
REMARK    4  A    between atoms: C_5  and  O_6 
REMARK    5  A    between atoms: C_11  and  C_12 
REMARK    6  A    between atoms: C_13  and  C_14 
ROOT
HETATM    1  C   UNL     1     -36.814  39.658 -52.670  1.00  0.00     0.016 A 
HETATM    2  C   UNL     1     -37.324  40.687 -53.527  1.00  0.00     0.096 A 
HETATM    3  N   UNL     1     -38.461  41.192 -53.035  1.00  0.00    -0.174 NA
HETATM    4  N   UNL     1     -38.642  40.581 -51.863  1.00  0.00    -0.288 N 
HETATM    5  H   UNL     1     -39.444  40.852 -51.299  1.00  0.00     0.188 HD
HETATM    6  C   UNL     1     -37.685  39.643 -51.595  1.00  0.00     0.120 A 
ENDROOT
BRANCH   1   7
HETATM    7  C   UNL     1     -35.605  38.822 -52.900  1.00  0.00     0.277 C 
BRANCH   7   8
HETATM    8  N   UNL     1     -34.289  39.527 -52.637  1.00  0.00    -0.068 N 
HETATM    9  C   UNL     1     -34.043  39.705 -51.157  1.00  0.00     0.270 C 
HETATM   10  H   UNL     1     -34.379  40.465 -53.037  1.00  0.00     0.279 HD
BRANCH   8  11
HETATM   11  C   UNL     1     -33.144  38.812 -53.352  1.00  0.00     0.272 C 
BRANCH  11  12
HETATM   12  C   UNL     1     -32.526  39.627 -54.512  1.00  0.00     0.082 C 
HETATM   13  C   UNL     1     -31.139  39.090 -54.887  1.00  0.00     0.039 C 
HETATM   14  C   UNL     1     -30.933  39.587 -56.311  1.00  0.00     0.003 C 
HETATM   15  C   UNL     1     -32.305  39.440 -56.952  1.00  0.00     0.003 C 
HETATM   16  C   UNL     1     -33.330  39.567 -55.818  1.00  0.00     0.039 C 
BRANCH  12  17
HETATM   17  O   UNL     1     -32.399  40.991 -54.095  1.00  0.00    -0.388 OA
HETATM   18  H   UNL     1     -33.251  41.449 -54.229  1.00  0.00     0.210 HD
ENDBRANCH  12  17
ENDBRANCH  11  12
ENDBRANCH   8  11
ENDBRANCH   7   8
ENDBRANCH   1   7
BRANCH   2  19
HETATM   19  C   UNL     1     -36.778  41.182 -54.789  1.00  0.00    -0.003 A 
HETATM   20  C   UNL     1     -37.280  40.729 -56.015  1.00  0.00     0.037 A 
HETATM   21  C   UNL     1     -36.760  41.228 -57.210  1.00  0.00     0.035 A 
HETATM   22 CL   UNL     1     -37.411  40.683 -58.705  1.00  0.00    -0.084 Cl
HETATM   23  C   UNL     1     -35.727  42.163 -57.200  1.00  0.00     0.024 A 
HETATM   24  C   UNL     1     -35.205  42.600 -55.984  1.00  0.00     0.003 A 
HETATM   25  C   UNL     1     -35.727  42.111 -54.784  1.00  0.00     0.014 A 
ENDBRANCH   2  19
TORSDOF 6
ENDMDL
MODEL 9
REMARK VINA RESULT:      -6.6      2.292      3.184
REMARK  6 active torsions:
REMARK  status: ('A' for Active; 'I' for Inactive)
REMARK    1  A    between atoms: N_2  and  C_4 
REMARK    2  A    between atoms: N_2  and  C_11 
REMARK    3  A    between atoms: C_4  and  C_5 
REMARK    4  A    between atoms: C_5  and  O_6 
REMARK    5  A    between atoms: C_11  and  C_12 
REMARK    6  A    between atoms: C_13  and  C_14 
ROOT
HETATM    1  C   UNL     1     -42.252  56.127 -54.021  1.00  0.00     0.016 A 
HETATM    2  C   UNL     1     -42.241  54.700 -54.165  1.00  0.00     0.096 A 
HETATM    3  N   UNL     1     -43.210  54.301 -54.997  1.00  0.00    -0.174 NA
HETATM    4  N   UNL     1     -43.775  55.423 -55.447  1.00  0.00    -0.288 N 
HETATM    5  H   UNL     1     -44.521  55.343 -56.133  1.00  0.00     0.188 HD
HETATM    6  C   UNL     1     -43.243  56.551 -54.889  1.00  0.00     0.120 A 
ENDROOT
BRANCH   1   7
HETATM    7  C   UNL     1     -41.370  56.942 -53.143  1.00  0.00     0.277 C 
BRANCH   7   8
HETATM    8  N   UNL     1     -41.974  57.305 -51.801  1.00  0.00    -0.068 N 
HETATM    9  C   UNL     1     -41.021  57.007 -50.668  1.00  0.00     0.270 C 
HETATM   10  H   UNL     1     -42.785  56.694 -51.674  1.00  0.00     0.279 HD
BRANCH   8  11
HETATM   11  C   UNL     1     -42.463  58.752 -51.806  1.00  0.00     0.272 C 
BRANCH  11  12
HETATM   12  C   UNL     1     -43.966  58.903 -51.474  1.00  0.00     0.082 C 
HETATM   13  C   UNL     1     -44.224  60.165 -50.640  1.00  0.00     0.039 C 
HETATM   14  C   UNL     1     -45.699  60.457 -50.873  1.00  0.00     0.003 C 
HETATM   15  C   UNL     1     -45.908  60.133 -52.345  1.00  0.00     0.003 C 
HETATM   16  C   UNL     1     -44.867  59.066 -52.707  1.00  0.00     0.039 C 
BRANCH  12  17
HETATM   17  O   UNL     1     -44.387  57.757 -50.727  1.00  0.00    -0.388 OA
HETATM   18  H   UNL     1     -43.607  57.219 -50.495  1.00  0.00     0.210 HD
ENDBRANCH  12  17
ENDBRANCH  11  12
ENDBRANCH   8  11
ENDBRANCH   7   8
ENDBRANCH   1   7
BRANCH   2  19
HETATM   19  C   UNL     1     -41.361  53.722 -53.528  1.00  0.00    -0.003 A 
HETATM   20  C   UNL     1     -41.271  53.640 -52.133  1.00  0.00     0.037 A 
HETATM   21  C   UNL     1     -40.440  52.687 -51.543  1.00  0.00     0.035 A 
HETATM   22 CL   UNL     1     -40.365  52.581 -49.827  1.00  0.00    -0.084 Cl
HETATM   23  C   UNL     1     -39.681  51.821 -52.327  1.00  0.00     0.024 A 
HETATM   24  C   UNL     1     -39.747  51.915 -53.716  1.00  0.00     0.003 A 
HETATM   25  C   UNL     1     -40.583  52.861 -54.314  1.00  0.00     0.014 A 
ENDBRANCH   2  19
TORSDOF 6
ENDMDL
MODEL 10
REMARK VINA RESULT:      -6.6      3.063      5.304
REMARK  6 active torsions:
REMARK  status: ('A' for Active; 'I' for Inactive)
REMARK    1  A    between atoms: N_2  and  C_4 
REMARK    2  A    between atoms: N_2  and  C_11 
REMARK    3  A    between atoms: C_4  and  C_5 
REMARK    4  A    between atoms: C_5  and  O_6 
REMARK    5  A    between atoms: C_11  and  C_12 
REMARK    6  A    between atoms: C_13  and  C_14 
ROOT
HETATM    1  C   UNL     1     -42.373  55.877 -53.789  1.00  0.00     0.016 A 
HETATM    2  C   UNL     1     -42.288  54.924 -52.723  1.00  0.00     0.096 A 
HETATM    3  N   UNL     1     -43.244  55.145 -51.814  1.00  0.00    -0.174 NA
HETATM    4  N   UNL     1     -43.978  56.145 -52.306  1.00  0.00    -0.288 N 
HETATM    5  H   UNL     1     -44.793  56.448 -51.779  1.00  0.00     0.188 HD
HETATM    6  C   UNL     1     -43.495  56.629 -53.489  1.00  0.00     0.120 A 
ENDROOT
BRANCH   1   7
HETATM    7  C   UNL     1     -41.456  55.996 -54.956  1.00  0.00     0.277 C 
BRANCH   7   8
HETATM    8  N   UNL     1     -42.109  55.749 -56.301  1.00  0.00    -0.068 N 
HETATM    9  C   UNL     1     -43.122  54.631 -56.227  1.00  0.00     0.270 C 
HETATM   10  H   UNL     1     -41.366  55.433 -56.929  1.00  0.00     0.279 HD
BRANCH   8  11
HETATM   11  C   UNL     1     -42.690  57.046 -56.863  1.00  0.00     0.272 C 
BRANCH  11  12
HETATM   12  C   UNL     1     -42.720  57.098 -58.408  1.00  0.00     0.082 C 
HETATM   13  C   UNL     1     -44.161  57.176 -58.930  1.00  0.00     0.039 C 
HETATM   14  C   UNL     1     -44.007  57.761 -60.326  1.00  0.00     0.003 C 
HETATM   15  C   UNL     1     -42.909  58.802 -60.168  1.00  0.00     0.003 C 
HETATM   16  C   UNL     1     -42.025  58.329 -59.008  1.00  0.00     0.039 C 
BRANCH  12  17
HETATM   17  O   UNL     1     -42.104  55.911 -58.918  1.00  0.00    -0.388 OA
HETATM   18  H   UNL     1     -41.160  56.087 -59.093  1.00  0.00     0.210 HD
ENDBRANCH  12  17
ENDBRANCH  11  12
ENDBRANCH   8  11
ENDBRANCH   7   8
ENDBRANCH   1   7
BRANCH   2  19
HETATM   19  C   UNL     1     -41.327  53.838 -52.539  1.00  0.00    -0.003 A 
HETATM   20  C   UNL     1     -41.139  52.871 -53.533  1.00  0.00     0.037 A 
HETATM   21  C   UNL     1     -40.202  51.853 -53.348  1.00  0.00     0.035 A 
HETATM   22 CL   UNL     1     -39.963  50.691 -54.593  1.00  0.00    -0.084 Cl
HETATM   23  C   UNL     1     -39.459  51.775 -52.172  1.00  0.00     0.024 A 
HETATM   24  C   UNL     1     -39.659  52.721 -51.168  1.00  0.00     0.003 A 
HETATM   25  C   UNL     1     -40.589  53.747 -51.350  1.00  0.00     0.014 A 
ENDBRANCH   2  19
TORSDOF 6
ENDMDL
