MODEL 1
REMARK VINA RESULT:      -8.3      0.000      0.000
REMARK  6 active torsions:
REMARK  status: ('A' for Active; 'I' for Inactive)
REMARK    1  A    between atoms: C_2  and  O_3 
REMARK    2  A    between atoms: C_2  and  C_4 
REMARK    3  A    between atoms: C_2  and  C_11 
REMARK    4  A    between atoms: C_11  and  N_12 
REMARK       I    between atoms: N_12  and  C_13 
REMARK    5  A    between atoms: C_13  and  C_14 
REMARK    6  A    between atoms: C_18  and  C_19 
ROOT
HETATM    1  N   UNL     1     -42.113  56.500 -56.924  1.00  0.00    -0.352 N 
HETATM    2  C   UNL     1     -41.963  56.968 -55.640  1.00  0.00     0.272 C 
HETATM    3  O   UNL     1     -42.180  58.133 -55.314  1.00  0.00    -0.266 OA
HETATM    4  H   UNL     1     -42.024  55.494 -57.048  1.00  0.00     0.162 HD
ENDROOT
BRANCH   2   5
HETATM    5  C   UNL     1     -41.537  55.940 -54.679  1.00  0.00     0.146 A 
HETATM    6  N   UNL     1     -41.416  56.186 -53.360  1.00  0.00    -0.169 NA
HETATM    7  N   UNL     1     -41.001  55.016 -52.848  1.00  0.00    -0.277 N 
HETATM    8  H   UNL     1     -40.814  54.972 -51.852  1.00  0.00     0.189 HD
HETATM    9  C   UNL     1     -40.859  54.008 -53.767  1.00  0.00     0.063 A 
HETATM   10  C   UNL     1     -41.193  54.596 -54.973  1.00  0.00     0.071 A 
BRANCH   9  11
HETATM   11  C   UNL     1     -40.415  52.654 -53.442  1.00  0.00    -0.008 A 
HETATM   12  C   UNL     1     -39.939  52.330 -52.161  1.00  0.00     0.017 A 
HETATM   13  C   UNL     1     -39.520  51.030 -51.865  1.00  0.00     0.043 A 
HETATM   14  C   UNL     1     -39.576  50.050 -52.847  1.00  0.00     0.116 A 
HETATM   15  F   UNL     1     -39.174  48.804 -52.561  1.00  0.00    -0.206 F 
HETATM   16  C   UNL     1     -40.047  50.344 -54.119  1.00  0.00     0.043 A 
HETATM   17  C   UNL     1     -40.467  51.643 -54.414  1.00  0.00     0.017 A 
ENDBRANCH   9  11
ENDBRANCH   2   5
BRANCH   1  18
HETATM   18  C   UNL     1     -42.658  57.296 -58.010  1.00  0.00     0.165 C 
BRANCH  18  19
HETATM   19  C   UNL     1     -43.380  56.447 -59.105  1.00  0.00     0.099 C 
HETATM   20  C   UNL     1     -43.510  54.990 -58.631  1.00  0.00     0.053 C 
BRANCH  19  21
HETATM   21  O   UNL     1     -42.491  56.490 -60.237  1.00  0.00    -0.384 OA
HETATM   22  H   UNL     1     -41.885  57.240 -60.101  1.00  0.00     0.211 HD
ENDBRANCH  19  21
BRANCH  19  23
HETATM   23  C   UNL     1     -44.765  56.990 -59.508  1.00  0.00    -0.001 A 
HETATM   24  C   UNL     1     -45.580  56.385 -60.492  1.00  0.00     0.043 A 
HETATM   25 CL   UNL     1     -45.108  54.970 -61.375  1.00  0.00    -0.084 Cl
HETATM   26  C   UNL     1     -46.847  56.899 -60.808  1.00  0.00     0.024 A 
HETATM   27  C   UNL     1     -47.342  58.019 -60.150  1.00  0.00     0.002 A 
HETATM   28  C   UNL     1     -46.572  58.627 -59.169  1.00  0.00     0.001 A 
HETATM   29  C   UNL     1     -45.307  58.118 -58.851  1.00  0.00     0.012 A 
ENDBRANCH  19  23
ENDBRANCH  18  19
ENDBRANCH   1  18
TORSDOF 6
ENDMDL
MODEL 2
REMARK VINA RESULT:      -8.2      1.754      2.101
REMARK  6 active torsions:
REMARK  status: ('A' for Active; 'I' for Inactive)
REMARK    1  A    between atoms: C_2  and  O_3 
REMARK    2  A    between atoms: C_2  and  C_4 
REMARK    3  A    between atoms: C_2  and  C_11 
REMARK    4  A    between atoms: C_11  and  N_12 
REMARK       I    between atoms: N_12  and  C_13 
REMARK    5  A    between atoms: C_13  and  C_14 
REMARK    6  A    between atoms: C_18  and  C_19 
ROOT
HETATM    1  N   UNL     1     -42.227  57.126 -57.360  1.00  0.00    -0.352 N 
HETATM    2  C   UNL     1     -42.162  57.063 -55.988  1.00  0.00     0.272 C 
HETATM    3  O   UNL     1     -42.207  58.052 -55.261  1.00  0.00    -0.266 OA
HETATM    4  H   UNL     1     -42.303  56.236 -57.847  1.00  0.00     0.162 HD
ENDROOT
BRANCH   2   5
HETATM    5  C   UNL     1     -42.050  55.694 -55.462  1.00  0.00     0.146 A 
HETATM    6  N   UNL     1     -42.911  54.715 -55.801  1.00  0.00    -0.169 NA
HETATM    7  N   UNL     1     -42.477  53.648 -55.110  1.00  0.00    -0.277 N 
HETATM    8  H   UNL     1     -43.001  52.783 -55.192  1.00  0.00     0.189 HD
HETATM    9  C   UNL     1     -41.362  53.876 -54.346  1.00  0.00     0.063 A 
HETATM   10  C   UNL     1     -41.074  55.212 -54.553  1.00  0.00     0.071 A 
BRANCH   9  11
HETATM   11  C   UNL     1     -40.717  52.867 -53.508  1.00  0.00    -0.008 A 
HETATM   12  C   UNL     1     -40.535  53.069 -52.130  1.00  0.00     0.017 A 
HETATM   13  C   UNL     1     -39.919  52.093 -51.342  1.00  0.00     0.043 A 
HETATM   14  C   UNL     1     -39.484  50.911 -51.928  1.00  0.00     0.116 A 
HETATM   15  F   UNL     1     -38.894  49.977 -51.171  1.00  0.00    -0.206 F 
HETATM   16  C   UNL     1     -39.657  50.685 -53.287  1.00  0.00     0.043 A 
HETATM   17  C   UNL     1     -40.275  51.660 -54.074  1.00  0.00     0.017 A 
ENDBRANCH   9  11
ENDBRANCH   2   5
BRANCH   1  18
HETATM   18  C   UNL     1     -42.479  58.352 -58.095  1.00  0.00     0.165 C 
BRANCH  18  19
HETATM   19  C   UNL     1     -42.846  58.117 -59.596  1.00  0.00     0.099 C 
HETATM   20  C   UNL     1     -41.737  57.300 -60.280  1.00  0.00     0.053 C 
BRANCH  19  21
HETATM   21  O   UNL     1     -42.873  59.436 -60.171  1.00  0.00    -0.384 OA
HETATM   22  H   UNL     1     -43.090  60.060 -59.455  1.00  0.00     0.211 HD
ENDBRANCH  19  21
BRANCH  19  23
HETATM   23  C   UNL     1     -44.208  57.427 -59.808  1.00  0.00    -0.001 A 
HETATM   24  C   UNL     1     -45.438  57.996 -59.406  1.00  0.00     0.043 A 
HETATM   25 CL   UNL     1     -45.557  59.532 -58.610  1.00  0.00    -0.084 Cl
HETATM   26  C   UNL     1     -46.658  57.344 -59.642  1.00  0.00     0.024 A 
HETATM   27  C   UNL     1     -46.689  56.115 -60.292  1.00  0.00     0.002 A 
HETATM   28  C   UNL     1     -45.500  55.537 -60.712  1.00  0.00     0.001 A 
HETATM   29  C   UNL     1     -44.282  56.184 -60.477  1.00  0.00     0.012 A 
ENDBRANCH  19  23
ENDBRANCH  18  19
ENDBRANCH   1  18
TORSDOF 6
ENDMDL
MODEL 3
REMARK VINA RESULT:      -8.1      1.554      2.254
REMARK  6 active torsions:
REMARK  status: ('A' for Active; 'I' for Inactive)
REMARK    1  A    between atoms: C_2  and  O_3 
REMARK    2  A    between atoms: C_2  and  C_4 
REMARK    3  A    between atoms: C_2  and  C_11 
REMARK    4  A    between atoms: C_11  and  N_12 
REMARK       I    between atoms: N_12  and  C_13 
REMARK    5  A    between atoms: C_13  and  C_14 
REMARK    6  A    between atoms: C_18  and  C_19 
ROOT
HETATM    1  N   UNL     1     -42.018  56.877 -56.473  1.00  0.00    -0.352 N 
HETATM    2  C   UNL     1     -41.798  57.250 -55.168  1.00  0.00     0.272 C 
HETATM    3  O   UNL     1     -41.908  58.405 -54.765  1.00  0.00    -0.266 OA
HETATM    4  H   UNL     1     -42.018  55.878 -56.661  1.00  0.00     0.162 HD
ENDROOT
BRANCH   2   5
HETATM    5  C   UNL     1     -41.436  56.132 -54.285  1.00  0.00     0.146 A 
HETATM    6  N   UNL     1     -41.388  56.254 -52.944  1.00  0.00    -0.169 NA
HETATM    7  N   UNL     1     -41.012  55.035 -52.521  1.00  0.00    -0.277 N 
HETATM    8  H   UNL     1     -40.883  54.897 -51.524  1.00  0.00     0.189 HD
HETATM    9  C   UNL     1     -40.828  54.115 -53.520  1.00  0.00     0.063 A 
HETATM   10  C   UNL     1     -41.088  54.816 -54.683  1.00  0.00     0.071 A 
BRANCH   9  11
HETATM   11  C   UNL     1     -40.415  52.730 -53.298  1.00  0.00    -0.008 A 
HETATM   12  C   UNL     1     -40.464  51.779 -54.330  1.00  0.00     0.017 A 
HETATM   13  C   UNL     1     -40.063  50.459 -54.101  1.00  0.00     0.043 A 
HETATM   14  C   UNL     1     -39.611  50.087 -52.843  1.00  0.00     0.116 A 
HETATM   15  F   UNL     1     -39.227  48.822 -52.626  1.00  0.00    -0.206 F 
HETATM   16  C   UNL     1     -39.547  51.010 -51.808  1.00  0.00     0.043 A 
HETATM   17  C   UNL     1     -39.946  52.329 -52.036  1.00  0.00     0.017 A 
ENDBRANCH   9  11
ENDBRANCH   2   5
BRANCH   1  18
HETATM   18  C   UNL     1     -42.521  57.783 -57.491  1.00  0.00     0.165 C 
BRANCH  18  19
HETATM   19  C   UNL     1     -44.077  57.932 -57.481  1.00  0.00     0.099 C 
HETATM   20  C   UNL     1     -44.456  59.422 -57.499  1.00  0.00     0.053 C 
BRANCH  19  21
HETATM   21  O   UNL     1     -44.484  57.364 -56.222  1.00  0.00    -0.384 OA
HETATM   22  H   UNL     1     -44.884  58.079 -55.697  1.00  0.00     0.211 HD
ENDBRANCH  19  21
BRANCH  19  23
HETATM   23  C   UNL     1     -44.785  57.200 -58.638  1.00  0.00    -0.001 A 
HETATM   24  C   UNL     1     -46.184  57.231 -58.836  1.00  0.00     0.043 A 
HETATM   25 CL   UNL     1     -47.272  58.084 -57.789  1.00  0.00    -0.084 Cl
HETATM   26  C   UNL     1     -46.785  56.571 -59.919  1.00  0.00     0.024 A 
HETATM   27  C   UNL     1     -46.011  55.871 -60.838  1.00  0.00     0.002 A 
HETATM   28  C   UNL     1     -44.634  55.833 -60.679  1.00  0.00     0.001 A 
HETATM   29  C   UNL     1     -44.032  56.490 -59.600  1.00  0.00     0.012 A 
ENDBRANCH  19  23
ENDBRANCH  18  19
ENDBRANCH   1  18
TORSDOF 6
ENDMDL
MODEL 4
REMARK VINA RESULT:      -8.1      1.796      2.367
REMARK  6 active torsions:
REMARK  status: ('A' for Active; 'I' for Inactive)
REMARK    1  A    between atoms: C_2  and  O_3 
REMARK    2  A    between atoms: C_2  and  C_4 
REMARK    3  A    between atoms: C_2  and  C_11 
REMARK    4  A    between atoms: C_11  and  N_12 
REMARK       I    between atoms: N_12  and  C_13 
REMARK    5  A    between atoms: C_13  and  C_14 
REMARK    6  A    between atoms: C_18  and  C_19 
ROOT
HETATM    1  N   UNL     1     -43.179  56.011 -57.013  1.00  0.00    -0.352 N 
HETATM    2  C   UNL     1     -42.388  56.633 -56.077  1.00  0.00     0.272 C 
HETATM    3  O   UNL     1     -42.180  57.844 -56.061  1.00  0.00    -0.266 OA
HETATM    4  H   UNL     1     -43.375  55.026 -56.852  1.00  0.00     0.162 HD
ENDROOT
BRANCH   2   5
HETATM    5  C   UNL     1     -41.821  55.717 -55.076  1.00  0.00     0.146 A 
HETATM    6  N   UNL     1     -41.510  56.112 -53.826  1.00  0.00    -0.169 NA
HETATM    7  N   UNL     1     -41.020  55.003 -53.248  1.00  0.00    -0.277 N 
HETATM    8  H   UNL     1     -40.690  55.071 -52.291  1.00  0.00     0.189 HD
HETATM    9  C   UNL     1     -41.011  53.894 -54.054  1.00  0.00     0.063 A 
HETATM   10  C   UNL     1     -41.519  54.343 -55.259  1.00  0.00     0.071 A 
BRANCH   9  11
HETATM   11  C   UNL     1     -40.519  52.581 -53.642  1.00  0.00    -0.008 A 
HETATM   12  C   UNL     1     -40.522  51.490 -54.527  1.00  0.00     0.017 A 
HETATM   13  C   UNL     1     -40.046  50.240 -54.117  1.00  0.00     0.043 A 
HETATM   14  C   UNL     1     -39.564  50.079 -52.826  1.00  0.00     0.116 A 
HETATM   15  F   UNL     1     -39.108  48.881 -52.436  1.00  0.00    -0.206 F 
HETATM   16  C   UNL     1     -39.545  51.143 -51.935  1.00  0.00     0.043 A 
HETATM   17  C   UNL     1     -40.019  52.391 -52.344  1.00  0.00     0.017 A 
ENDBRANCH   9  11
ENDBRANCH   2   5
BRANCH   1  18
HETATM   18  C   UNL     1     -43.954  56.727 -58.012  1.00  0.00     0.165 C 
BRANCH  18  19
HETATM   19  C   UNL     1     -43.373  56.606 -59.458  1.00  0.00     0.099 C 
HETATM   20  C   UNL     1     -44.238  55.642 -60.286  1.00  0.00     0.053 C 
BRANCH  19  21
HETATM   21  O   UNL     1     -42.071  56.021 -59.274  1.00  0.00    -0.384 OA
HETATM   22  H   UNL     1     -42.180  55.247 -58.693  1.00  0.00     0.211 HD
ENDBRANCH  19  21
BRANCH  19  23
HETATM   23  C   UNL     1     -43.241  57.953 -60.195  1.00  0.00    -0.001 A 
HETATM   24  C   UNL     1     -44.344  58.781 -60.503  1.00  0.00     0.043 A 
HETATM   25 CL   UNL     1     -45.980  58.369 -60.103  1.00  0.00    -0.084 Cl
HETATM   26  C   UNL     1     -44.175  60.013 -61.154  1.00  0.00     0.024 A 
HETATM   27  C   UNL     1     -42.907  60.460 -61.505  1.00  0.00     0.002 A 
HETATM   28  C   UNL     1     -41.802  59.677 -61.204  1.00  0.00     0.001 A 
HETATM   29  C   UNL     1     -41.967  58.447 -60.556  1.00  0.00     0.012 A 
ENDBRANCH  19  23
ENDBRANCH  18  19
ENDBRANCH   1  18
TORSDOF 6
ENDMDL
MODEL 5
REMARK VINA RESULT:      -8.0      2.423      3.203
REMARK  6 active torsions:
REMARK  status: ('A' for Active; 'I' for Inactive)
REMARK    1  A    between atoms: C_2  and  O_3 
REMARK    2  A    between atoms: C_2  and  C_4 
REMARK    3  A    between atoms: C_2  and  C_11 
REMARK    4  A    between atoms: C_11  and  N_12 
REMARK       I    between atoms: N_12  and  C_13 
REMARK    5  A    between atoms: C_13  and  C_14 
REMARK    6  A    between atoms: C_18  and  C_19 
ROOT
HETATM    1  N   UNL     1     -42.616  57.578 -54.830  1.00  0.00    -0.352 N 
HETATM    2  C   UNL     1     -41.547  57.618 -53.967  1.00  0.00     0.272 C 
HETATM    3  O   UNL     1     -40.888  58.632 -53.753  1.00  0.00    -0.266 OA
HETATM    4  H   UNL     1     -43.159  56.717 -54.833  1.00  0.00     0.162 HD
ENDROOT
BRANCH   2   5
HETATM    5  C   UNL     1     -41.271  56.336 -53.304  1.00  0.00     0.146 A 
HETATM    6  N   UNL     1     -41.372  56.173 -51.970  1.00  0.00    -0.169 NA
HETATM    7  N   UNL     1     -41.032  54.888 -51.773  1.00  0.00    -0.277 N 
HETATM    8  H   UNL     1     -41.011  54.543 -50.820  1.00  0.00     0.189 HD
HETATM    9  C   UNL     1     -40.728  54.196 -52.917  1.00  0.00     0.063 A 
HETATM   10  C   UNL     1     -40.867  55.128 -53.928  1.00  0.00     0.071 A 
BRANCH   9  11
HETATM   11  C   UNL     1     -40.327  52.790 -52.946  1.00  0.00    -0.008 A 
HETATM   12  C   UNL     1     -40.335  52.053 -54.141  1.00  0.00     0.017 A 
HETATM   13  C   UNL     1     -39.946  50.710 -54.152  1.00  0.00     0.043 A 
HETATM   14  C   UNL     1     -39.546  50.102 -52.970  1.00  0.00     0.116 A 
HETATM   15  F   UNL     1     -39.174  48.815 -52.983  1.00  0.00    -0.206 F 
HETATM   16  C   UNL     1     -39.524  50.810 -51.777  1.00  0.00     0.043 A 
HETATM   17  C   UNL     1     -39.911  52.152 -51.766  1.00  0.00     0.017 A 
ENDBRANCH   9  11
ENDBRANCH   2   5
BRANCH   1  18
HETATM   18  C   UNL     1     -43.160  58.752 -55.489  1.00  0.00     0.165 C 
BRANCH  18  19
HETATM   19  C   UNL     1     -44.127  58.415 -56.670  1.00  0.00     0.099 C 
HETATM   20  C   UNL     1     -44.934  59.666 -57.054  1.00  0.00     0.053 C 
BRANCH  19  21
HETATM   21  O   UNL     1     -45.026  57.430 -56.128  1.00  0.00    -0.384 OA
HETATM   22  H   UNL     1     -44.712  57.212 -55.232  1.00  0.00     0.211 HD
ENDBRANCH  19  21
BRANCH  19  23
HETATM   23  C   UNL     1     -43.420  57.847 -57.917  1.00  0.00    -0.001 A 
HETATM   24  C   UNL     1     -42.390  58.530 -58.603  1.00  0.00     0.043 A 
HETATM   25 CL   UNL     1     -41.812  60.096 -58.133  1.00  0.00    -0.084 Cl
HETATM   26  C   UNL     1     -41.755  57.964 -59.719  1.00  0.00     0.024 A 
HETATM   27  C   UNL     1     -42.119  56.702 -60.177  1.00  0.00     0.002 A 
HETATM   28  C   UNL     1     -43.117  56.001 -59.516  1.00  0.00     0.001 A 
HETATM   29  C   UNL     1     -43.753  56.563 -58.403  1.00  0.00     0.012 A 
ENDBRANCH  19  23
ENDBRANCH  18  19
ENDBRANCH   1  18
TORSDOF 6
ENDMDL
MODEL 6
REMARK VINA RESULT:      -7.9      6.283      7.527
REMARK  6 active torsions:
REMARK  status: ('A' for Active; 'I' for Inactive)
REMARK    1  A    between atoms: C_2  and  O_3 
REMARK    2  A    between atoms: C_2  and  C_4 
REMARK    3  A    between atoms: C_2  and  C_11 
REMARK    4  A    between atoms: C_11  and  N_12 
REMARK       I    between atoms: N_12  and  C_13 
REMARK    5  A    between atoms: C_13  and  C_14 
REMARK    6  A    between atoms: C_18  and  C_19 
ROOT
HETATM    1  N   UNL     1     -44.323  58.398 -51.811  1.00  0.00    -0.352 N 
HETATM    2  C   UNL     1     -44.222  57.132 -51.286  1.00  0.00     0.272 C 
HETATM    3  O   UNL     1     -45.037  56.656 -50.500  1.00  0.00    -0.266 OA
HETATM    4  H   UNL     1     -43.658  58.636 -52.543  1.00  0.00     0.162 HD
ENDROOT
BRANCH   2   5
HETATM    5  C   UNL     1     -43.051  56.383 -51.766  1.00  0.00     0.146 A 
HETATM    6  N   UNL     1     -41.908  56.989 -52.144  1.00  0.00    -0.169 NA
HETATM    7  N   UNL     1     -41.112  55.974 -52.519  1.00  0.00    -0.277 N 
HETATM    8  H   UNL     1     -40.189  56.200 -52.874  1.00  0.00     0.189 HD
HETATM    9  C   UNL     1     -41.672  54.729 -52.390  1.00  0.00     0.063 A 
HETATM   10  C   UNL     1     -42.945  54.976 -51.911  1.00  0.00     0.071 A 
BRANCH   9  11
HETATM   11  C   UNL     1     -40.996  53.482 -52.742  1.00  0.00    -0.008 A 
HETATM   12  C   UNL     1     -40.165  52.819 -51.824  1.00  0.00     0.017 A 
HETATM   13  C   UNL     1     -39.527  51.625 -52.175  1.00  0.00     0.043 A 
HETATM   14  C   UNL     1     -39.719  51.091 -53.442  1.00  0.00     0.116 A 
HETATM   15  F   UNL     1     -39.107  49.947 -53.776  1.00  0.00    -0.206 F 
HETATM   16  C   UNL     1     -40.539  51.725 -54.365  1.00  0.00     0.043 A 
HETATM   17  C   UNL     1     -41.178  52.916 -54.014  1.00  0.00     0.017 A 
ENDBRANCH   9  11
ENDBRANCH   2   5
BRANCH   1  18
HETATM   18  C   UNL     1     -45.466  59.268 -51.592  1.00  0.00     0.165 C 
BRANCH  18  19
HETATM   19  C   UNL     1     -45.319  60.186 -50.335  1.00  0.00     0.099 C 
HETATM   20  C   UNL     1     -43.845  60.582 -50.150  1.00  0.00     0.053 C 
BRANCH  19  21
HETATM   21  O   UNL     1     -45.720  59.352 -49.232  1.00  0.00    -0.384 OA
HETATM   22  H   UNL     1     -46.424  58.762 -49.555  1.00  0.00     0.211 HD
ENDBRANCH  19  21
BRANCH  19  23
HETATM   23  C   UNL     1     -46.197  61.453 -50.379  1.00  0.00    -0.001 A 
HETATM   24  C   UNL     1     -46.388  62.303 -49.266  1.00  0.00     0.043 A 
HETATM   25 CL   UNL     1     -45.669  62.013 -47.715  1.00  0.00    -0.084 Cl
HETATM   26  C   UNL     1     -47.175  63.462 -49.358  1.00  0.00     0.024 A 
HETATM   27  C   UNL     1     -47.785  63.810 -50.558  1.00  0.00     0.002 A 
HETATM   28  C   UNL     1     -47.606  63.003 -51.672  1.00  0.00     0.001 A 
HETATM   29  C   UNL     1     -46.822  61.847 -51.584  1.00  0.00     0.012 A 
ENDBRANCH  19  23
ENDBRANCH  18  19
ENDBRANCH   1  18
TORSDOF 6
ENDMDL
MODEL 7
REMARK VINA RESULT:      -7.8      3.273      4.132
REMARK  6 active torsions:
REMARK  status: ('A' for Active; 'I' for Inactive)
REMARK    1  A    between atoms: C_2  and  O_3 
REMARK    2  A    between atoms: C_2  and  C_4 
REMARK    3  A    between atoms: C_2  and  C_11 
REMARK    4  A    between atoms: C_11  and  N_12 
REMARK       I    between atoms: N_12  and  C_13 
REMARK    5  A    between atoms: C_13  and  C_14 
REMARK    6  A    between atoms: C_18  and  C_19 
ROOT
HETATM    1  N   UNL     1     -42.007  57.500 -57.333  1.00  0.00    -0.352 N 
HETATM    2  C   UNL     1     -42.899  56.457 -57.254  1.00  0.00     0.272 C 
HETATM    3  O   UNL     1     -43.760  56.236 -58.102  1.00  0.00    -0.266 OA
HETATM    4  H   UNL     1     -41.264  57.509 -56.638  1.00  0.00     0.162 HD
ENDROOT
BRANCH   2   5
HETATM    5  C   UNL     1     -42.719  55.611 -56.065  1.00  0.00     0.146 A 
HETATM    6  N   UNL     1     -43.653  55.511 -55.099  1.00  0.00    -0.169 NA
HETATM    7  N   UNL     1     -43.107  54.669 -54.206  1.00  0.00    -0.277 N 
HETATM    8  H   UNL     1     -43.632  54.463 -53.363  1.00  0.00     0.189 HD
HETATM    9  C   UNL     1     -41.865  54.199 -54.549  1.00  0.00     0.063 A 
HETATM   10  C   UNL     1     -41.589  54.813 -55.756  1.00  0.00     0.071 A 
BRANCH   9  11
HETATM   11  C   UNL     1     -41.079  53.278 -53.729  1.00  0.00    -0.008 A 
HETATM   12  C   UNL     1     -40.776  53.570 -52.389  1.00  0.00     0.017 A 
HETATM   13  C   UNL     1     -40.025  52.678 -51.619  1.00  0.00     0.043 A 
HETATM   14  C   UNL     1     -39.576  51.492 -52.184  1.00  0.00     0.116 A 
HETATM   15  F   UNL     1     -38.856  50.638 -51.444  1.00  0.00    -0.206 F 
HETATM   16  C   UNL     1     -39.866  51.178 -53.505  1.00  0.00     0.043 A 
HETATM   17  C   UNL     1     -40.619  52.069 -54.274  1.00  0.00     0.017 A 
ENDBRANCH   9  11
ENDBRANCH   2   5
BRANCH   1  18
HETATM   18  C   UNL     1     -41.903  58.381 -58.483  1.00  0.00     0.165 C 
BRANCH  18  19
HETATM   19  C   UNL     1     -42.322  59.856 -58.180  1.00  0.00     0.099 C 
HETATM   20  C   UNL     1     -42.141  60.150 -56.682  1.00  0.00     0.053 C 
BRANCH  19  21
HETATM   21  O   UNL     1     -43.726  59.902 -58.497  1.00  0.00    -0.384 OA
HETATM   22  H   UNL     1     -43.964  60.837 -58.628  1.00  0.00     0.211 HD
ENDBRANCH  19  21
BRANCH  19  23
HETATM   23  C   UNL     1     -41.564  60.907 -59.014  1.00  0.00    -0.001 A 
HETATM   24  C   UNL     1     -41.717  61.048 -60.412  1.00  0.00     0.043 A 
HETATM   25 CL   UNL     1     -42.765  60.041 -61.357  1.00  0.00    -0.084 Cl
HETATM   26  C   UNL     1     -41.025  62.038 -61.127  1.00  0.00     0.024 A 
HETATM   27  C   UNL     1     -40.172  62.918 -60.473  1.00  0.00     0.002 A 
HETATM   28  C   UNL     1     -40.011  62.815 -59.099  1.00  0.00     0.001 A 
HETATM   29  C   UNL     1     -40.698  61.829 -58.382  1.00  0.00     0.012 A 
ENDBRANCH  19  23
ENDBRANCH  18  19
ENDBRANCH   1  18
TORSDOF 6
ENDMDL
MODEL 8
REMARK VINA RESULT:      -7.8      3.527      8.389
REMARK  6 active torsions:
REMARK  status: ('A' for Active; 'I' for Inactive)
REMARK    1  A    between atoms: C_2  and  O_3 
REMARK    2  A    between atoms: C_2  and  C_4 
REMARK    3  A    between atoms: C_2  and  C_11 
REMARK    4  A    between atoms: C_11  and  N_12 
REMARK       I    between atoms: N_12  and  C_13 
REMARK    5  A    between atoms: C_13  and  C_14 
REMARK    6  A    between atoms: C_18  and  C_19 
ROOT
HETATM    1  N   UNL     1     -41.911  56.318 -53.293  1.00  0.00    -0.352 N 
HETATM    2  C   UNL     1     -41.526  57.479 -53.920  1.00  0.00     0.272 C 
HETATM    3  O   UNL     1     -40.713  58.268 -53.446  1.00  0.00    -0.266 OA
HETATM    4  H   UNL     1     -42.495  55.686 -53.836  1.00  0.00     0.162 HD
ENDROOT
BRANCH   2   5
HETATM    5  C   UNL     1     -42.164  57.685 -55.229  1.00  0.00     0.146 A 
HETATM    6  N   UNL     1     -42.248  58.898 -55.810  1.00  0.00    -0.169 NA
HETATM    7  N   UNL     1     -42.898  58.661 -56.962  1.00  0.00    -0.277 N 
HETATM    8  H   UNL     1     -43.102  59.451 -57.564  1.00  0.00     0.189 HD
HETATM    9  C   UNL     1     -43.230  57.347 -57.171  1.00  0.00     0.063 A 
HETATM   10  C   UNL     1     -42.768  56.694 -56.043  1.00  0.00     0.071 A 
BRANCH   9  11
HETATM   11  C   UNL     1     -43.942  56.856 -58.349  1.00  0.00    -0.008 A 
HETATM   12  C   UNL     1     -45.021  57.568 -58.899  1.00  0.00     0.017 A 
HETATM   13  C   UNL     1     -45.691  57.085 -60.028  1.00  0.00     0.043 A 
HETATM   14  C   UNL     1     -45.284  55.892 -60.609  1.00  0.00     0.116 A 
HETATM   15  F   UNL     1     -45.928  55.431 -61.690  1.00  0.00    -0.206 F 
HETATM   16  C   UNL     1     -44.219  55.172 -60.087  1.00  0.00     0.043 A 
HETATM   17  C   UNL     1     -43.548  55.655 -58.961  1.00  0.00     0.017 A 
ENDBRANCH   9  11
ENDBRANCH   2   5
BRANCH   1  18
HETATM   18  C   UNL     1     -41.312  55.835 -52.061  1.00  0.00     0.165 C 
BRANCH  18  19
HETATM   19  C   UNL     1     -41.805  54.412 -51.642  1.00  0.00     0.099 C 
HETATM   20  C   UNL     1     -43.292  54.252 -51.998  1.00  0.00     0.053 C 
BRANCH  19  21
HETATM   21  O   UNL     1     -41.665  54.391 -50.210  1.00  0.00    -0.384 OA
HETATM   22  H   UNL     1     -40.725  54.548 -50.007  1.00  0.00     0.211 HD
ENDBRANCH  19  21
BRANCH  19  23
HETATM   23  C   UNL     1     -40.993  53.259 -52.264  1.00  0.00    -0.001 A 
HETATM   24  C   UNL     1     -41.129  52.853 -53.611  1.00  0.00     0.043 A 
HETATM   25 CL   UNL     1     -42.239  53.593 -54.718  1.00  0.00    -0.084 Cl
HETATM   26  C   UNL     1     -40.349  51.814 -54.144  1.00  0.00     0.024 A 
HETATM   27  C   UNL     1     -39.409  51.160 -53.356  1.00  0.00     0.002 A 
HETATM   28  C   UNL     1     -39.241  51.545 -52.034  1.00  0.00     0.001 A 
HETATM   29  C   UNL     1     -40.017  52.580 -51.500  1.00  0.00     0.012 A 
ENDBRANCH  19  23
ENDBRANCH  18  19
ENDBRANCH   1  18
TORSDOF 6
ENDMDL
MODEL 9
REMARK VINA RESULT:      -7.8      4.298      8.524
REMARK  6 active torsions:
REMARK  status: ('A' for Active; 'I' for Inactive)
REMARK    1  A    between atoms: C_2  and  O_3 
REMARK    2  A    between atoms: C_2  and  C_4 
REMARK    3  A    between atoms: C_2  and  C_11 
REMARK    4  A    between atoms: C_11  and  N_12 
REMARK       I    between atoms: N_12  and  C_13 
REMARK    5  A    between atoms: C_13  and  C_14 
REMARK    6  A    between atoms: C_18  and  C_19 
ROOT
HETATM    1  N   UNL     1     -41.829  57.595 -52.748  1.00  0.00    -0.352 N 
HETATM    2  C   UNL     1     -41.179  58.476 -53.580  1.00  0.00     0.272 C 
HETATM    3  O   UNL     1     -40.240  59.181 -53.221  1.00  0.00    -0.266 OA
HETATM    4  H   UNL     1     -42.507  56.979 -53.188  1.00  0.00     0.162 HD
ENDROOT
BRANCH   2   5
HETATM    5  C   UNL     1     -41.699  58.485 -54.955  1.00  0.00     0.146 A 
HETATM    6  N   UNL     1     -41.776  59.611 -55.693  1.00  0.00    -0.169 NA
HETATM    7  N   UNL     1     -42.306  59.199 -56.857  1.00  0.00    -0.277 N 
HETATM    8  H   UNL     1     -42.484  59.897 -57.571  1.00  0.00     0.189 HD
HETATM    9  C   UNL     1     -42.566  57.855 -56.924  1.00  0.00     0.063 A 
HETATM   10  C   UNL     1     -42.187  57.372 -55.686  1.00  0.00     0.071 A 
BRANCH   9  11
HETATM   11  C   UNL     1     -43.146  57.185 -58.087  1.00  0.00    -0.008 A 
HETATM   12  C   UNL     1     -43.315  55.792 -58.118  1.00  0.00     0.017 A 
HETATM   13  C   UNL     1     -43.874  55.167 -59.237  1.00  0.00     0.043 A 
HETATM   14  C   UNL     1     -44.267  55.933 -60.326  1.00  0.00     0.116 A 
HETATM   15  F   UNL     1     -44.802  55.332 -61.397  1.00  0.00    -0.206 F 
HETATM   16  C   UNL     1     -44.115  57.313 -60.318  1.00  0.00     0.043 A 
HETATM   17  C   UNL     1     -43.558  57.937 -59.199  1.00  0.00     0.017 A 
ENDBRANCH   9  11
ENDBRANCH   2   5
BRANCH   1  18
HETATM   18  C   UNL     1     -41.401  57.312 -51.389  1.00  0.00     0.165 C 
BRANCH  18  19
HETATM   19  C   UNL     1     -41.930  55.949 -50.839  1.00  0.00     0.099 C 
HETATM   20  C   UNL     1     -43.462  55.895 -50.970  1.00  0.00     0.053 C 
BRANCH  19  21
HETATM   21  O   UNL     1     -41.584  55.967 -49.441  1.00  0.00    -0.384 OA
HETATM   22  H   UNL     1     -41.033  55.183 -49.269  1.00  0.00     0.211 HD
ENDBRANCH  19  21
BRANCH  19  23
HETATM   23  C   UNL     1     -41.306  54.713 -51.516  1.00  0.00    -0.001 A 
HETATM   24  C   UNL     1     -40.264  53.954 -50.937  1.00  0.00     0.043 A 
HETATM   25 CL   UNL     1     -39.555  54.333 -49.401  1.00  0.00    -0.084 Cl
HETATM   26  C   UNL     1     -39.742  52.819 -51.578  1.00  0.00     0.024 A 
HETATM   27  C   UNL     1     -40.247  52.405 -52.805  1.00  0.00     0.002 A 
HETATM   28  C   UNL     1     -41.279  53.122 -53.394  1.00  0.00     0.001 A 
HETATM   29  C   UNL     1     -41.801  54.253 -52.757  1.00  0.00     0.012 A 
ENDBRANCH  19  23
ENDBRANCH  18  19
ENDBRANCH   1  18
TORSDOF 6
ENDMDL
MODEL 10
REMARK VINA RESULT:      -7.8      2.302      3.154
REMARK  6 active torsions:
REMARK  status: ('A' for Active; 'I' for Inactive)
REMARK    1  A    between atoms: C_2  and  O_3 
REMARK    2  A    between atoms: C_2  and  C_4 
REMARK    3  A    between atoms: C_2  and  C_11 
REMARK    4  A    between atoms: C_11  and  N_12 
REMARK       I    between atoms: N_12  and  C_13 
REMARK    5  A    between atoms: C_13  and  C_14 
REMARK    6  A    between atoms: C_18  and  C_19 
ROOT
HETATM    1  N   UNL     1     -41.820  57.731 -54.975  1.00  0.00    -0.352 N 
HETATM    2  C   UNL     1     -42.287  57.508 -53.701  1.00  0.00     0.272 C 
HETATM    3  O   UNL     1     -43.066  58.262 -53.124  1.00  0.00    -0.266 OA
HETATM    4  H   UNL     1     -41.280  56.977 -55.394  1.00  0.00     0.162 HD
ENDROOT
BRANCH   2   5
HETATM    5  C   UNL     1     -41.783  56.268 -53.094  1.00  0.00     0.146 A 
HETATM    6  N   UNL     1     -41.597  56.135 -51.765  1.00  0.00    -0.169 NA
HETATM    7  N   UNL     1     -41.126  54.885 -51.627  1.00  0.00    -0.277 N 
HETATM    8  H   UNL     1     -40.884  54.568 -50.694  1.00  0.00     0.189 HD
HETATM    9  C   UNL     1     -41.009  54.185 -52.801  1.00  0.00     0.063 A 
HETATM   10  C   UNL     1     -41.423  55.076 -53.773  1.00  0.00     0.071 A 
BRANCH   9  11
HETATM   11  C   UNL     1     -40.514  52.813 -52.894  1.00  0.00    -0.008 A 
HETATM   12  C   UNL     1     -40.570  52.097 -54.102  1.00  0.00     0.017 A 
HETATM   13  C   UNL     1     -40.091  50.786 -54.175  1.00  0.00     0.043 A 
HETATM   14  C   UNL     1     -39.553  50.187 -53.044  1.00  0.00     0.116 A 
HETATM   15  F   UNL     1     -39.094  48.931 -53.117  1.00  0.00    -0.206 F 
HETATM   16  C   UNL     1     -39.482  50.875 -51.840  1.00  0.00     0.043 A 
HETATM   17  C   UNL     1     -39.959  52.185 -51.767  1.00  0.00     0.017 A 
ENDBRANCH   9  11
ENDBRANCH   2   5
BRANCH   1  18
HETATM   18  C   UNL     1     -42.287  58.814 -55.823  1.00  0.00     0.165 C 
BRANCH  18  19
HETATM   19  C   UNL     1     -42.696  58.351 -57.259  1.00  0.00     0.099 C 
HETATM   20  C   UNL     1     -44.218  58.139 -57.322  1.00  0.00     0.053 C 
BRANCH  19  21
HETATM   21  O   UNL     1     -42.042  57.080 -57.426  1.00  0.00    -0.384 OA
HETATM   22  H   UNL     1     -42.571  56.562 -58.058  1.00  0.00     0.211 HD
ENDBRANCH  19  21
BRANCH  19  23
HETATM   23  C   UNL     1     -42.258  59.316 -58.377  1.00  0.00    -0.001 A 
HETATM   24  C   UNL     1     -42.369  59.013 -59.753  1.00  0.00     0.043 A 
HETATM   25 CL   UNL     1     -42.998  57.509 -60.344  1.00  0.00    -0.084 Cl
HETATM   26  C   UNL     1     -41.981  59.933 -60.739  1.00  0.00     0.024 A 
HETATM   27  C   UNL     1     -41.482  61.181 -60.385  1.00  0.00     0.002 A 
HETATM   28  C   UNL     1     -41.373  61.515 -59.044  1.00  0.00     0.001 A 
HETATM   29  C   UNL     1     -41.759  60.600 -58.057  1.00  0.00     0.012 A 
ENDBRANCH  19  23
ENDBRANCH  18  19
ENDBRANCH   1  18
TORSDOF 6
ENDMDL
