MODEL 1
REMARK VINA RESULT:      -7.6      0.000      0.000
REMARK  6 active torsions:
REMARK  status: ('A' for Active; 'I' for Inactive)
REMARK    1  A    between atoms: C_6  and  O_7 
REMARK    2  A    between atoms: C_8  and  C_9 
REMARK    3  A    between atoms: C_9  and  N_10 
REMARK    4  A    between atoms: N_10  and  C_12 
REMARK    5  A    between atoms: C_12  and  C_13 
REMARK    6  A    between atoms: C_12  and  C_16 
REMARK       I    between atoms: C_13  and  N_14 
ROOT
HETATM    1  N   UNL     1     -42.414  55.372 -53.630  1.00  0.00    -0.054 N 
HETATM    2  H   UNL     1     -42.424  55.111 -52.633  1.00  0.00     0.281 HD
HETATM    3  C   UNL     1     -43.500  54.593 -54.313  1.00  0.00     0.271 C 
ENDROOT
BRANCH   1   4
HETATM    4  C   UNL     1     -41.036  54.933 -54.080  1.00  0.00     0.277 C 
BRANCH   4   5
HETATM    5  C   UNL     1     -40.593  53.656 -53.411  1.00  0.00     0.001 A 
HETATM    6  C   UNL     1     -40.432  53.587 -52.026  1.00  0.00     0.074 A 
HETATM    7  C   UNL     1     -40.046  52.405 -51.401  1.00  0.00     0.044 A 
HETATM    8  C   UNL     1     -39.821  51.246 -52.162  1.00  0.00    -0.053 A 
HETATM    9  C   UNL     1     -39.962  51.299 -53.563  1.00  0.00    -0.055 A 
HETATM   10  C   UNL     1     -39.422  49.972 -51.463  1.00  0.00     0.049 C 
HETATM   11  C   UNL     1     -39.753  50.078 -54.420  1.00  0.00     0.049 C 
HETATM   12  C   UNL     1     -40.348  52.504 -54.173  1.00  0.00     0.019 A 
BRANCH   6  13
HETATM   13  O   UNL     1     -40.714  54.705 -51.287  1.00  0.00    -0.360 OA
HETATM   14  H   UNL     1     -40.843  54.419 -50.359  1.00  0.00     0.217 HD
ENDBRANCH   6  13
ENDBRANCH   4   5
ENDBRANCH   1   4
BRANCH   1  15
HETATM   15  C   UNL     1     -42.663  56.885 -53.685  1.00  0.00     0.312 C 
BRANCH  15  16
HETATM   16  C   UNL     1     -42.721  57.473 -55.123  1.00  0.00     0.251 C 
HETATM   17  N   UNL     1     -43.576  58.520 -55.331  1.00  0.00    -0.368 N 
HETATM   18  H   UNL     1     -43.987  59.073 -54.587  1.00  0.00     0.159 HD
HETATM   19  H   UNL     1     -43.589  58.933 -56.259  1.00  0.00     0.159 HD
HETATM   20  O   UNL     1     -42.078  57.011 -56.062  1.00  0.00    -0.271 OA
ENDBRANCH  15  16
BRANCH  15  21
HETATM   21  C   UNL     1     -41.753  57.656 -52.739  1.00  0.00    -0.016 A 
HETATM   22  C   UNL     1     -40.519  58.134 -53.215  1.00  0.00     0.052 A 
HETATM   23  C   UNL     1     -39.667  58.843 -52.373  1.00  0.00     0.117 A 
HETATM   24  F   UNL     1     -38.496  59.283 -52.849  1.00  0.00    -0.206 F 
HETATM   25  C   UNL     1     -40.012  59.097 -51.054  1.00  0.00     0.042 A 
HETATM   26  C   UNL     1     -41.236  58.640 -50.569  1.00  0.00     0.004 A 
HETATM   27  C   UNL     1     -42.104  57.931 -51.405  1.00  0.00     0.010 A 
ENDBRANCH  15  21
ENDBRANCH   1  15
TORSDOF 6
ENDMDL
MODEL 2
REMARK VINA RESULT:      -7.5      2.977      4.146
REMARK  6 active torsions:
REMARK  status: ('A' for Active; 'I' for Inactive)
REMARK    1  A    between atoms: C_6  and  O_7 
REMARK    2  A    between atoms: C_8  and  C_9 
REMARK    3  A    between atoms: C_9  and  N_10 
REMARK    4  A    between atoms: N_10  and  C_12 
REMARK    5  A    between atoms: C_12  and  C_13 
REMARK    6  A    between atoms: C_12  and  C_16 
REMARK       I    between atoms: C_13  and  N_14 
ROOT
HETATM    1  N   UNL     1     -42.544  55.205 -54.935  1.00  0.00    -0.054 N 
HETATM    2  H   UNL     1     -42.694  55.229 -53.915  1.00  0.00     0.281 HD
HETATM    3  C   UNL     1     -43.393  54.100 -55.492  1.00  0.00     0.271 C 
ENDROOT
BRANCH   1   4
HETATM    4  C   UNL     1     -41.065  54.895 -55.050  1.00  0.00     0.277 C 
BRANCH   4   5
HETATM    5  C   UNL     1     -40.633  53.800 -54.107  1.00  0.00     0.001 A 
HETATM    6  C   UNL     1     -40.616  54.005 -52.726  1.00  0.00     0.074 A 
HETATM    7  C   UNL     1     -40.240  52.991 -51.849  1.00  0.00     0.044 A 
HETATM    8  C   UNL     1     -39.879  51.728 -52.345  1.00  0.00    -0.053 A 
HETATM    9  C   UNL     1     -39.874  51.506 -53.737  1.00  0.00    -0.055 A 
HETATM   10  C   UNL     1     -39.494  50.639 -51.378  1.00  0.00     0.049 C 
HETATM   11  C   UNL     1     -39.515  50.162 -54.316  1.00  0.00     0.049 C 
HETATM   12  C   UNL     1     -40.252  52.545 -54.603  1.00  0.00     0.019 A 
BRANCH   6  13
HETATM   13  O   UNL     1     -41.030  55.220 -52.248  1.00  0.00    -0.360 OA
HETATM   14  H   UNL     1     -41.319  55.089 -51.322  1.00  0.00     0.217 HD
ENDBRANCH   6  13
ENDBRANCH   4   5
ENDBRANCH   1   4
BRANCH   1  15
HETATM   15  C   UNL     1     -42.960  56.583 -55.466  1.00  0.00     0.312 C 
BRANCH  15  16
HETATM   16  C   UNL     1     -44.336  57.082 -54.941  1.00  0.00     0.251 C 
HETATM   17  N   UNL     1     -44.655  56.775 -53.648  1.00  0.00    -0.368 N 
HETATM   18  H   UNL     1     -43.983  56.458 -52.957  1.00  0.00     0.159 HD
HETATM   19  H   UNL     1     -45.536  57.132 -53.288  1.00  0.00     0.159 HD
HETATM   20  O   UNL     1     -45.143  57.685 -55.645  1.00  0.00    -0.271 OA
ENDBRANCH  15  16
BRANCH  15  21
HETATM   21  C   UNL     1     -42.797  56.695 -56.975  1.00  0.00    -0.016 A 
HETATM   22  C   UNL     1     -42.270  57.879 -57.521  1.00  0.00     0.052 A 
HETATM   23  C   UNL     1     -42.110  58.009 -58.898  1.00  0.00     0.117 A 
HETATM   24  F   UNL     1     -41.610  59.148 -59.392  1.00  0.00    -0.206 F 
HETATM   25  C   UNL     1     -42.459  56.980 -59.759  1.00  0.00     0.042 A 
HETATM   26  C   UNL     1     -42.973  55.795 -59.235  1.00  0.00     0.004 A 
HETATM   27  C   UNL     1     -43.135  55.649 -57.854  1.00  0.00     0.010 A 
ENDBRANCH  15  21
ENDBRANCH   1  15
TORSDOF 6
ENDMDL
MODEL 3
REMARK VINA RESULT:      -7.3     14.948     16.623
REMARK  6 active torsions:
REMARK  status: ('A' for Active; 'I' for Inactive)
REMARK    1  A    between atoms: C_6  and  O_7 
REMARK    2  A    between atoms: C_8  and  C_9 
REMARK    3  A    between atoms: C_9  and  N_10 
REMARK    4  A    between atoms: N_10  and  C_12 
REMARK    5  A    between atoms: C_12  and  C_13 
REMARK    6  A    between atoms: C_12  and  C_16 
REMARK       I    between atoms: C_13  and  N_14 
ROOT
HETATM    1  N   UNL     1     -34.929  41.533 -52.829  1.00  0.00    -0.054 N 
HETATM    2  H   UNL     1     -34.229  41.940 -53.467  1.00  0.00     0.281 HD
HETATM    3  C   UNL     1     -34.747  42.178 -51.486  1.00  0.00     0.271 C 
ENDROOT
BRANCH   1   4
HETATM    4  C   UNL     1     -34.552  40.066 -52.806  1.00  0.00     0.277 C 
BRANCH   4   5
HETATM    5  C   UNL     1     -33.840  39.636 -54.064  1.00  0.00     0.001 A 
HETATM    6  C   UNL     1     -32.557  40.103 -54.360  1.00  0.00     0.074 A 
HETATM    7  C   UNL     1     -31.886  39.691 -55.508  1.00  0.00     0.044 A 
HETATM    8  C   UNL     1     -32.489  38.782 -56.390  1.00  0.00    -0.053 A 
HETATM    9  C   UNL     1     -33.790  38.312 -56.118  1.00  0.00    -0.055 A 
HETATM   10  C   UNL     1     -31.737  38.335 -57.617  1.00  0.00     0.049 C 
HETATM   11  C   UNL     1     -34.471  37.318 -57.022  1.00  0.00     0.049 C 
HETATM   12  C   UNL     1     -34.451  38.744 -54.956  1.00  0.00     0.019 A 
BRANCH   6  13
HETATM   13  O   UNL     1     -31.952  40.941 -53.462  1.00  0.00    -0.360 OA
HETATM   14  H   UNL     1     -32.659  41.387 -52.953  1.00  0.00     0.217 HD
ENDBRANCH   6  13
ENDBRANCH   4   5
ENDBRANCH   1   4
BRANCH   1  15
HETATM   15  C   UNL     1     -36.302  41.839 -53.439  1.00  0.00     0.312 C 
BRANCH  15  16
HETATM   16  C   UNL     1     -37.469  41.000 -52.846  1.00  0.00     0.251 C 
HETATM   17  N   UNL     1     -38.524  41.691 -52.318  1.00  0.00    -0.368 N 
HETATM   18  H   UNL     1     -38.702  42.675 -52.491  1.00  0.00     0.159 HD
HETATM   19  H   UNL     1     -39.306  41.147 -51.964  1.00  0.00     0.159 HD
HETATM   20  O   UNL     1     -37.453  39.773 -52.794  1.00  0.00    -0.271 OA
ENDBRANCH  15  16
BRANCH  15  21
HETATM   21  C   UNL     1     -36.268  41.859 -54.961  1.00  0.00    -0.016 A 
HETATM   22  C   UNL     1     -37.380  41.380 -55.677  1.00  0.00     0.052 A 
HETATM   23  C   UNL     1     -37.376  41.386 -57.069  1.00  0.00     0.117 A 
HETATM   24  F   UNL     1     -38.445  40.920 -57.726  1.00  0.00    -0.206 F 
HETATM   25  C   UNL     1     -36.287  41.866 -57.779  1.00  0.00     0.042 A 
HETATM   26  C   UNL     1     -35.181  42.356 -57.086  1.00  0.00     0.004 A 
HETATM   27  C   UNL     1     -35.173  42.360 -55.688  1.00  0.00     0.010 A 
ENDBRANCH  15  21
ENDBRANCH   1  15
TORSDOF 6
ENDMDL
MODEL 4
REMARK VINA RESULT:      -7.3      2.727      6.718
REMARK  6 active torsions:
REMARK  status: ('A' for Active; 'I' for Inactive)
REMARK    1  A    between atoms: C_6  and  O_7 
REMARK    2  A    between atoms: C_8  and  C_9 
REMARK    3  A    between atoms: C_9  and  N_10 
REMARK    4  A    between atoms: N_10  and  C_12 
REMARK    5  A    between atoms: C_12  and  C_13 
REMARK    6  A    between atoms: C_12  and  C_16 
REMARK       I    between atoms: C_13  and  N_14 
ROOT
HETATM    1  N   UNL     1     -41.946  55.163 -50.904  1.00  0.00    -0.054 N 
HETATM    2  H   UNL     1     -41.949  55.208 -51.934  1.00  0.00     0.281 HD
HETATM    3  C   UNL     1     -43.375  55.111 -50.448  1.00  0.00     0.271 C 
ENDROOT
BRANCH   1   4
HETATM    4  C   UNL     1     -41.275  56.464 -50.512  1.00  0.00     0.277 C 
BRANCH   4   5
HETATM    5  C   UNL     1     -41.621  57.594 -51.450  1.00  0.00     0.001 A 
HETATM    6  C   UNL     1     -41.737  58.905 -50.984  1.00  0.00     0.074 A 
HETATM    7  C   UNL     1     -42.034  59.955 -51.849  1.00  0.00     0.044 A 
HETATM    8  C   UNL     1     -42.210  59.711 -53.221  1.00  0.00    -0.053 A 
HETATM    9  C   UNL     1     -42.113  58.392 -53.708  1.00  0.00    -0.055 A 
HETATM   10  C   UNL     1     -42.511  60.865 -54.141  1.00  0.00     0.049 C 
HETATM   11  C   UNL     1     -42.273  58.082 -55.173  1.00  0.00     0.049 C 
HETATM   12  C   UNL     1     -41.818  57.347 -52.816  1.00  0.00     0.019 A 
BRANCH   6  13
HETATM   13  O   UNL     1     -41.502  59.143 -49.657  1.00  0.00    -0.360 OA
HETATM   14  H   UNL     1     -40.549  59.345 -49.558  1.00  0.00     0.217 HD
ENDBRANCH   6  13
ENDBRANCH   4   5
ENDBRANCH   1   4
BRANCH   1  15
HETATM   15  C   UNL     1     -41.169  53.895 -50.528  1.00  0.00     0.312 C 
BRANCH  15  16
HETATM   16  C   UNL     1     -40.103  54.103 -49.417  1.00  0.00     0.251 C 
HETATM   17  N   UNL     1     -40.525  53.985 -48.121  1.00  0.00    -0.368 N 
HETATM   18  H   UNL     1     -41.402  53.555 -47.848  1.00  0.00     0.159 HD
HETATM   19  H   UNL     1     -39.824  54.081 -47.392  1.00  0.00     0.159 HD
HETATM   20  O   UNL     1     -38.937  54.408 -49.655  1.00  0.00    -0.271 OA
ENDBRANCH  15  16
BRANCH  15  21
HETATM   21  C   UNL     1     -40.650  53.150 -51.750  1.00  0.00    -0.016 A 
HETATM   22  C   UNL     1     -40.784  53.740 -53.020  1.00  0.00     0.052 A 
HETATM   23  C   UNL     1     -40.318  53.081 -54.154  1.00  0.00     0.117 A 
HETATM   24  F   UNL     1     -40.464  53.662 -55.351  1.00  0.00    -0.206 F 
HETATM   25  C   UNL     1     -39.710  51.839 -54.061  1.00  0.00     0.042 A 
HETATM   26  C   UNL     1     -39.557  51.246 -52.810  1.00  0.00     0.004 A 
HETATM   27  C   UNL     1     -40.017  51.897 -51.661  1.00  0.00     0.010 A 
ENDBRANCH  15  21
ENDBRANCH   1  15
TORSDOF 6
ENDMDL
MODEL 5
REMARK VINA RESULT:      -7.3      2.780      3.696
REMARK  6 active torsions:
REMARK  status: ('A' for Active; 'I' for Inactive)
REMARK    1  A    between atoms: C_6  and  O_7 
REMARK    2  A    between atoms: C_8  and  C_9 
REMARK    3  A    between atoms: C_9  and  N_10 
REMARK    4  A    between atoms: N_10  and  C_12 
REMARK    5  A    between atoms: C_12  and  C_13 
REMARK    6  A    between atoms: C_12  and  C_16 
REMARK       I    between atoms: C_13  and  N_14 
ROOT
HETATM    1  N   UNL     1     -42.350  55.020 -53.969  1.00  0.00    -0.054 N 
HETATM    2  H   UNL     1     -42.599  54.460 -53.140  1.00  0.00     0.281 HD
HETATM    3  C   UNL     1     -43.181  54.526 -55.116  1.00  0.00     0.271 C 
ENDROOT
BRANCH   1   4
HETATM    4  C   UNL     1     -40.880  54.706 -54.159  1.00  0.00     0.277 C 
BRANCH   4   5
HETATM    5  C   UNL     1     -40.459  53.459 -53.422  1.00  0.00     0.001 A 
HETATM    6  C   UNL     1     -40.397  53.435 -52.027  1.00  0.00     0.074 A 
HETATM    7  C   UNL     1     -40.031  52.280 -51.340  1.00  0.00     0.044 A 
HETATM    8  C   UNL     1     -39.728  51.106 -52.047  1.00  0.00    -0.053 A 
HETATM    9  C   UNL     1     -39.768  51.115 -53.456  1.00  0.00    -0.055 A 
HETATM   10  C   UNL     1     -39.353  49.862 -51.283  1.00  0.00     0.049 C 
HETATM   11  C   UNL     1     -39.473  49.874 -54.258  1.00  0.00     0.049 C 
HETATM   12  C   UNL     1     -40.135  52.292 -54.128  1.00  0.00     0.019 A 
BRANCH   6  13
HETATM   13  O   UNL     1     -40.755  54.566 -51.344  1.00  0.00    -0.360 OA
HETATM   14  H   UNL     1     -40.966  55.255 -52.007  1.00  0.00     0.217 HD
ENDBRANCH   6  13
ENDBRANCH   4   5
ENDBRANCH   1   4
BRANCH   1  15
HETATM   15  C   UNL     1     -42.660  56.480 -53.613  1.00  0.00     0.312 C 
BRANCH  15  16
HETATM   16  C   UNL     1     -43.503  56.659 -52.319  1.00  0.00     0.251 C 
HETATM   17  N   UNL     1     -43.835  55.523 -51.633  1.00  0.00    -0.368 N 
HETATM   18  H   UNL     1     -43.388  54.624 -51.775  1.00  0.00     0.159 HD
HETATM   19  H   UNL     1     -44.353  55.638 -50.766  1.00  0.00     0.159 HD
HETATM   20  O   UNL     1     -43.910  57.751 -51.930  1.00  0.00    -0.271 OA
ENDBRANCH  15  16
BRANCH  15  21
HETATM   21  C   UNL     1     -43.184  57.268 -54.805  1.00  0.00    -0.016 A 
HETATM   22  C   UNL     1     -44.569  57.299 -55.050  1.00  0.00     0.052 A 
HETATM   23  C   UNL     1     -45.076  58.012 -56.133  1.00  0.00     0.117 A 
HETATM   24  F   UNL     1     -46.398  58.020 -56.346  1.00  0.00    -0.206 F 
HETATM   25  C   UNL     1     -44.237  58.707 -56.988  1.00  0.00     0.042 A 
HETATM   26  C   UNL     1     -42.863  58.698 -56.754  1.00  0.00     0.004 A 
HETATM   27  C   UNL     1     -42.339  57.990 -55.668  1.00  0.00     0.010 A 
ENDBRANCH  15  21
ENDBRANCH   1  15
TORSDOF 6
ENDMDL
MODEL 6
REMARK VINA RESULT:      -7.2      2.614      3.508
REMARK  6 active torsions:
REMARK  status: ('A' for Active; 'I' for Inactive)
REMARK    1  A    between atoms: C_6  and  O_7 
REMARK    2  A    between atoms: C_8  and  C_9 
REMARK    3  A    between atoms: C_9  and  N_10 
REMARK    4  A    between atoms: N_10  and  C_12 
REMARK    5  A    between atoms: C_12  and  C_13 
REMARK    6  A    between atoms: C_12  and  C_16 
REMARK       I    between atoms: C_13  and  N_14 
ROOT
HETATM    1  N   UNL     1     -41.843  56.378 -52.338  1.00  0.00    -0.054 N 
HETATM    2  H   UNL     1     -41.277  55.783 -52.962  1.00  0.00     0.281 HD
HETATM    3  C   UNL     1     -41.362  57.791 -52.500  1.00  0.00     0.271 C 
ENDROOT
BRANCH   1   4
HETATM    4  C   UNL     1     -41.522  55.826 -50.964  1.00  0.00     0.277 C 
BRANCH   4   5
HETATM    5  C   UNL     1     -40.990  54.416 -51.021  1.00  0.00     0.001 A 
HETATM    6  C   UNL     1     -40.879  53.641 -49.864  1.00  0.00     0.074 A 
HETATM    7  C   UNL     1     -40.411  52.331 -49.915  1.00  0.00     0.044 A 
HETATM    8  C   UNL     1     -40.051  51.757 -51.144  1.00  0.00    -0.053 A 
HETATM    9  C   UNL     1     -40.140  52.528 -52.321  1.00  0.00    -0.055 A 
HETATM   10  C   UNL     1     -39.565  50.332 -51.178  1.00  0.00     0.049 C 
HETATM   11  C   UNL     1     -39.787  51.950 -53.667  1.00  0.00     0.049 C 
HETATM   12  C   UNL     1     -40.610  53.850 -52.247  1.00  0.00     0.019 A 
BRANCH   6  13
HETATM   13  O   UNL     1     -41.292  54.188 -48.679  1.00  0.00    -0.360 OA
HETATM   14  H   UNL     1     -42.270  54.156 -48.664  1.00  0.00     0.217 HD
ENDBRANCH   6  13
ENDBRANCH   4   5
ENDBRANCH   1   4
BRANCH   1  15
HETATM   15  C   UNL     1     -43.301  56.206 -52.781  1.00  0.00     0.312 C 
BRANCH  15  16
HETATM   16  C   UNL     1     -43.472  55.600 -54.202  1.00  0.00     0.251 C 
HETATM   17  N   UNL     1     -44.566  54.807 -54.412  1.00  0.00    -0.368 N 
HETATM   18  H   UNL     1     -45.372  54.778 -53.795  1.00  0.00     0.159 HD
HETATM   19  H   UNL     1     -44.703  54.440 -55.349  1.00  0.00     0.159 HD
HETATM   20  O   UNL     1     -42.654  55.765 -55.104  1.00  0.00    -0.271 OA
ENDBRANCH  15  16
BRANCH  15  21
HETATM   21  C   UNL     1     -44.131  57.459 -52.541  1.00  0.00    -0.016 A 
HETATM   22  C   UNL     1     -44.581  57.744 -51.240  1.00  0.00     0.052 A 
HETATM   23  C   UNL     1     -45.342  58.884 -50.992  1.00  0.00     0.117 A 
HETATM   24  F   UNL     1     -45.762  59.129 -49.745  1.00  0.00    -0.206 F 
HETATM   25  C   UNL     1     -45.668  59.762 -52.013  1.00  0.00     0.042 A 
HETATM   26  C   UNL     1     -45.220  59.502 -53.307  1.00  0.00     0.004 A 
HETATM   27  C   UNL     1     -44.452  58.364 -53.570  1.00  0.00     0.010 A 
ENDBRANCH  15  21
ENDBRANCH   1  15
TORSDOF 6
ENDMDL
MODEL 7
REMARK VINA RESULT:      -7.2      2.658      3.865
REMARK  6 active torsions:
REMARK  status: ('A' for Active; 'I' for Inactive)
REMARK    1  A    between atoms: C_6  and  O_7 
REMARK    2  A    between atoms: C_8  and  C_9 
REMARK    3  A    between atoms: C_9  and  N_10 
REMARK    4  A    between atoms: N_10  and  C_12 
REMARK    5  A    between atoms: C_12  and  C_13 
REMARK    6  A    between atoms: C_12  and  C_16 
REMARK       I    between atoms: C_13  and  N_14 
ROOT
HETATM    1  N   UNL     1     -41.595  56.146 -51.198  1.00  0.00    -0.054 N 
HETATM    2  H   UNL     1     -41.199  56.016 -52.141  1.00  0.00     0.281 HD
HETATM    3  C   UNL     1     -40.956  57.366 -50.602  1.00  0.00     0.271 C 
ENDROOT
BRANCH   1   4
HETATM    4  C   UNL     1     -41.177  54.881 -50.478  1.00  0.00     0.277 C 
BRANCH   4   5
HETATM    5  C   UNL     1     -40.698  53.811 -51.428  1.00  0.00     0.001 A 
HETATM    6  C   UNL     1     -40.300  52.558 -50.959  1.00  0.00     0.074 A 
HETATM    7  C   UNL     1     -39.879  51.559 -51.833  1.00  0.00     0.044 A 
HETATM    8  C   UNL     1     -39.860  51.795 -53.217  1.00  0.00    -0.053 A 
HETATM    9  C   UNL     1     -40.243  53.059 -53.709  1.00  0.00    -0.055 A 
HETATM   10  C   UNL     1     -39.420  50.694 -54.146  1.00  0.00     0.049 C 
HETATM   11  C   UNL     1     -40.260  53.354 -55.186  1.00  0.00     0.049 C 
HETATM   12  C   UNL     1     -40.659  54.054 -52.809  1.00  0.00     0.019 A 
BRANCH   6  13
HETATM   13  O   UNL     1     -40.381  52.316 -49.614  1.00  0.00    -0.360 OA
HETATM   14  H   UNL     1     -41.244  52.659 -49.304  1.00  0.00     0.217 HD
ENDBRANCH   6  13
ENDBRANCH   4   5
ENDBRANCH   1   4
BRANCH   1  15
HETATM   15  C   UNL     1     -43.108  56.316 -51.385  1.00  0.00     0.312 C 
BRANCH  15  16
HETATM   16  C   UNL     1     -43.951  55.096 -50.918  1.00  0.00     0.251 C 
HETATM   17  N   UNL     1     -44.077  54.056 -51.796  1.00  0.00    -0.368 N 
HETATM   18  H   UNL     1     -43.487  53.927 -52.611  1.00  0.00     0.159 HD
HETATM   19  H   UNL     1     -44.595  53.240 -51.481  1.00  0.00     0.159 HD
HETATM   20  O   UNL     1     -44.531  55.056 -49.835  1.00  0.00    -0.271 OA
ENDBRANCH  15  16
BRANCH  15  21
HETATM   21  C   UNL     1     -43.468  56.818 -52.776  1.00  0.00    -0.016 A 
HETATM   22  C   UNL     1     -42.653  56.460 -53.865  1.00  0.00     0.052 A 
HETATM   23  C   UNL     1     -42.958  56.905 -55.148  1.00  0.00     0.117 A 
HETATM   24  F   UNL     1     -42.162  56.555 -56.166  1.00  0.00    -0.206 F 
HETATM   25  C   UNL     1     -44.067  57.701 -55.384  1.00  0.00     0.042 A 
HETATM   26  C   UNL     1     -44.893  58.055 -54.319  1.00  0.00     0.004 A 
HETATM   27  C   UNL     1     -44.601  57.612 -53.025  1.00  0.00     0.010 A 
ENDBRANCH  15  21
ENDBRANCH   1  15
TORSDOF 6
ENDMDL
MODEL 8
REMARK VINA RESULT:      -7.2      2.959      6.350
REMARK  6 active torsions:
REMARK  status: ('A' for Active; 'I' for Inactive)
REMARK    1  A    between atoms: C_6  and  O_7 
REMARK    2  A    between atoms: C_8  and  C_9 
REMARK    3  A    between atoms: C_9  and  N_10 
REMARK    4  A    between atoms: N_10  and  C_12 
REMARK    5  A    between atoms: C_12  and  C_13 
REMARK    6  A    between atoms: C_12  and  C_16 
REMARK       I    between atoms: C_13  and  N_14 
ROOT
HETATM    1  N   UNL     1     -43.087  57.408 -53.760  1.00  0.00    -0.054 N 
HETATM    2  H   UNL     1     -43.167  56.705 -54.510  1.00  0.00     0.281 HD
HETATM    3  C   UNL     1     -44.373  57.394 -52.986  1.00  0.00     0.271 C 
ENDROOT
BRANCH   1   4
HETATM    4  C   UNL     1     -42.904  58.701 -54.528  1.00  0.00     0.277 C 
BRANCH   4   5
HETATM    5  C   UNL     1     -42.683  58.468 -56.001  1.00  0.00     0.001 A 
HETATM    6  C   UNL     1     -42.049  59.426 -56.795  1.00  0.00     0.074 A 
HETATM    7  C   UNL     1     -41.822  59.206 -58.151  1.00  0.00     0.044 A 
HETATM    8  C   UNL     1     -42.219  57.999 -58.746  1.00  0.00    -0.053 A 
HETATM    9  C   UNL     1     -42.875  57.025 -57.966  1.00  0.00    -0.055 A 
HETATM   10  C   UNL     1     -41.946  57.774 -60.210  1.00  0.00     0.049 C 
HETATM   11  C   UNL     1     -43.301  55.705 -58.553  1.00  0.00     0.049 C 
HETATM   12  C   UNL     1     -43.099  57.270 -56.601  1.00  0.00     0.019 A 
BRANCH   6  13
HETATM   13  O   UNL     1     -41.609  60.574 -56.193  1.00  0.00    -0.360 OA
HETATM   14  H   UNL     1     -42.230  61.291 -56.437  1.00  0.00     0.217 HD
ENDBRANCH   6  13
ENDBRANCH   4   5
ENDBRANCH   1   4
BRANCH   1  15
HETATM   15  C   UNL     1     -41.887  56.989 -52.901  1.00  0.00     0.312 C 
BRANCH  15  16
HETATM   16  C   UNL     1     -40.855  58.124 -52.647  1.00  0.00     0.251 C 
HETATM   17  N   UNL     1     -40.909  58.753 -51.434  1.00  0.00    -0.368 N 
HETATM   18  H   UNL     1     -41.404  58.387 -50.627  1.00  0.00     0.159 HD
HETATM   19  H   UNL     1     -40.212  59.468 -51.248  1.00  0.00     0.159 HD
HETATM   20  O   UNL     1     -40.046  58.495 -53.494  1.00  0.00    -0.271 OA
ENDBRANCH  15  16
BRANCH  15  21
HETATM   21  C   UNL     1     -41.265  55.683 -53.372  1.00  0.00    -0.016 A 
HETATM   22  C   UNL     1     -41.151  54.612 -52.468  1.00  0.00     0.052 A 
HETATM   23  C   UNL     1     -40.586  53.406 -52.872  1.00  0.00     0.117 A 
HETATM   24  F   UNL     1     -40.485  52.405 -51.989  1.00  0.00    -0.206 F 
HETATM   25  C   UNL     1     -40.129  53.229 -54.169  1.00  0.00     0.042 A 
HETATM   26  C   UNL     1     -40.245  54.275 -55.082  1.00  0.00     0.004 A 
HETATM   27  C   UNL     1     -40.814  55.491 -54.691  1.00  0.00     0.010 A 
ENDBRANCH  15  21
ENDBRANCH   1  15
TORSDOF 6
ENDMDL
MODEL 9
REMARK VINA RESULT:      -7.1      3.197      6.878
REMARK  6 active torsions:
REMARK  status: ('A' for Active; 'I' for Inactive)
REMARK    1  A    between atoms: C_6  and  O_7 
REMARK    2  A    between atoms: C_8  and  C_9 
REMARK    3  A    between atoms: C_9  and  N_10 
REMARK    4  A    between atoms: N_10  and  C_12 
REMARK    5  A    between atoms: C_12  and  C_13 
REMARK    6  A    between atoms: C_12  and  C_16 
REMARK       I    between atoms: C_13  and  N_14 
ROOT
HETATM    1  N   UNL     1     -42.115  55.162 -54.732  1.00  0.00    -0.054 N 
HETATM    2  H   UNL     1     -42.510  56.076 -54.464  1.00  0.00     0.281 HD
HETATM    3  C   UNL     1     -40.626  55.322 -54.828  1.00  0.00     0.271 C 
ENDROOT
BRANCH   1   4
HETATM    4  C   UNL     1     -42.744  54.906 -56.087  1.00  0.00     0.277 C 
BRANCH   4   5
HETATM    5  C   UNL     1     -43.033  56.183 -56.836  1.00  0.00     0.001 A 
HETATM    6  C   UNL     1     -43.751  57.221 -56.238  1.00  0.00     0.074 A 
HETATM    7  C   UNL     1     -44.001  58.411 -56.917  1.00  0.00     0.044 A 
HETATM    8  C   UNL     1     -43.519  58.593 -58.223  1.00  0.00    -0.053 A 
HETATM    9  C   UNL     1     -42.806  57.551 -58.849  1.00  0.00    -0.055 A 
HETATM   10  C   UNL     1     -43.784  59.895 -58.932  1.00  0.00     0.049 C 
HETATM   11  C   UNL     1     -42.249  57.706 -60.241  1.00  0.00     0.049 C 
HETATM   12  C   UNL     1     -42.570  56.357 -58.148  1.00  0.00     0.019 A 
BRANCH   6  13
HETATM   13  O   UNL     1     -44.163  57.059 -54.943  1.00  0.00    -0.360 OA
HETATM   14  H   UNL     1     -45.101  57.337 -54.895  1.00  0.00     0.217 HD
ENDBRANCH   6  13
ENDBRANCH   4   5
ENDBRANCH   1   4
BRANCH   1  15
HETATM   15  C   UNL     1     -42.524  54.175 -53.631  1.00  0.00     0.312 C 
BRANCH  15  16
HETATM   16  C   UNL     1     -43.195  54.836 -52.396  1.00  0.00     0.251 C 
HETATM   17  N   UNL     1     -43.964  54.031 -51.601  1.00  0.00    -0.368 N 
HETATM   18  H   UNL     1     -43.939  53.017 -51.628  1.00  0.00     0.159 HD
HETATM   19  H   UNL     1     -44.374  54.450 -50.771  1.00  0.00     0.159 HD
HETATM   20  O   UNL     1     -43.100  56.035 -52.142  1.00  0.00    -0.271 OA
ENDBRANCH  15  16
BRANCH  15  21
HETATM   21  C   UNL     1     -41.405  53.204 -53.280  1.00  0.00    -0.016 A 
HETATM   22  C   UNL     1     -41.052  52.202 -54.202  1.00  0.00     0.052 A 
HETATM   23  C   UNL     1     -40.034  51.301 -53.907  1.00  0.00     0.117 A 
HETATM   24  F   UNL     1     -39.721  50.354 -54.800  1.00  0.00    -0.206 F 
HETATM   25  C   UNL     1     -39.343  51.370 -52.707  1.00  0.00     0.042 A 
HETATM   26  C   UNL     1     -39.670  52.364 -51.786  1.00  0.00     0.004 A 
HETATM   27  C   UNL     1     -40.689  53.278 -52.071  1.00  0.00     0.010 A 
ENDBRANCH  15  21
ENDBRANCH   1  15
TORSDOF 6
ENDMDL
MODEL 10
REMARK VINA RESULT:      -7.1      1.728      2.240
REMARK  6 active torsions:
REMARK  status: ('A' for Active; 'I' for Inactive)
REMARK    1  A    between atoms: C_6  and  O_7 
REMARK    2  A    between atoms: C_8  and  C_9 
REMARK    3  A    between atoms: C_9  and  N_10 
REMARK    4  A    between atoms: N_10  and  C_12 
REMARK    5  A    between atoms: C_12  and  C_13 
REMARK    6  A    between atoms: C_12  and  C_16 
REMARK       I    between atoms: C_13  and  N_14 
ROOT
HETATM    1  N   UNL     1     -42.690  55.498 -54.785  1.00  0.00    -0.054 N 
HETATM    2  H   UNL     1     -42.478  55.913 -53.865  1.00  0.00     0.281 HD
HETATM    3  C   UNL     1     -43.718  54.425 -54.572  1.00  0.00     0.271 C 
ENDROOT
BRANCH   1   4
HETATM    4  C   UNL     1     -41.355  54.924 -55.213  1.00  0.00     0.277 C 
BRANCH   4   5
HETATM    5  C   UNL     1     -40.843  53.881 -54.251  1.00  0.00     0.001 A 
HETATM    6  C   UNL     1     -40.687  54.168 -52.894  1.00  0.00     0.074 A 
HETATM    7  C   UNL     1     -40.237  53.202 -51.998  1.00  0.00     0.044 A 
HETATM    8  C   UNL     1     -39.942  51.905 -52.448  1.00  0.00    -0.053 A 
HETATM    9  C   UNL     1     -40.078  51.600 -53.817  1.00  0.00    -0.055 A 
HETATM   10  C   UNL     1     -39.476  50.870 -51.459  1.00  0.00     0.049 C 
HETATM   11  C   UNL     1     -39.795  50.218 -54.346  1.00  0.00     0.049 C 
HETATM   12  C   UNL     1     -40.529  52.592 -54.705  1.00  0.00     0.019 A 
BRANCH   6  13
HETATM   13  O   UNL     1     -41.036  55.416 -52.453  1.00  0.00    -0.360 OA
HETATM   14  H   UNL     1     -40.361  56.044 -52.782  1.00  0.00     0.217 HD
ENDBRANCH   6  13
ENDBRANCH   4   5
ENDBRANCH   1   4
BRANCH   1  15
HETATM   15  C   UNL     1     -43.216  56.640 -55.664  1.00  0.00     0.312 C 
BRANCH  15  16
HETATM   16  C   UNL     1     -42.849  56.511 -57.169  1.00  0.00     0.251 C 
HETATM   17  N   UNL     1     -41.948  57.410 -57.667  1.00  0.00    -0.368 N 
HETATM   18  H   UNL     1     -41.345  57.988 -57.091  1.00  0.00     0.159 HD
HETATM   19  H   UNL     1     -41.675  57.306 -58.641  1.00  0.00     0.159 HD
HETATM   20  O   UNL     1     -43.363  55.681 -57.915  1.00  0.00    -0.271 OA
ENDBRANCH  15  16
BRANCH  15  21
HETATM   21  C   UNL     1     -42.919  58.010 -55.072  1.00  0.00    -0.016 A 
HETATM   22  C   UNL     1     -41.826  58.158 -54.200  1.00  0.00     0.052 A 
HETATM   23  C   UNL     1     -41.531  59.399 -53.645  1.00  0.00     0.117 A 
HETATM   24  F   UNL     1     -40.487  59.511 -52.814  1.00  0.00    -0.206 F 
HETATM   25  C   UNL     1     -42.299  60.515 -53.938  1.00  0.00     0.042 A 
HETATM   26  C   UNL     1     -43.380  60.391 -54.809  1.00  0.00     0.004 A 
HETATM   27  C   UNL     1     -43.685  59.150 -55.378  1.00  0.00     0.010 A 
ENDBRANCH  15  21
ENDBRANCH   1  15
TORSDOF 6
ENDMDL
