MODEL 1
REMARK VINA RESULT:      -8.3      0.000      0.000
REMARK  8 active torsions:
REMARK  status: ('A' for Active; 'I' for Inactive)
REMARK    1  A    between atoms: C_5  and  C_6 
REMARK       I    between atoms: C_6  and  N_7 
REMARK    2  A    between atoms: N_7  and  N_8 
REMARK       I    between atoms: N_8  and  C_9 
REMARK    3  A    between atoms: C_9  and  C_10 
REMARK    4  A    between atoms: C_10  and  C_11 
REMARK    5  A    between atoms: C_11  and  N_12 
REMARK    6  A    between atoms: N_12  and  C_13 
REMARK    7  A    between atoms: C_14  and  N_15 
REMARK    8  A    between atoms: C_19  and  C_20 
ROOT
HETATM    1  C   UNL     1     -42.405  55.936 -52.313  1.00  0.00     0.102 C 
ENDROOT
BRANCH   1   2
HETATM    2  C   UNL     1     -42.426  57.008 -53.395  1.00  0.00     0.119 C 
BRANCH   2   3
HETATM    3  C   UNL     1     -43.268  56.511 -54.539  1.00  0.00     0.237 C 
HETATM    4  N   UNL     1     -42.552  56.151 -55.659  1.00  0.00    -0.267 N 
HETATM    5  H   UNL     1     -41.536  56.088 -55.704  1.00  0.00     0.190 HD
HETATM    6  O   UNL     1     -44.497  56.497 -54.502  1.00  0.00    -0.272 OA
BRANCH   4   7
HETATM    7  N   UNL     1     -43.259  55.720 -56.784  1.00  0.00    -0.262 N 
HETATM    8  C   UNL     1     -43.423  56.581 -57.847  1.00  0.00     0.286 C 
HETATM    9  O   UNL     1     -42.940  57.714 -57.839  1.00  0.00    -0.264 OA
HETATM   10  H   UNL     1     -43.631  54.774 -56.761  1.00  0.00     0.190 HD
BRANCH   8  11
HETATM   11  C   UNL     1     -44.194  56.066 -58.956  1.00  0.00     0.102 A 
HETATM   12  N   UNL     1     -45.489  56.485 -59.186  1.00  0.00    -0.361 N 
HETATM   13  C   UNL     1     -46.005  55.853 -60.284  1.00  0.00     0.088 A 
HETATM   14  H   UNL     1     -45.970  57.164 -58.609  1.00  0.00     0.165 HD
HETATM   15  C   UNL     1     -45.038  55.011 -60.778  1.00  0.00     0.019 A 
HETATM   16  C   UNL     1     -43.898  55.143 -59.947  1.00  0.00     0.036 A 
ENDBRANCH   8  11
ENDBRANCH   4   7
ENDBRANCH   2   3
ENDBRANCH   1   2
BRANCH   1  17
HETATM   17  N   UNL     1     -41.052  55.397 -52.165  1.00  0.00    -0.290 NA
HETATM   18  H   UNL     1     -40.640  55.615 -51.249  1.00  0.00     0.127 HD
BRANCH  17  19
HETATM   19  C   UNL     1     -40.780  54.068 -52.538  1.00  0.00     0.041 A 
HETATM   20  C   UNL     1     -40.206  53.133 -51.643  1.00  0.00     0.124 A 
HETATM   21  C   UNL     1     -39.847  51.830 -52.045  1.00  0.00     0.054 A 
HETATM   22  C   UNL     1     -40.028  51.426 -53.373  1.00  0.00     0.050 A 
HETATM   23  C   UNL     1     -40.562  52.348 -54.279  1.00  0.00     0.018 A 
HETATM   24  C   UNL     1     -40.915  53.643 -53.870  1.00  0.00     0.027 A 
BRANCH  20  25
HETATM   25  N   UNL     1     -39.983  53.482 -50.236  1.00  0.00    -0.114 N 
HETATM   26  O   UNL     1     -39.267  54.467 -49.988  1.00  0.00    -0.532 OA
HETATM   27  O   UNL     1     -40.547  52.788 -49.378  1.00  0.00    -0.532 OA
ENDBRANCH  20  25
BRANCH  22  28
HETATM   28  C   UNL     1     -39.657  50.037 -53.836  1.00  0.00     0.417 C 
HETATM   29  F   UNL     1     -39.516  49.147 -52.818  1.00  0.00    -0.166 F 
HETATM   30  F   UNL     1     -40.593  49.507 -54.671  1.00  0.00    -0.166 F 
HETATM   31  F   UNL     1     -38.483  50.014 -54.522  1.00  0.00    -0.166 F 
ENDBRANCH  22  28
ENDBRANCH  17  19
ENDBRANCH   1  17
TORSDOF 8
ENDMDL
MODEL 2
REMARK VINA RESULT:      -8.2      1.519      1.842
REMARK  8 active torsions:
REMARK  status: ('A' for Active; 'I' for Inactive)
REMARK    1  A    between atoms: C_5  and  C_6 
REMARK       I    between atoms: C_6  and  N_7 
REMARK    2  A    between atoms: N_7  and  N_8 
REMARK       I    between atoms: N_8  and  C_9 
REMARK    3  A    between atoms: C_9  and  C_10 
REMARK    4  A    between atoms: C_10  and  C_11 
REMARK    5  A    between atoms: C_11  and  N_12 
REMARK    6  A    between atoms: N_12  and  C_13 
REMARK    7  A    between atoms: C_14  and  N_15 
REMARK    8  A    between atoms: C_19  and  C_20 
ROOT
HETATM    1  C   UNL     1     -42.275  55.871 -51.512  1.00  0.00     0.102 C 
ENDROOT
BRANCH   1   2
HETATM    2  C   UNL     1     -42.485  57.337 -51.866  1.00  0.00     0.119 C 
BRANCH   2   3
HETATM    3  C   UNL     1     -42.185  57.519 -53.330  1.00  0.00     0.237 C 
HETATM    4  N   UNL     1     -43.278  57.383 -54.157  1.00  0.00    -0.267 N 
HETATM    5  H   UNL     1     -44.242  57.298 -53.837  1.00  0.00     0.190 HD
HETATM    6  O   UNL     1     -41.047  57.700 -53.757  1.00  0.00    -0.272 OA
BRANCH   4   7
HETATM    7  N   UNL     1     -43.082  57.493 -55.535  1.00  0.00    -0.262 N 
HETATM    8  C   UNL     1     -43.044  56.350 -56.303  1.00  0.00     0.286 C 
HETATM    9  O   UNL     1     -43.204  55.235 -55.807  1.00  0.00    -0.264 OA
HETATM   10  H   UNL     1     -42.968  58.431 -55.912  1.00  0.00     0.190 HD
BRANCH   8  11
HETATM   11  C   UNL     1     -42.804  56.552 -57.714  1.00  0.00     0.102 A 
HETATM   12  N   UNL     1     -42.032  57.603 -58.168  1.00  0.00    -0.361 N 
HETATM   13  C   UNL     1     -41.958  57.583 -59.534  1.00  0.00     0.088 A 
HETATM   14  H   UNL     1     -41.593  58.282 -57.557  1.00  0.00     0.165 HD
HETATM   15  C   UNL     1     -42.690  56.509 -59.980  1.00  0.00     0.019 A 
HETATM   16  C   UNL     1     -43.222  55.858 -58.839  1.00  0.00     0.036 A 
ENDBRANCH   8  11
ENDBRANCH   4   7
ENDBRANCH   2   3
ENDBRANCH   1   2
BRANCH   1  17
HETATM   17  N   UNL     1     -40.930  55.446 -51.902  1.00  0.00    -0.290 NA
HETATM   18  H   UNL     1     -40.215  55.734 -51.222  1.00  0.00     0.127 HD
BRANCH  17  19
HETATM   19  C   UNL     1     -40.708  54.129 -52.341  1.00  0.00     0.041 A 
HETATM   20  C   UNL     1     -40.197  53.122 -51.486  1.00  0.00     0.124 A 
HETATM   21  C   UNL     1     -39.887  51.827 -51.952  1.00  0.00     0.054 A 
HETATM   22  C   UNL     1     -40.054  51.503 -53.303  1.00  0.00     0.050 A 
HETATM   23  C   UNL     1     -40.524  52.496 -54.169  1.00  0.00     0.018 A 
HETATM   24  C   UNL     1     -40.829  53.782 -53.697  1.00  0.00     0.027 A 
BRANCH  20  25
HETATM   25  N   UNL     1     -39.993  53.384 -50.058  1.00  0.00    -0.114 N 
HETATM   26  O   UNL     1     -39.327  54.383 -49.740  1.00  0.00    -0.532 OA
HETATM   27  O   UNL     1     -40.523  52.606 -49.252  1.00  0.00    -0.532 OA
ENDBRANCH  20  25
BRANCH  22  28
HETATM   28  C   UNL     1     -39.734  50.126 -53.833  1.00  0.00     0.417 C 
HETATM   29  F   UNL     1     -39.524  49.205 -52.855  1.00  0.00    -0.166 F 
HETATM   30  F   UNL     1     -40.736  49.629 -54.609  1.00  0.00    -0.166 F 
HETATM   31  F   UNL     1     -38.615  50.114 -54.608  1.00  0.00    -0.166 F 
ENDBRANCH  22  28
ENDBRANCH  17  19
ENDBRANCH   1  17
TORSDOF 8
ENDMDL
MODEL 3
REMARK VINA RESULT:      -8.2      2.360      2.852
REMARK  8 active torsions:
REMARK  status: ('A' for Active; 'I' for Inactive)
REMARK    1  A    between atoms: C_5  and  C_6 
REMARK       I    between atoms: C_6  and  N_7 
REMARK    2  A    between atoms: N_7  and  N_8 
REMARK       I    between atoms: N_8  and  C_9 
REMARK    3  A    between atoms: C_9  and  C_10 
REMARK    4  A    between atoms: C_10  and  C_11 
REMARK    5  A    between atoms: C_11  and  N_12 
REMARK    6  A    between atoms: N_12  and  C_13 
REMARK    7  A    between atoms: C_14  and  N_15 
REMARK    8  A    between atoms: C_19  and  C_20 
ROOT
HETATM    1  C   UNL     1     -43.256  56.938 -52.267  1.00  0.00     0.102 C 
ENDROOT
BRANCH   1   2
HETATM    2  C   UNL     1     -43.393  57.965 -53.382  1.00  0.00     0.119 C 
BRANCH   2   3
HETATM    3  C   UNL     1     -44.173  57.342 -54.509  1.00  0.00     0.237 C 
HETATM    4  N   UNL     1     -43.448  57.146 -55.663  1.00  0.00    -0.267 N 
HETATM    5  H   UNL     1     -42.441  57.275 -55.746  1.00  0.00     0.190 HD
HETATM    6  O   UNL     1     -45.375  57.097 -54.429  1.00  0.00    -0.272 OA
BRANCH   4   7
HETATM    7  N   UNL     1     -44.106  56.612 -56.773  1.00  0.00    -0.262 N 
HETATM    8  C   UNL     1     -43.552  56.773 -58.025  1.00  0.00     0.286 C 
HETATM    9  O   UNL     1     -42.479  57.354 -58.185  1.00  0.00    -0.264 OA
HETATM   10  H   UNL     1     -44.982  56.126 -56.602  1.00  0.00     0.190 HD
BRANCH   8  11
HETATM   11  C   UNL     1     -44.314  56.218 -59.121  1.00  0.00     0.102 A 
HETATM   12  N   UNL     1     -45.676  56.418 -59.224  1.00  0.00    -0.361 N 
HETATM   13  C   UNL     1     -46.166  55.793 -60.337  1.00  0.00     0.088 A 
HETATM   14  H   UNL     1     -46.216  56.954 -58.555  1.00  0.00     0.165 HD
HETATM   15  C   UNL     1     -45.115  55.176 -60.971  1.00  0.00     0.019 A 
HETATM   16  C   UNL     1     -43.949  55.442 -60.211  1.00  0.00     0.036 A 
ENDBRANCH   8  11
ENDBRANCH   4   7
ENDBRANCH   2   3
ENDBRANCH   1   2
BRANCH   1  17
HETATM   17  N   UNL     1     -43.461  55.589 -52.797  1.00  0.00    -0.290 NA
HETATM   18  H   UNL     1     -43.865  55.595 -53.742  1.00  0.00     0.127 HD
BRANCH  17  19
HETATM   19  C   UNL     1     -42.439  54.629 -52.691  1.00  0.00     0.041 A 
HETATM   20  C   UNL     1     -41.961  53.905 -53.810  1.00  0.00     0.124 A 
HETATM   21  C   UNL     1     -41.004  52.877 -53.687  1.00  0.00     0.054 A 
HETATM   22  C   UNL     1     -40.508  52.520 -52.428  1.00  0.00     0.050 A 
HETATM   23  C   UNL     1     -40.995  53.200 -51.307  1.00  0.00     0.018 A 
HETATM   24  C   UNL     1     -41.949  54.221 -51.438  1.00  0.00     0.027 A 
BRANCH  20  25
HETATM   25  N   UNL     1     -42.433  54.219 -55.162  1.00  0.00    -0.114 N 
HETATM   26  O   UNL     1     -43.613  53.952 -55.443  1.00  0.00    -0.532 OA
HETATM   27  O   UNL     1     -41.631  54.760 -55.937  1.00  0.00    -0.532 OA
ENDBRANCH  20  25
BRANCH  22  28
HETATM   28  C   UNL     1     -39.481  51.426 -52.262  1.00  0.00     0.417 C 
HETATM   29  F   UNL     1     -39.119  50.840 -53.435  1.00  0.00    -0.166 F 
HETATM   30  F   UNL     1     -38.328  51.884 -51.700  1.00  0.00    -0.166 F 
HETATM   31  F   UNL     1     -39.918  50.419 -51.458  1.00  0.00    -0.166 F 
ENDBRANCH  22  28
ENDBRANCH  17  19
ENDBRANCH   1  17
TORSDOF 8
ENDMDL
MODEL 4
REMARK VINA RESULT:      -8.2      1.740      2.346
REMARK  8 active torsions:
REMARK  status: ('A' for Active; 'I' for Inactive)
REMARK    1  A    between atoms: C_5  and  C_6 
REMARK       I    between atoms: C_6  and  N_7 
REMARK    2  A    between atoms: N_7  and  N_8 
REMARK       I    between atoms: N_8  and  C_9 
REMARK    3  A    between atoms: C_9  and  C_10 
REMARK    4  A    between atoms: C_10  and  C_11 
REMARK    5  A    between atoms: C_11  and  N_12 
REMARK    6  A    between atoms: N_12  and  C_13 
REMARK    7  A    between atoms: C_14  and  N_15 
REMARK    8  A    between atoms: C_19  and  C_20 
ROOT
HETATM    1  C   UNL     1     -42.541  55.655 -51.863  1.00  0.00     0.102 C 
ENDROOT
BRANCH   1   2
HETATM    2  C   UNL     1     -43.081  56.726 -52.801  1.00  0.00     0.119 C 
BRANCH   2   3
HETATM    3  C   UNL     1     -43.573  56.055 -54.055  1.00  0.00     0.237 C 
HETATM    4  N   UNL     1     -43.372  56.782 -55.208  1.00  0.00    -0.267 N 
HETATM    5  H   UNL     1     -42.826  57.640 -55.265  1.00  0.00     0.190 HD
HETATM    6  O   UNL     1     -44.171  54.981 -54.042  1.00  0.00    -0.272 OA
BRANCH   4   7
HETATM    7  N   UNL     1     -43.838  56.252 -56.412  1.00  0.00    -0.262 N 
HETATM    8  C   UNL     1     -43.633  56.954 -57.581  1.00  0.00     0.286 C 
HETATM    9  O   UNL     1     -43.025  58.025 -57.590  1.00  0.00    -0.264 OA
HETATM   10  H   UNL     1     -44.322  55.359 -56.368  1.00  0.00     0.190 HD
BRANCH   8  11
HETATM   11  C   UNL     1     -44.175  56.350 -58.776  1.00  0.00     0.102 A 
HETATM   12  N   UNL     1     -45.505  56.496 -59.115  1.00  0.00    -0.361 N 
HETATM   13  C   UNL     1     -45.776  55.832 -60.280  1.00  0.00     0.088 A 
HETATM   14  H   UNL     1     -46.171  57.024 -58.562  1.00  0.00     0.165 HD
HETATM   15  C   UNL     1     -44.611  55.244 -60.709  1.00  0.00     0.019 A 
HETATM   16  C   UNL     1     -43.602  55.568 -59.767  1.00  0.00     0.036 A 
ENDBRANCH   8  11
ENDBRANCH   4   7
ENDBRANCH   2   3
ENDBRANCH   1   2
BRANCH   1  17
HETATM   17  N   UNL     1     -41.124  55.413 -52.137  1.00  0.00    -0.290 NA
HETATM   18  H   UNL     1     -40.512  55.780 -51.397  1.00  0.00     0.127 HD
BRANCH  17  19
HETATM   19  C   UNL     1     -40.697  54.142 -52.561  1.00  0.00     0.041 A 
HETATM   20  C   UNL     1     -40.552  53.810 -53.929  1.00  0.00     0.124 A 
HETATM   21  C   UNL     1     -40.216  52.508 -54.355  1.00  0.00     0.054 A 
HETATM   22  C   UNL     1     -40.039  51.482 -53.420  1.00  0.00     0.050 A 
HETATM   23  C   UNL     1     -40.214  51.784 -52.065  1.00  0.00     0.018 A 
HETATM   24  C   UNL     1     -40.550  53.082 -51.650  1.00  0.00     0.027 A 
BRANCH  20  25
HETATM   25  N   UNL     1     -40.722  54.829 -54.970  1.00  0.00    -0.114 N 
HETATM   26  O   UNL     1     -41.378  54.524 -55.980  1.00  0.00    -0.532 OA
HETATM   27  O   UNL     1     -40.224  55.945 -54.765  1.00  0.00    -0.532 OA
ENDBRANCH  20  25
BRANCH  22  28
HETATM   28  C   UNL     1     -39.677  50.078 -53.842  1.00  0.00     0.417 C 
HETATM   29  F   UNL     1     -38.518  50.009 -54.552  1.00  0.00    -0.166 F 
HETATM   30  F   UNL     1     -39.514  49.247 -52.776  1.00  0.00    -0.166 F 
HETATM   31  F   UNL     1     -40.633  49.507 -54.623  1.00  0.00    -0.166 F 
ENDBRANCH  22  28
ENDBRANCH  17  19
ENDBRANCH   1  17
TORSDOF 8
ENDMDL
MODEL 5
REMARK VINA RESULT:      -8.1      2.602      2.967
REMARK  8 active torsions:
REMARK  status: ('A' for Active; 'I' for Inactive)
REMARK    1  A    between atoms: C_5  and  C_6 
REMARK       I    between atoms: C_6  and  N_7 
REMARK    2  A    between atoms: N_7  and  N_8 
REMARK       I    between atoms: N_8  and  C_9 
REMARK    3  A    between atoms: C_9  and  C_10 
REMARK    4  A    between atoms: C_10  and  C_11 
REMARK    5  A    between atoms: C_11  and  N_12 
REMARK    6  A    between atoms: N_12  and  C_13 
REMARK    7  A    between atoms: C_14  and  N_15 
REMARK    8  A    between atoms: C_19  and  C_20 
ROOT
HETATM    1  C   UNL     1     -42.613  55.462 -51.429  1.00  0.00     0.102 C 
ENDROOT
BRANCH   1   2
HETATM    2  C   UNL     1     -43.046  56.918 -51.309  1.00  0.00     0.119 C 
BRANCH   2   3
HETATM    3  C   UNL     1     -44.041  57.209 -52.401  1.00  0.00     0.237 C 
HETATM    4  N   UNL     1     -43.777  56.576 -53.595  1.00  0.00    -0.267 N 
HETATM    5  H   UNL     1     -43.060  55.864 -53.730  1.00  0.00     0.190 HD
HETATM    6  O   UNL     1     -44.968  58.003 -52.259  1.00  0.00    -0.272 OA
BRANCH   4   7
HETATM    7  N   UNL     1     -44.626  56.825 -54.676  1.00  0.00    -0.262 N 
HETATM    8  C   UNL     1     -44.258  57.760 -55.619  1.00  0.00     0.286 C 
HETATM    9  O   UNL     1     -43.187  58.362 -55.546  1.00  0.00    -0.264 OA
HETATM   10  H   UNL     1     -45.495  56.298 -54.711  1.00  0.00     0.190 HD
BRANCH   8  11
HETATM   11  C   UNL     1     -45.209  57.979 -56.685  1.00  0.00     0.102 A 
HETATM   12  N   UNL     1     -46.564  57.804 -56.487  1.00  0.00    -0.361 N 
HETATM   13  C   UNL     1     -47.251  58.065 -57.641  1.00  0.00     0.088 A 
HETATM   14  H   UNL     1     -46.970  57.520 -55.603  1.00  0.00     0.165 HD
HETATM   15  C   UNL     1     -46.337  58.414 -58.606  1.00  0.00     0.019 A 
HETATM   16  C   UNL     1     -45.053  58.361 -58.009  1.00  0.00     0.036 A 
ENDBRANCH   8  11
ENDBRANCH   4   7
ENDBRANCH   2   3
ENDBRANCH   1   2
BRANCH   1  17
HETATM   17  N   UNL     1     -41.356  55.370 -52.172  1.00  0.00    -0.290 NA
HETATM   18  H   UNL     1     -40.596  55.898 -51.725  1.00  0.00     0.127 HD
BRANCH  17  19
HETATM   19  C   UNL     1     -40.902  54.122 -52.633  1.00  0.00     0.041 A 
HETATM   20  C   UNL     1     -41.259  53.608 -53.904  1.00  0.00     0.124 A 
HETATM   21  C   UNL     1     -40.881  52.317 -54.326  1.00  0.00     0.054 A 
HETATM   22  C   UNL     1     -40.150  51.481 -53.474  1.00  0.00     0.050 A 
HETATM   23  C   UNL     1     -39.819  51.958 -52.201  1.00  0.00     0.018 A 
HETATM   24  C   UNL     1     -40.201  53.244 -51.789  1.00  0.00     0.027 A 
BRANCH  20  25
HETATM   25  N   UNL     1     -42.025  54.423 -54.852  1.00  0.00    -0.114 N 
HETATM   26  O   UNL     1     -41.532  55.501 -55.224  1.00  0.00    -0.532 OA
HETATM   27  O   UNL     1     -43.109  53.972 -55.249  1.00  0.00    -0.532 OA
ENDBRANCH  20  25
BRANCH  22  28
HETATM   28  C   UNL     1     -39.728  50.094 -53.896  1.00  0.00     0.417 C 
HETATM   29  F   UNL     1     -39.595  49.228 -52.855  1.00  0.00    -0.166 F 
HETATM   30  F   UNL     1     -40.621  49.521 -54.748  1.00  0.00    -0.166 F 
HETATM   31  F   UNL     1     -38.532  50.089 -54.545  1.00  0.00    -0.166 F 
ENDBRANCH  22  28
ENDBRANCH  17  19
ENDBRANCH   1  17
TORSDOF 8
ENDMDL
MODEL 6
REMARK VINA RESULT:      -8.0      2.269      3.104
REMARK  8 active torsions:
REMARK  status: ('A' for Active; 'I' for Inactive)
REMARK    1  A    between atoms: C_5  and  C_6 
REMARK       I    between atoms: C_6  and  N_7 
REMARK    2  A    between atoms: N_7  and  N_8 
REMARK       I    between atoms: N_8  and  C_9 
REMARK    3  A    between atoms: C_9  and  C_10 
REMARK    4  A    between atoms: C_10  and  C_11 
REMARK    5  A    between atoms: C_11  and  N_12 
REMARK    6  A    between atoms: N_12  and  C_13 
REMARK    7  A    between atoms: C_14  and  N_15 
REMARK    8  A    between atoms: C_19  and  C_20 
ROOT
HETATM    1  C   UNL     1     -42.172  55.369 -51.107  1.00  0.00     0.102 C 
ENDROOT
BRANCH   1   2
HETATM    2  C   UNL     1     -42.772  56.766 -51.184  1.00  0.00     0.119 C 
BRANCH   2   3
HETATM    3  C   UNL     1     -42.605  57.278 -52.590  1.00  0.00     0.237 C 
HETATM    4  N   UNL     1     -43.504  56.759 -53.495  1.00  0.00    -0.267 N 
HETATM    5  H   UNL     1     -44.307  56.181 -53.251  1.00  0.00     0.190 HD
HETATM    6  O   UNL     1     -41.696  58.038 -52.916  1.00  0.00    -0.272 OA
BRANCH   4   7
HETATM    7  N   UNL     1     -43.392  57.147 -54.832  1.00  0.00    -0.262 N 
HETATM    8  C   UNL     1     -44.513  57.594 -55.499  1.00  0.00     0.286 C 
HETATM    9  O   UNL     1     -45.604  57.683 -54.936  1.00  0.00    -0.264 OA
HETATM   10  H   UNL     1     -42.473  57.073 -55.260  1.00  0.00     0.190 HD
BRANCH   8  11
HETATM   11  C   UNL     1     -44.317  57.944 -56.887  1.00  0.00     0.102 A 
HETATM   12  N   UNL     1     -44.436  57.002 -57.889  1.00  0.00    -0.361 N 
HETATM   13  C   UNL     1     -44.200  57.574 -59.109  1.00  0.00     0.088 A 
HETATM   14  H   UNL     1     -44.665  56.029 -57.721  1.00  0.00     0.165 HD
HETATM   15  C   UNL     1     -43.923  58.904 -58.905  1.00  0.00     0.019 A 
HETATM   16  C   UNL     1     -43.996  59.140 -57.510  1.00  0.00     0.036 A 
ENDBRANCH   8  11
ENDBRANCH   4   7
ENDBRANCH   2   3
ENDBRANCH   1   2
BRANCH   1  17
HETATM   17  N   UNL     1     -41.024  55.263 -52.009  1.00  0.00    -0.290 NA
HETATM   18  H   UNL     1     -40.215  55.805 -51.679  1.00  0.00     0.127 HD
BRANCH  17  19
HETATM   19  C   UNL     1     -40.626  54.006 -52.496  1.00  0.00     0.041 A 
HETATM   20  C   UNL     1     -40.915  53.580 -53.815  1.00  0.00     0.124 A 
HETATM   21  C   UNL     1     -40.599  52.284 -54.272  1.00  0.00     0.054 A 
HETATM   22  C   UNL     1     -40.003  51.356 -53.411  1.00  0.00     0.050 A 
HETATM   23  C   UNL     1     -39.743  51.748 -52.093  1.00  0.00     0.018 A 
HETATM   24  C   UNL     1     -40.062  53.040 -51.646  1.00  0.00     0.027 A 
BRANCH  20  25
HETATM   25  N   UNL     1     -41.540  54.493 -54.778  1.00  0.00    -0.114 N 
HETATM   26  O   UNL     1     -42.667  54.198 -55.211  1.00  0.00    -0.532 OA
HETATM   27  O   UNL     1     -40.917  55.520 -55.080  1.00  0.00    -0.532 OA
ENDBRANCH  20  25
BRANCH  22  28
HETATM   28  C   UNL     1     -39.650  49.961 -53.869  1.00  0.00     0.417 C 
HETATM   29  F   UNL     1     -38.465  49.893 -54.533  1.00  0.00    -0.166 F 
HETATM   30  F   UNL     1     -39.547  49.089 -52.828  1.00  0.00    -0.166 F 
HETATM   31  F   UNL     1     -40.583  49.438 -54.709  1.00  0.00    -0.166 F 
ENDBRANCH  22  28
ENDBRANCH  17  19
ENDBRANCH   1  17
TORSDOF 8
ENDMDL
MODEL 7
REMARK VINA RESULT:      -8.0      4.270      5.386
REMARK  8 active torsions:
REMARK  status: ('A' for Active; 'I' for Inactive)
REMARK    1  A    between atoms: C_5  and  C_6 
REMARK       I    between atoms: C_6  and  N_7 
REMARK    2  A    between atoms: N_7  and  N_8 
REMARK       I    between atoms: N_8  and  C_9 
REMARK    3  A    between atoms: C_9  and  C_10 
REMARK    4  A    between atoms: C_10  and  C_11 
REMARK    5  A    between atoms: C_11  and  N_12 
REMARK    6  A    between atoms: N_12  and  C_13 
REMARK    7  A    between atoms: C_14  and  N_15 
REMARK    8  A    between atoms: C_19  and  C_20 
ROOT
HETATM    1  C   UNL     1     -41.865  54.891 -49.892  1.00  0.00     0.102 C 
ENDROOT
BRANCH   1   2
HETATM    2  C   UNL     1     -43.205  54.784 -50.609  1.00  0.00     0.119 C 
BRANCH   2   3
HETATM    3  C   UNL     1     -43.649  56.169 -50.995  1.00  0.00     0.237 C 
HETATM    4  N   UNL     1     -42.738  56.869 -51.755  1.00  0.00    -0.267 N 
HETATM    5  H   UNL     1     -41.886  56.473 -52.152  1.00  0.00     0.190 HD
HETATM    6  O   UNL     1     -44.705  56.661 -50.603  1.00  0.00    -0.272 OA
BRANCH   4   7
HETATM    7  N   UNL     1     -43.051  58.179 -52.121  1.00  0.00    -0.262 N 
HETATM    8  C   UNL     1     -42.275  59.214 -51.645  1.00  0.00     0.286 C 
HETATM    9  O   UNL     1     -41.297  59.009 -50.926  1.00  0.00    -0.264 OA
HETATM   10  H   UNL     1     -43.856  58.310 -52.727  1.00  0.00     0.190 HD
BRANCH   8  11
HETATM   11  C   UNL     1     -42.688  60.540 -52.046  1.00  0.00     0.102 A 
HETATM   12  N   UNL     1     -43.057  61.490 -51.114  1.00  0.00    -0.361 N 
HETATM   13  C   UNL     1     -43.410  62.656 -51.737  1.00  0.00     0.088 A 
HETATM   14  H   UNL     1     -43.060  61.324 -50.114  1.00  0.00     0.165 HD
HETATM   15  C   UNL     1     -43.271  62.468 -53.091  1.00  0.00     0.019 A 
HETATM   16  C   UNL     1     -42.817  61.140 -53.289  1.00  0.00     0.036 A 
ENDBRANCH   8  11
ENDBRANCH   4   7
ENDBRANCH   2   3
ENDBRANCH   1   2
BRANCH   1  17
HETATM   17  N   UNL     1     -40.774  54.931 -50.868  1.00  0.00    -0.290 NA
HETATM   18  H   UNL     1     -39.928  55.375 -50.492  1.00  0.00     0.127 HD
BRANCH  17  19
HETATM   19  C   UNL     1     -40.454  53.781 -51.611  1.00  0.00     0.041 A 
HETATM   20  C   UNL     1     -40.780  53.652 -52.983  1.00  0.00     0.124 A 
HETATM   21  C   UNL     1     -40.543  52.463 -53.703  1.00  0.00     0.054 A 
HETATM   22  C   UNL     1     -39.992  51.347 -53.063  1.00  0.00     0.050 A 
HETATM   23  C   UNL     1     -39.697  51.445 -51.699  1.00  0.00     0.018 A 
HETATM   24  C   UNL     1     -39.937  52.632 -50.990  1.00  0.00     0.027 A 
BRANCH  20  25
HETATM   25  N   UNL     1     -41.361  54.776 -53.724  1.00  0.00    -0.114 N 
HETATM   26  O   UNL     1     -42.526  54.658 -54.140  1.00  0.00    -0.532 OA
HETATM   27  O   UNL     1     -40.663  55.790 -53.867  1.00  0.00    -0.532 OA
ENDBRANCH  20  25
BRANCH  22  28
HETATM   28  C   UNL     1     -39.724  50.060 -53.805  1.00  0.00     0.417 C 
HETATM   29  F   UNL     1     -39.474  49.004 -52.984  1.00  0.00    -0.166 F 
HETATM   30  F   UNL     1     -40.775  49.688 -54.586  1.00  0.00    -0.166 F 
HETATM   31  F   UNL     1     -38.650  50.152 -54.636  1.00  0.00    -0.166 F 
ENDBRANCH  22  28
ENDBRANCH  17  19
ENDBRANCH   1  17
TORSDOF 8
ENDMDL
MODEL 8
REMARK VINA RESULT:      -8.0      4.136      5.569
REMARK  8 active torsions:
REMARK  status: ('A' for Active; 'I' for Inactive)
REMARK    1  A    between atoms: C_5  and  C_6 
REMARK       I    between atoms: C_6  and  N_7 
REMARK    2  A    between atoms: N_7  and  N_8 
REMARK       I    between atoms: N_8  and  C_9 
REMARK    3  A    between atoms: C_9  and  C_10 
REMARK    4  A    between atoms: C_10  and  C_11 
REMARK    5  A    between atoms: C_11  and  N_12 
REMARK    6  A    between atoms: N_12  and  C_13 
REMARK    7  A    between atoms: C_14  and  N_15 
REMARK    8  A    between atoms: C_19  and  C_20 
ROOT
HETATM    1  C   UNL     1     -41.961  55.038 -50.153  1.00  0.00     0.102 C 
ENDROOT
BRANCH   1   2
HETATM    2  C   UNL     1     -43.360  55.199 -50.734  1.00  0.00     0.119 C 
BRANCH   2   3
HETATM    3  C   UNL     1     -43.542  56.636 -51.144  1.00  0.00     0.237 C 
HETATM    4  N   UNL     1     -44.850  57.002 -51.371  1.00  0.00    -0.267 N 
HETATM    5  H   UNL     1     -45.661  56.420 -51.163  1.00  0.00     0.190 HD
HETATM    6  O   UNL     1     -42.596  57.397 -51.333  1.00  0.00    -0.272 OA
BRANCH   4   7
HETATM    7  N   UNL     1     -45.106  58.307 -51.797  1.00  0.00    -0.262 N 
HETATM    8  C   UNL     1     -45.739  59.183 -50.942  1.00  0.00     0.286 C 
HETATM    9  O   UNL     1     -46.061  58.850 -49.801  1.00  0.00    -0.264 OA
HETATM   10  H   UNL     1     -44.814  58.550 -52.740  1.00  0.00     0.190 HD
BRANCH   8  11
HETATM   11  C   UNL     1     -45.994  60.502 -51.474  1.00  0.00     0.102 A 
HETATM   12  N   UNL     1     -47.039  60.735 -52.346  1.00  0.00    -0.361 N 
HETATM   13  C   UNL     1     -47.070  62.053 -52.710  1.00  0.00     0.088 A 
HETATM   14  H   UNL     1     -47.680  60.015 -52.659  1.00  0.00     0.165 HD
HETATM   15  C   UNL     1     -46.034  62.691 -52.071  1.00  0.00     0.019 A 
HETATM   16  C   UNL     1     -45.356  61.719 -51.293  1.00  0.00     0.036 A 
ENDBRANCH   8  11
ENDBRANCH   4   7
ENDBRANCH   2   3
ENDBRANCH   1   2
BRANCH   1  17
HETATM   17  N   UNL     1     -40.964  55.085 -51.224  1.00  0.00    -0.290 NA
HETATM   18  H   UNL     1     -40.135  55.635 -50.964  1.00  0.00     0.127 HD
BRANCH  17  19
HETATM   19  C   UNL     1     -40.598  53.906 -51.896  1.00  0.00     0.041 A 
HETATM   20  C   UNL     1     -41.013  53.630 -53.222  1.00  0.00     0.124 A 
HETATM   21  C   UNL     1     -40.724  52.407 -53.860  1.00  0.00     0.054 A 
HETATM   22  C   UNL     1     -40.030  51.401 -53.180  1.00  0.00     0.050 A 
HETATM   23  C   UNL     1     -39.643  51.641 -51.857  1.00  0.00     0.018 A 
HETATM   24  C   UNL     1     -39.935  52.862 -51.228  1.00  0.00     0.027 A 
BRANCH  20  25
HETATM   25  N   UNL     1     -41.746  54.633 -54.001  1.00  0.00    -0.114 N 
HETATM   26  O   UNL     1     -41.309  55.796 -54.010  1.00  0.00    -0.532 OA
HETATM   27  O   UNL     1     -42.745  54.252 -54.627  1.00  0.00    -0.532 OA
ENDBRANCH  20  25
BRANCH  22  28
HETATM   28  C   UNL     1     -39.703  50.080 -53.835  1.00  0.00     0.417 C 
HETATM   29  F   UNL     1     -39.484  49.074 -52.946  1.00  0.00    -0.166 F 
HETATM   30  F   UNL     1     -40.705  49.649 -54.650  1.00  0.00    -0.166 F 
HETATM   31  F   UNL     1     -38.587  50.146 -54.611  1.00  0.00    -0.166 F 
ENDBRANCH  22  28
ENDBRANCH  17  19
ENDBRANCH   1  17
TORSDOF 8
ENDMDL
MODEL 9
REMARK VINA RESULT:      -7.6      4.068      6.322
REMARK  8 active torsions:
REMARK  status: ('A' for Active; 'I' for Inactive)
REMARK    1  A    between atoms: C_5  and  C_6 
REMARK       I    between atoms: C_6  and  N_7 
REMARK    2  A    between atoms: N_7  and  N_8 
REMARK       I    between atoms: N_8  and  C_9 
REMARK    3  A    between atoms: C_9  and  C_10 
REMARK    4  A    between atoms: C_10  and  C_11 
REMARK    5  A    between atoms: C_11  and  N_12 
REMARK    6  A    between atoms: N_12  and  C_13 
REMARK    7  A    between atoms: C_14  and  N_15 
REMARK    8  A    between atoms: C_19  and  C_20 
ROOT
HETATM    1  C   UNL     1     -42.180  55.834 -51.296  1.00  0.00     0.102 C 
ENDROOT
BRANCH   1   2
HETATM    2  C   UNL     1     -43.146  56.495 -52.269  1.00  0.00     0.119 C 
BRANCH   2   3
HETATM    3  C   UNL     1     -43.218  57.963 -51.944  1.00  0.00     0.237 C 
HETATM    4  N   UNL     1     -43.960  58.262 -50.822  1.00  0.00    -0.267 N 
HETATM    5  H   UNL     1     -44.332  57.573 -50.171  1.00  0.00     0.190 HD
HETATM    6  O   UNL     1     -42.718  58.827 -52.661  1.00  0.00    -0.272 OA
BRANCH   4   7
HETATM    7  N   UNL     1     -44.115  59.605 -50.472  1.00  0.00    -0.262 N 
HETATM    8  C   UNL     1     -45.287  60.013 -49.873  1.00  0.00     0.286 C 
HETATM    9  O   UNL     1     -46.190  59.217 -49.615  1.00  0.00    -0.264 OA
HETATM   10  H   UNL     1     -43.343  60.231 -50.687  1.00  0.00     0.190 HD
BRANCH   8  11
HETATM   11  C   UNL     1     -45.378  61.424 -49.573  1.00  0.00     0.102 A 
HETATM   12  N   UNL     1     -46.316  62.230 -50.186  1.00  0.00    -0.361 N 
HETATM   13  C   UNL     1     -46.199  63.519 -49.743  1.00  0.00     0.088 A 
HETATM   14  H   UNL     1     -46.987  61.892 -50.867  1.00  0.00     0.165 HD
HETATM   15  C   UNL     1     -45.173  63.559 -48.831  1.00  0.00     0.019 A 
HETATM   16  C   UNL     1     -44.655  62.244 -48.721  1.00  0.00     0.036 A 
ENDBRANCH   8  11
ENDBRANCH   4   7
ENDBRANCH   2   3
ENDBRANCH   1   2
BRANCH   1  17
HETATM   17  N   UNL     1     -40.937  55.480 -51.984  1.00  0.00    -0.290 NA
HETATM   18  H   UNL     1     -40.106  55.858 -51.513  1.00  0.00     0.127 HD
BRANCH  17  19
HETATM   19  C   UNL     1     -40.719  54.156 -52.405  1.00  0.00     0.041 A 
HETATM   20  C   UNL     1     -40.174  53.169 -51.548  1.00  0.00     0.124 A 
HETATM   21  C   UNL     1     -39.869  51.868 -51.999  1.00  0.00     0.054 A 
HETATM   22  C   UNL     1     -40.076  51.517 -53.338  1.00  0.00     0.050 A 
HETATM   23  C   UNL     1     -40.582  52.490 -54.207  1.00  0.00     0.018 A 
HETATM   24  C   UNL     1     -40.881  53.783 -53.750  1.00  0.00     0.027 A 
BRANCH  20  25
HETATM   25  N   UNL     1     -39.926  53.460 -50.133  1.00  0.00    -0.114 N 
HETATM   26  O   UNL     1     -39.179  54.413 -49.857  1.00  0.00    -0.532 OA
HETATM   27  O   UNL     1     -40.501  52.751 -49.294  1.00  0.00    -0.532 OA
ENDBRANCH  20  25
BRANCH  22  28
HETATM   28  C   UNL     1     -39.763  50.133 -53.852  1.00  0.00     0.417 C 
HETATM   29  F   UNL     1     -38.622  50.075 -54.591  1.00  0.00    -0.166 F 
HETATM   30  F   UNL     1     -39.602  49.234 -52.843  1.00  0.00    -0.166 F 
HETATM   31  F   UNL     1     -40.751  49.636 -54.646  1.00  0.00    -0.166 F 
ENDBRANCH  22  28
ENDBRANCH  17  19
ENDBRANCH   1  17
TORSDOF 8
ENDMDL
MODEL 10
REMARK VINA RESULT:      -7.5      4.236      6.889
REMARK  8 active torsions:
REMARK  status: ('A' for Active; 'I' for Inactive)
REMARK    1  A    between atoms: C_5  and  C_6 
REMARK       I    between atoms: C_6  and  N_7 
REMARK    2  A    between atoms: N_7  and  N_8 
REMARK       I    between atoms: N_8  and  C_9 
REMARK    3  A    between atoms: C_9  and  C_10 
REMARK    4  A    between atoms: C_10  and  C_11 
REMARK    5  A    between atoms: C_11  and  N_12 
REMARK    6  A    between atoms: N_12  and  C_13 
REMARK    7  A    between atoms: C_14  and  N_15 
REMARK    8  A    between atoms: C_19  and  C_20 
ROOT
HETATM    1  C   UNL     1     -42.505  55.532 -51.249  1.00  0.00     0.102 C 
ENDROOT
BRANCH   1   2
HETATM    2  C   UNL     1     -43.428  56.534 -51.931  1.00  0.00     0.119 C 
BRANCH   2   3
HETATM    3  C   UNL     1     -43.013  57.920 -51.518  1.00  0.00     0.237 C 
HETATM    4  N   UNL     1     -43.936  58.583 -50.740  1.00  0.00    -0.267 N 
HETATM    5  H   UNL     1     -44.777  58.161 -50.348  1.00  0.00     0.190 HD
HETATM    6  O   UNL     1     -41.970  58.444 -51.904  1.00  0.00    -0.272 OA
BRANCH   4   7
HETATM    7  N   UNL     1     -43.650  59.893 -50.348  1.00  0.00    -0.262 N 
HETATM    8  C   UNL     1     -44.676  60.705 -49.915  1.00  0.00     0.286 C 
HETATM    9  O   UNL     1     -45.835  60.295 -49.841  1.00  0.00    -0.264 OA
HETATM   10  H   UNL     1     -42.680  60.192 -50.408  1.00  0.00     0.190 HD
BRANCH   8  11
HETATM   11  C   UNL     1     -44.298  62.053 -49.559  1.00  0.00     0.102 A 
HETATM   12  N   UNL     1     -44.923  62.727 -48.528  1.00  0.00    -0.361 N 
HETATM   13  C   UNL     1     -44.396  63.981 -48.391  1.00  0.00     0.088 A 
HETATM   14  H   UNL     1     -45.667  62.328 -47.967  1.00  0.00     0.165 HD
HETATM   15  C   UNL     1     -43.416  64.133 -49.342  1.00  0.00     0.019 A 
HETATM   16  C   UNL     1     -43.351  62.923 -50.077  1.00  0.00     0.036 A 
ENDBRANCH   8  11
ENDBRANCH   4   7
ENDBRANCH   2   3
ENDBRANCH   1   2
BRANCH   1  17
HETATM   17  N   UNL     1     -41.250  55.416 -51.994  1.00  0.00    -0.290 NA
HETATM   18  H   UNL     1     -40.472  55.901 -51.529  1.00  0.00     0.127 HD
BRANCH  17  19
HETATM   19  C   UNL     1     -40.842  54.167 -52.493  1.00  0.00     0.041 A 
HETATM   20  C   UNL     1     -41.243  53.693 -53.766  1.00  0.00     0.124 A 
HETATM   21  C   UNL     1     -40.911  52.402 -54.226  1.00  0.00     0.054 A 
HETATM   22  C   UNL     1     -40.185  51.527 -53.411  1.00  0.00     0.050 A 
HETATM   23  C   UNL     1     -39.810  51.965 -52.136  1.00  0.00     0.018 A 
HETATM   24  C   UNL     1     -40.146  53.251 -51.686  1.00  0.00     0.027 A 
BRANCH  20  25
HETATM   25  N   UNL     1     -42.009  54.550 -54.677  1.00  0.00    -0.114 N 
HETATM   26  O   UNL     1     -41.455  55.571 -55.117  1.00  0.00    -0.532 OA
HETATM   27  O   UNL     1     -43.155  54.186 -54.977  1.00  0.00    -0.532 OA
ENDBRANCH  20  25
BRANCH  22  28
HETATM   28  C   UNL     1     -39.811  50.139 -53.873  1.00  0.00     0.417 C 
HETATM   29  F   UNL     1     -40.716  49.591 -54.729  1.00  0.00    -0.166 F 
HETATM   30  F   UNL     1     -38.617  50.119 -54.527  1.00  0.00    -0.166 F 
HETATM   31  F   UNL     1     -39.690  49.261 -52.841  1.00  0.00    -0.166 F 
ENDBRANCH  22  28
ENDBRANCH  17  19
ENDBRANCH   1  17
TORSDOF 8
ENDMDL
