MODEL 1
REMARK VINA RESULT:      -8.7      0.000      0.000
REMARK  10 active torsions:
REMARK  status: ('A' for Active; 'I' for Inactive)
REMARK    1  A    between atoms: C_6  and  C_7 
REMARK    2  A    between atoms: C_7  and  N_8 
REMARK    3  A    between atoms: N_8  and  C_10 
REMARK    4  A    between atoms: N_8  and  C_20 
REMARK    5  A    between atoms: C_10  and  C_11 
REMARK    6  A    between atoms: N_12  and  C_13 
REMARK    7  A    between atoms: C_20  and  C_21 
REMARK    8  A    between atoms: C_21  and  C_22 
REMARK    9  A    between atoms: C_22  and  N_23 
REMARK   10  A    between atoms: C_30  and  O_31 
ROOT
HETATM    1  N   UNL     1     -42.369  56.409 -53.836  1.00  0.00    -0.060 N 
HETATM    2  H   UNL     1     -42.877  55.680 -53.314  1.00  0.00     0.280 HD
ENDROOT
BRANCH   1   3
HETATM    3  C   UNL     1     -40.955  55.826 -53.989  1.00  0.00     0.278 C 
BRANCH   3   4
HETATM    4  C   UNL     1     -40.712  54.441 -53.483  1.00  0.00     0.021 A 
HETATM    5  C   UNL     1     -40.407  53.387 -54.348  1.00  0.00     0.027 A 
HETATM    6  C   UNL     1     -40.126  52.107 -53.840  1.00  0.00    -0.006 A 
HETATM    7  C   UNL     1     -40.163  51.911 -52.440  1.00  0.00     0.075 A 
HETATM    8  C   UNL     1     -39.798  51.048 -54.702  1.00  0.00     0.014 A 
HETATM    9  C   UNL     1     -39.873  50.635 -51.940  1.00  0.00    -0.032 A 
HETATM   10  N   UNL     1     -40.462  52.931 -51.610  1.00  0.00    -0.223 NA
HETATM   11  C   UNL     1     -39.840  50.363 -50.458  1.00  0.00     0.050 C 
HETATM   12  C   UNL     1     -39.535  49.586 -52.813  1.00  0.00     0.009 A 
HETATM   13  C   UNL     1     -39.502  49.791 -54.187  1.00  0.00     0.002 A 
HETATM   14  C   UNL     1     -40.706  54.132 -52.140  1.00  0.00     0.170 A 
BRANCH  14  15
HETATM   15  O   UNL     1     -40.955  55.067 -51.192  1.00  0.00    -0.344 OA
HETATM   16  H   UNL     1     -40.149  55.615 -51.319  1.00  0.00     0.219 HD
ENDBRANCH  14  15
ENDBRANCH   3   4
ENDBRANCH   1   3
BRANCH   1  17
HETATM   17  C   UNL     1     -42.404  57.593 -52.833  1.00  0.00     0.316 C 
BRANCH  17  18
HETATM   18  C   UNL     1     -43.588  57.490 -51.952  1.00  0.00     0.163 A 
HETATM   19  N   UNL     1     -44.620  58.384 -51.768  1.00  0.00    -0.253 N 
HETATM   20  N   UNL     1     -45.429  57.881 -50.812  1.00  0.00    -0.002 NA
HETATM   21  N   UNL     1     -44.946  56.693 -50.492  1.00  0.00     0.018 NA
HETATM   22  N   UNL     1     -43.816  56.427 -51.200  1.00  0.00    -0.145 NA
BRANCH  19  23
HETATM   23  C   UNL     1     -44.975  59.679 -52.369  1.00  0.00     0.042 C 
HETATM   24  C   UNL     1     -45.175  59.627 -53.896  1.00  0.00     0.039 C 
HETATM   25  C   UNL     1     -46.306  60.181 -51.759  1.00  0.00     0.039 C 
HETATM   26  C   UNL     1     -43.863  60.701 -52.067  1.00  0.00     0.039 C 
ENDBRANCH  19  23
ENDBRANCH  17  18
ENDBRANCH   1  17
BRANCH   1  27
HETATM   27  C   UNL     1     -43.102  56.738 -55.112  1.00  0.00     0.237 C 
BRANCH  27  28
HETATM   28  C   UNL     1     -42.401  56.283 -56.405  1.00  0.00     0.055 C 
BRANCH  28  29
HETATM   29  C   UNL     1     -43.030  55.068 -57.088  1.00  0.00     0.236 C 
BRANCH  29  30
HETATM   30  N   UNL     1     -43.818  55.486 -58.315  1.00  0.00    -0.067 N 
HETATM   31  H   UNL     1     -44.687  55.959 -58.026  1.00  0.00     0.280 HD
HETATM   32  C   UNL     1     -43.045  56.514 -59.165  1.00  0.00     0.261 C 
HETATM   33  C   UNL     1     -43.891  56.927 -60.374  1.00  0.00     0.195 C 
HETATM   34  O   UNL     1     -44.231  55.785 -61.163  1.00  0.00    -0.388 OA
HETATM   35  C   UNL     1     -45.014  54.841 -60.430  1.00  0.00     0.195 C 
HETATM   36  C   UNL     1     -44.232  54.312 -59.221  1.00  0.00     0.261 C 
ENDBRANCH  29  30
ENDBRANCH  28  29
ENDBRANCH  27  28
ENDBRANCH   1  27
TORSDOF 10
ENDMDL
MODEL 2
REMARK VINA RESULT:      -8.5      1.569      2.062
REMARK  10 active torsions:
REMARK  status: ('A' for Active; 'I' for Inactive)
REMARK    1  A    between atoms: C_6  and  C_7 
REMARK    2  A    between atoms: C_7  and  N_8 
REMARK    3  A    between atoms: N_8  and  C_10 
REMARK    4  A    between atoms: N_8  and  C_20 
REMARK    5  A    between atoms: C_10  and  C_11 
REMARK    6  A    between atoms: N_12  and  C_13 
REMARK    7  A    between atoms: C_20  and  C_21 
REMARK    8  A    between atoms: C_21  and  C_22 
REMARK    9  A    between atoms: C_22  and  N_23 
REMARK   10  A    between atoms: C_30  and  O_31 
ROOT
HETATM    1  N   UNL     1     -41.976  56.525 -54.427  1.00  0.00    -0.060 N 
HETATM    2  H   UNL     1     -42.138  56.442 -53.413  1.00  0.00     0.280 HD
ENDROOT
BRANCH   1   3
HETATM    3  C   UNL     1     -40.684  55.724 -54.653  1.00  0.00     0.278 C 
BRANCH   3   4
HETATM    4  C   UNL     1     -40.541  54.414 -53.949  1.00  0.00     0.021 A 
HETATM    5  C   UNL     1     -40.216  53.243 -54.637  1.00  0.00     0.027 A 
HETATM    6  C   UNL     1     -40.031  52.035 -53.942  1.00  0.00    -0.006 A 
HETATM    7  C   UNL     1     -40.186  52.033 -52.536  1.00  0.00     0.075 A 
HETATM    8  C   UNL     1     -39.683  50.858 -54.624  1.00  0.00     0.014 A 
HETATM    9  C   UNL     1     -39.992  50.829 -51.848  1.00  0.00    -0.032 A 
HETATM   10  N   UNL     1     -40.504  53.166 -51.877  1.00  0.00    -0.223 NA
HETATM   11  C   UNL     1     -40.087  50.761 -50.346  1.00  0.00     0.050 C 
HETATM   12  C   UNL     1     -39.633  49.660 -52.542  1.00  0.00     0.009 A 
HETATM   13  C   UNL     1     -39.483  49.675 -53.923  1.00  0.00     0.002 A 
HETATM   14  C   UNL     1     -40.654  54.291 -52.580  1.00  0.00     0.170 A 
BRANCH  14  15
HETATM   15  O   UNL     1     -40.936  55.354 -51.790  1.00  0.00    -0.344 OA
HETATM   16  H   UNL     1     -40.410  55.089 -51.002  1.00  0.00     0.219 HD
ENDBRANCH  14  15
ENDBRANCH   3   4
ENDBRANCH   1   3
BRANCH   1  17
HETATM   17  C   UNL     1     -41.747  58.052 -54.582  1.00  0.00     0.316 C 
BRANCH  17  18
HETATM   18  C   UNL     1     -41.388  58.657 -53.280  1.00  0.00     0.163 A 
HETATM   19  N   UNL     1     -42.202  59.008 -52.226  1.00  0.00    -0.253 N 
HETATM   20  N   UNL     1     -41.424  59.588 -51.287  1.00  0.00    -0.002 NA
HETATM   21  N   UNL     1     -40.180  59.514 -51.725  1.00  0.00     0.018 NA
HETATM   22  N   UNL     1     -40.136  58.926 -52.951  1.00  0.00    -0.145 NA
BRANCH  19  23
HETATM   23  C   UNL     1     -43.642  58.881 -51.954  1.00  0.00     0.042 C 
HETATM   24  C   UNL     1     -44.080  57.459 -51.554  1.00  0.00     0.039 C 
HETATM   25  C   UNL     1     -44.030  59.816 -50.785  1.00  0.00     0.039 C 
HETATM   26  C   UNL     1     -44.433  59.288 -53.212  1.00  0.00     0.039 C 
ENDBRANCH  19  23
ENDBRANCH  17  18
ENDBRANCH   1  17
BRANCH   1  27
HETATM   27  C   UNL     1     -43.195  56.065 -55.185  1.00  0.00     0.237 C 
BRANCH  27  28
HETATM   28  C   UNL     1     -42.917  55.512 -56.596  1.00  0.00     0.055 C 
BRANCH  28  29
HETATM   29  C   UNL     1     -43.207  56.486 -57.739  1.00  0.00     0.236 C 
BRANCH  29  30
HETATM   30  N   UNL     1     -44.338  55.973 -58.610  1.00  0.00    -0.067 N 
HETATM   31  H   UNL     1     -44.906  55.296 -58.080  1.00  0.00     0.280 HD
HETATM   32  C   UNL     1     -45.305  57.105 -59.011  1.00  0.00     0.261 C 
HETATM   33  C   UNL     1     -46.444  56.535 -59.864  1.00  0.00     0.195 C 
HETATM   34  O   UNL     1     -45.926  55.888 -61.028  1.00  0.00    -0.388 OA
HETATM   35  C   UNL     1     -45.082  54.784 -60.697  1.00  0.00     0.195 C 
HETATM   36  C   UNL     1     -43.867  55.255 -59.888  1.00  0.00     0.261 C 
ENDBRANCH  29  30
ENDBRANCH  28  29
ENDBRANCH  27  28
ENDBRANCH   1  27
TORSDOF 10
ENDMDL
MODEL 3
REMARK VINA RESULT:      -8.5      1.307      2.044
REMARK  10 active torsions:
REMARK  status: ('A' for Active; 'I' for Inactive)
REMARK    1  A    between atoms: C_6  and  C_7 
REMARK    2  A    between atoms: C_7  and  N_8 
REMARK    3  A    between atoms: N_8  and  C_10 
REMARK    4  A    between atoms: N_8  and  C_20 
REMARK    5  A    between atoms: C_10  and  C_11 
REMARK    6  A    between atoms: N_12  and  C_13 
REMARK    7  A    between atoms: C_20  and  C_21 
REMARK    8  A    between atoms: C_21  and  C_22 
REMARK    9  A    between atoms: C_22  and  N_23 
REMARK   10  A    between atoms: C_30  and  O_31 
ROOT
HETATM    1  N   UNL     1     -42.568  56.280 -53.730  1.00  0.00    -0.060 N 
HETATM    2  H   UNL     1     -42.954  55.742 -52.941  1.00  0.00     0.280 HD
ENDROOT
BRANCH   1   3
HETATM    3  C   UNL     1     -41.063  55.973 -53.676  1.00  0.00     0.278 C 
BRANCH   3   4
HETATM    4  C   UNL     1     -40.645  54.549 -53.508  1.00  0.00     0.021 A 
HETATM    5  C   UNL     1     -40.585  53.945 -52.250  1.00  0.00     0.027 A 
HETATM    6  C   UNL     1     -40.244  52.587 -52.126  1.00  0.00    -0.006 A 
HETATM    7  C   UNL     1     -39.961  51.850 -53.299  1.00  0.00     0.075 A 
HETATM    8  C   UNL     1     -40.203  51.968 -50.866  1.00  0.00     0.014 A 
HETATM    9  C   UNL     1     -39.631  50.496 -53.169  1.00  0.00    -0.032 A 
HETATM   10  N   UNL     1     -40.017  52.439 -54.511  1.00  0.00    -0.223 NA
HETATM   11  C   UNL     1     -39.369  49.634 -54.377  1.00  0.00     0.050 C 
HETATM   12  C   UNL     1     -39.604  49.886 -51.903  1.00  0.00     0.009 A 
HETATM   13  C   UNL     1     -39.884  50.620 -50.758  1.00  0.00     0.002 A 
HETATM   14  C   UNL     1     -40.360  53.727 -54.578  1.00  0.00     0.170 A 
BRANCH  14  15
HETATM   15  O   UNL     1     -40.411  54.177 -55.855  1.00  0.00    -0.344 OA
HETATM   16  H   UNL     1     -40.818  53.383 -56.269  1.00  0.00     0.219 HD
ENDBRANCH  14  15
ENDBRANCH   3   4
ENDBRANCH   1   3
BRANCH   1  17
HETATM   17  C   UNL     1     -42.880  57.737 -53.296  1.00  0.00     0.316 C 
BRANCH  17  18
HETATM   18  C   UNL     1     -43.927  57.753 -52.251  1.00  0.00     0.163 A 
HETATM   19  N   UNL     1     -44.862  58.724 -51.966  1.00  0.00    -0.253 N 
HETATM   20  N   UNL     1     -45.554  58.317 -50.881  1.00  0.00    -0.002 NA
HETATM   21  N   UNL     1     -45.107  57.112 -50.576  1.00  0.00     0.018 NA
HETATM   22  N   UNL     1     -44.111  56.739 -51.423  1.00  0.00    -0.145 NA
BRANCH  19  23
HETATM   23  C   UNL     1     -45.217  60.016 -52.573  1.00  0.00     0.042 C 
HETATM   24  C   UNL     1     -46.526  60.623 -52.033  1.00  0.00     0.039 C 
HETATM   25  C   UNL     1     -44.096  61.043 -52.290  1.00  0.00     0.039 C 
HETATM   26  C   UNL     1     -45.366  59.837 -54.096  1.00  0.00     0.039 C 
ENDBRANCH  19  23
ENDBRANCH  17  18
ENDBRANCH   1  17
BRANCH   1  27
HETATM   27  C   UNL     1     -43.284  55.914 -55.006  1.00  0.00     0.237 C 
BRANCH  27  28
HETATM   28  C   UNL     1     -42.770  56.626 -56.271  1.00  0.00     0.055 C 
BRANCH  28  29
HETATM   29  C   UNL     1     -43.824  57.433 -57.031  1.00  0.00     0.236 C 
BRANCH  29  30
HETATM   30  N   UNL     1     -44.495  56.581 -58.091  1.00  0.00    -0.067 N 
HETATM   31  H   UNL     1     -45.206  55.977 -57.653  1.00  0.00     0.280 HD
HETATM   32  C   UNL     1     -45.255  57.444 -59.118  1.00  0.00     0.261 C 
HETATM   33  C   UNL     1     -45.939  56.540 -60.149  1.00  0.00     0.195 C 
HETATM   34  O   UNL     1     -44.978  55.714 -60.809  1.00  0.00    -0.388 OA
HETATM   35  C   UNL     1     -44.304  54.843 -59.898  1.00  0.00     0.195 C 
HETATM   36  C   UNL     1     -43.530  55.652 -58.850  1.00  0.00     0.261 C 
ENDBRANCH  29  30
ENDBRANCH  28  29
ENDBRANCH  27  28
ENDBRANCH   1  27
TORSDOF 10
ENDMDL
MODEL 4
REMARK VINA RESULT:      -8.4      1.593      2.265
REMARK  10 active torsions:
REMARK  status: ('A' for Active; 'I' for Inactive)
REMARK    1  A    between atoms: C_6  and  C_7 
REMARK    2  A    between atoms: C_7  and  N_8 
REMARK    3  A    between atoms: N_8  and  C_10 
REMARK    4  A    between atoms: N_8  and  C_20 
REMARK    5  A    between atoms: C_10  and  C_11 
REMARK    6  A    between atoms: N_12  and  C_13 
REMARK    7  A    between atoms: C_20  and  C_21 
REMARK    8  A    between atoms: C_21  and  C_22 
REMARK    9  A    between atoms: C_22  and  N_23 
REMARK   10  A    between atoms: C_30  and  O_31 
ROOT
HETATM    1  N   UNL     1     -42.314  55.795 -55.105  1.00  0.00    -0.060 N 
HETATM    2  H   UNL     1     -42.919  55.150 -54.576  1.00  0.00     0.280 HD
ENDROOT
BRANCH   1   3
HETATM    3  C   UNL     1     -40.908  55.504 -54.558  1.00  0.00     0.278 C 
BRANCH   3   4
HETATM    4  C   UNL     1     -40.681  54.196 -53.874  1.00  0.00     0.021 A 
HETATM    5  C   UNL     1     -40.344  53.043 -54.587  1.00  0.00     0.027 A 
HETATM    6  C   UNL     1     -40.080  51.839 -53.913  1.00  0.00    -0.006 A 
HETATM    7  C   UNL     1     -40.166  51.820 -52.502  1.00  0.00     0.075 A 
HETATM    8  C   UNL     1     -39.720  50.681 -54.622  1.00  0.00     0.014 A 
HETATM    9  C   UNL     1     -39.893  50.619 -51.835  1.00  0.00    -0.032 A 
HETATM   10  N   UNL     1     -40.496  52.935 -51.818  1.00  0.00    -0.223 NA
HETATM   11  C   UNL     1     -39.913  50.536 -50.331  1.00  0.00     0.050 C 
HETATM   12  C   UNL     1     -39.523  49.471 -52.556  1.00  0.00     0.009 A 
HETATM   13  C   UNL     1     -39.441  49.501 -53.943  1.00  0.00     0.002 A 
HETATM   14  C   UNL     1     -40.723  54.058 -52.503  1.00  0.00     0.170 A 
BRANCH  14  15
HETATM   15  O   UNL     1     -41.007  55.103 -51.690  1.00  0.00    -0.344 OA
HETATM   16  H   UNL     1     -40.114  55.226 -51.299  1.00  0.00     0.219 HD
ENDBRANCH  14  15
ENDBRANCH   3   4
ENDBRANCH   1   3
BRANCH   1  17
HETATM   17  C   UNL     1     -42.846  57.176 -54.638  1.00  0.00     0.316 C 
BRANCH  17  18
HETATM   18  C   UNL     1     -42.998  57.201 -53.167  1.00  0.00     0.163 A 
HETATM   19  N   UNL     1     -42.412  58.038 -52.242  1.00  0.00    -0.253 N 
HETATM   20  N   UNL     1     -42.803  57.628 -51.017  1.00  0.00    -0.002 NA
HETATM   21  N   UNL     1     -43.654  56.635 -51.202  1.00  0.00     0.018 NA
HETATM   22  N   UNL     1     -43.800  56.367 -52.527  1.00  0.00    -0.145 NA
BRANCH  19  23
HETATM   23  C   UNL     1     -41.514  59.199 -52.333  1.00  0.00     0.042 C 
HETATM   24  C   UNL     1     -41.221  59.873 -50.979  1.00  0.00     0.039 C 
HETATM   25  C   UNL     1     -40.153  58.752 -52.916  1.00  0.00     0.039 C 
HETATM   26  C   UNL     1     -42.141  60.254 -53.265  1.00  0.00     0.039 C 
ENDBRANCH  19  23
ENDBRANCH  17  18
ENDBRANCH   1  17
BRANCH   1  27
HETATM   27  C   UNL     1     -42.515  55.593 -56.586  1.00  0.00     0.237 C 
BRANCH  27  28
HETATM   28  C   UNL     1     -42.968  56.845 -57.360  1.00  0.00     0.055 C 
BRANCH  28  29
HETATM   29  C   UNL     1     -42.897  56.722 -58.883  1.00  0.00     0.236 C 
BRANCH  29  30
HETATM   30  N   UNL     1     -44.262  56.945 -59.507  1.00  0.00    -0.067 N 
HETATM   31  H   UNL     1     -44.180  57.597 -60.301  1.00  0.00     0.280 HD
HETATM   32  C   UNL     1     -44.840  55.642 -60.094  1.00  0.00     0.261 C 
HETATM   33  C   UNL     1     -46.203  55.923 -60.736  1.00  0.00     0.195 C 
HETATM   34  O   UNL     1     -47.105  56.479 -59.778  1.00  0.00    -0.388 OA
HETATM   35  C   UNL     1     -46.639  57.729 -59.265  1.00  0.00     0.195 C 
HETATM   36  C   UNL     1     -45.298  57.550 -58.542  1.00  0.00     0.261 C 
ENDBRANCH  29  30
ENDBRANCH  28  29
ENDBRANCH  27  28
ENDBRANCH   1  27
TORSDOF 10
ENDMDL
MODEL 5
REMARK VINA RESULT:      -8.4      1.974      2.798
REMARK  10 active torsions:
REMARK  status: ('A' for Active; 'I' for Inactive)
REMARK    1  A    between atoms: C_6  and  C_7 
REMARK    2  A    between atoms: C_7  and  N_8 
REMARK    3  A    between atoms: N_8  and  C_10 
REMARK    4  A    between atoms: N_8  and  C_20 
REMARK    5  A    between atoms: C_10  and  C_11 
REMARK    6  A    between atoms: N_12  and  C_13 
REMARK    7  A    between atoms: C_20  and  C_21 
REMARK    8  A    between atoms: C_21  and  C_22 
REMARK    9  A    between atoms: C_22  and  N_23 
REMARK   10  A    between atoms: C_30  and  O_31 
ROOT
HETATM    1  N   UNL     1     -43.051  56.123 -53.453  1.00  0.00    -0.060 N 
HETATM    2  H   UNL     1     -43.357  55.243 -53.013  1.00  0.00     0.280 HD
ENDROOT
BRANCH   1   3
HETATM    3  C   UNL     1     -41.540  55.923 -53.650  1.00  0.00     0.278 C 
BRANCH   3   4
HETATM    4  C   UNL     1     -41.000  54.534 -53.545  1.00  0.00     0.021 A 
HETATM    5  C   UNL     1     -40.800  53.916 -52.308  1.00  0.00     0.027 A 
HETATM    6  C   UNL     1     -40.344  52.589 -52.239  1.00  0.00    -0.006 A 
HETATM    7  C   UNL     1     -40.090  51.897 -53.446  1.00  0.00     0.075 A 
HETATM    8  C   UNL     1     -40.161  51.954 -51.000  1.00  0.00     0.014 A 
HETATM    9  C   UNL     1     -39.644  50.571 -53.372  1.00  0.00    -0.032 A 
HETATM   10  N   UNL     1     -40.281  52.500 -54.638  1.00  0.00    -0.223 NA
HETATM   11  C   UNL     1     -39.404  49.754 -54.615  1.00  0.00     0.050 C 
HETATM   12  C   UNL     1     -39.476  49.944 -52.125  1.00  0.00     0.009 A 
HETATM   13  C   UNL     1     -39.729  50.634 -50.946  1.00  0.00     0.002 A 
HETATM   14  C   UNL     1     -40.729  53.757 -54.651  1.00  0.00     0.170 A 
BRANCH  14  15
HETATM   15  O   UNL     1     -40.909  54.222 -55.910  1.00  0.00    -0.344 OA
HETATM   16  H   UNL     1     -40.935  55.183 -55.703  1.00  0.00     0.219 HD
ENDBRANCH  14  15
ENDBRANCH   3   4
ENDBRANCH   1   3
BRANCH   1  17
HETATM   17  C   UNL     1     -43.360  57.154 -52.334  1.00  0.00     0.316 C 
BRANCH  17  18
HETATM   18  C   UNL     1     -42.403  57.006 -51.215  1.00  0.00     0.163 A 
HETATM   19  N   UNL     1     -41.359  57.824 -50.845  1.00  0.00    -0.253 N 
HETATM   20  N   UNL     1     -40.730  57.237 -49.805  1.00  0.00    -0.002 NA
HETATM   21  N   UNL     1     -41.419  56.149 -49.510  1.00  0.00     0.018 NA
HETATM   22  N   UNL     1     -42.468  55.998 -50.362  1.00  0.00    -0.145 NA
BRANCH  19  23
HETATM   23  C   UNL     1     -40.843  59.113 -51.332  1.00  0.00     0.042 C 
HETATM   24  C   UNL     1     -40.406  59.096 -52.809  1.00  0.00     0.039 C 
HETATM   25  C   UNL     1     -41.945  60.191 -51.202  1.00  0.00     0.039 C 
HETATM   26  C   UNL     1     -39.628  59.528 -50.480  1.00  0.00     0.039 C 
ENDBRANCH  19  23
ENDBRANCH  17  18
ENDBRANCH   1  17
BRANCH   1  27
HETATM   27  C   UNL     1     -43.862  56.391 -54.695  1.00  0.00     0.237 C 
BRANCH  27  28
HETATM   28  C   UNL     1     -43.059  56.920 -55.898  1.00  0.00     0.055 C 
BRANCH  28  29
HETATM   29  C   UNL     1     -43.869  57.738 -56.906  1.00  0.00     0.236 C 
BRANCH  29  30
HETATM   30  N   UNL     1     -44.342  56.865 -58.053  1.00  0.00    -0.067 N 
HETATM   31  H   UNL     1     -45.175  56.331 -57.764  1.00  0.00     0.280 HD
HETATM   32  C   UNL     1     -44.786  57.709 -59.264  1.00  0.00     0.261 C 
HETATM   33  C   UNL     1     -45.281  56.787 -60.384  1.00  0.00     0.195 C 
HETATM   34  O   UNL     1     -44.258  55.867 -60.768  1.00  0.00    -0.388 OA
HETATM   35  C   UNL     1     -43.871  55.014 -59.688  1.00  0.00     0.195 C 
HETATM   36  C   UNL     1     -43.299  55.837 -58.527  1.00  0.00     0.261 C 
ENDBRANCH  29  30
ENDBRANCH  28  29
ENDBRANCH  27  28
ENDBRANCH   1  27
TORSDOF 10
ENDMDL
MODEL 6
REMARK VINA RESULT:      -8.3      2.320      3.328
REMARK  10 active torsions:
REMARK  status: ('A' for Active; 'I' for Inactive)
REMARK    1  A    between atoms: C_6  and  C_7 
REMARK    2  A    between atoms: C_7  and  N_8 
REMARK    3  A    between atoms: N_8  and  C_10 
REMARK    4  A    between atoms: N_8  and  C_20 
REMARK    5  A    between atoms: C_10  and  C_11 
REMARK    6  A    between atoms: N_12  and  C_13 
REMARK    7  A    between atoms: C_20  and  C_21 
REMARK    8  A    between atoms: C_21  and  C_22 
REMARK    9  A    between atoms: C_22  and  N_23 
REMARK   10  A    between atoms: C_30  and  O_31 
ROOT
HETATM    1  N   UNL     1     -42.526  57.824 -54.512  1.00  0.00    -0.060 N 
HETATM    2  H   UNL     1     -42.611  57.637 -53.502  1.00  0.00     0.280 HD
ENDROOT
BRANCH   1   3
HETATM    3  C   UNL     1     -41.720  56.625 -55.036  1.00  0.00     0.278 C 
BRANCH   3   4
HETATM    4  C   UNL     1     -41.259  55.606 -54.045  1.00  0.00     0.021 A 
HETATM    5  C   UNL     1     -41.531  55.734 -52.681  1.00  0.00     0.027 A 
HETATM    6  C   UNL     1     -41.135  54.732 -51.778  1.00  0.00    -0.006 A 
HETATM    7  C   UNL     1     -40.453  53.599 -52.280  1.00  0.00     0.075 A 
HETATM    8  C   UNL     1     -41.423  54.843 -50.408  1.00  0.00     0.014 A 
HETATM    9  C   UNL     1     -40.069  52.601 -51.377  1.00  0.00    -0.032 A 
HETATM   10  N   UNL     1     -40.189  53.484 -53.598  1.00  0.00    -0.223 NA
HETATM   11  C   UNL     1     -39.387  51.341 -51.845  1.00  0.00     0.050 C 
HETATM   12  C   UNL     1     -40.374  52.719 -50.010  1.00  0.00     0.009 A 
HETATM   13  C   UNL     1     -41.044  53.836 -49.528  1.00  0.00     0.002 A 
HETATM   14  C   UNL     1     -40.600  54.454 -54.417  1.00  0.00     0.170 A 
BRANCH  14  15
HETATM   15  O   UNL     1     -40.300  54.191 -55.712  1.00  0.00    -0.344 OA
HETATM   16  H   UNL     1     -40.784  53.339 -55.799  1.00  0.00     0.219 HD
ENDBRANCH  14  15
ENDBRANCH   3   4
ENDBRANCH   1   3
BRANCH   1  17
HETATM   17  C   UNL     1     -41.691  59.132 -54.517  1.00  0.00     0.316 C 
BRANCH  17  18
HETATM   18  C   UNL     1     -41.004  59.312 -53.219  1.00  0.00     0.163 A 
HETATM   19  N   UNL     1     -41.514  59.740 -52.013  1.00  0.00    -0.253 N 
HETATM   20  N   UNL     1     -40.487  59.810 -51.139  1.00  0.00    -0.002 NA
HETATM   21  N   UNL     1     -39.418  59.364 -51.772  1.00  0.00     0.018 NA
HETATM   22  N   UNL     1     -39.721  59.036 -53.057  1.00  0.00    -0.145 NA
BRANCH  19  23
HETATM   23  C   UNL     1     -42.857  60.105 -51.538  1.00  0.00     0.042 C 
HETATM   24  C   UNL     1     -43.645  61.000 -52.513  1.00  0.00     0.039 C 
HETATM   25  C   UNL     1     -43.695  58.821 -51.330  1.00  0.00     0.039 C 
HETATM   26  C   UNL     1     -42.736  60.853 -50.197  1.00  0.00     0.039 C 
ENDBRANCH  19  23
ENDBRANCH  17  18
ENDBRANCH   1  17
BRANCH   1  27
HETATM   27  C   UNL     1     -43.891  58.033 -55.117  1.00  0.00     0.237 C 
BRANCH  27  28
HETATM   28  C   UNL     1     -43.893  58.641 -56.531  1.00  0.00     0.055 C 
BRANCH  28  29
HETATM   29  C   UNL     1     -45.055  58.199 -57.422  1.00  0.00     0.236 C 
BRANCH  29  30
HETATM   30  N   UNL     1     -44.650  57.025 -58.293  1.00  0.00    -0.067 N 
HETATM   31  H   UNL     1     -44.730  56.149 -57.756  1.00  0.00     0.280 HD
HETATM   32  C   UNL     1     -45.593  56.860 -59.502  1.00  0.00     0.261 C 
HETATM   33  C   UNL     1     -45.163  55.647 -60.334  1.00  0.00     0.195 C 
HETATM   34  O   UNL     1     -43.811  55.794 -60.774  1.00  0.00    -0.388 OA
HETATM   35  C   UNL     1     -42.896  55.874 -59.680  1.00  0.00     0.195 C 
HETATM   36  C   UNL     1     -43.201  57.099 -58.808  1.00  0.00     0.261 C 
ENDBRANCH  29  30
ENDBRANCH  28  29
ENDBRANCH  27  28
ENDBRANCH   1  27
TORSDOF 10
ENDMDL
MODEL 7
REMARK VINA RESULT:      -8.2      1.839      2.498
REMARK  10 active torsions:
REMARK  status: ('A' for Active; 'I' for Inactive)
REMARK    1  A    between atoms: C_6  and  C_7 
REMARK    2  A    between atoms: C_7  and  N_8 
REMARK    3  A    between atoms: N_8  and  C_10 
REMARK    4  A    between atoms: N_8  and  C_20 
REMARK    5  A    between atoms: C_10  and  C_11 
REMARK    6  A    between atoms: N_12  and  C_13 
REMARK    7  A    between atoms: C_20  and  C_21 
REMARK    8  A    between atoms: C_21  and  C_22 
REMARK    9  A    between atoms: C_22  and  N_23 
REMARK   10  A    between atoms: C_30  and  O_31 
ROOT
HETATM    1  N   UNL     1     -41.772  56.760 -53.846  1.00  0.00    -0.060 N 
HETATM    2  H   UNL     1     -41.639  56.686 -52.827  1.00  0.00     0.280 HD
ENDROOT
BRANCH   1   3
HETATM    3  C   UNL     1     -40.725  55.793 -54.420  1.00  0.00     0.278 C 
BRANCH   3   4
HETATM    4  C   UNL     1     -40.569  54.461 -53.763  1.00  0.00     0.021 A 
HETATM    5  C   UNL     1     -40.253  53.314 -54.495  1.00  0.00     0.027 A 
HETATM    6  C   UNL     1     -40.056  52.084 -53.844  1.00  0.00    -0.006 A 
HETATM    7  C   UNL     1     -40.189  52.034 -52.437  1.00  0.00     0.075 A 
HETATM    8  C   UNL     1     -39.717  50.932 -54.571  1.00  0.00     0.014 A 
HETATM    9  C   UNL     1     -39.982  50.808 -51.793  1.00  0.00    -0.032 A 
HETATM   10  N   UNL     1     -40.499  53.144 -51.735  1.00  0.00    -0.223 NA
HETATM   11  C   UNL     1     -40.054  50.689 -50.292  1.00  0.00     0.050 C 
HETATM   12  C   UNL     1     -39.632  49.664 -52.531  1.00  0.00     0.009 A 
HETATM   13  C   UNL     1     -39.504  49.726 -53.913  1.00  0.00     0.002 A 
HETATM   14  C   UNL     1     -40.661  54.291 -52.397  1.00  0.00     0.170 A 
BRANCH  14  15
HETATM   15  O   UNL     1     -40.932  55.327 -51.568  1.00  0.00    -0.344 OA
HETATM   16  H   UNL     1     -40.278  55.969 -51.924  1.00  0.00     0.219 HD
ENDBRANCH  14  15
ENDBRANCH   3   4
ENDBRANCH   1   3
BRANCH   1  17
HETATM   17  C   UNL     1     -41.396  58.244 -54.102  1.00  0.00     0.316 C 
BRANCH  17  18
HETATM   18  C   UNL     1     -40.783  58.839 -52.894  1.00  0.00     0.163 A 
HETATM   19  N   UNL     1     -41.387  59.484 -51.836  1.00  0.00    -0.253 N 
HETATM   20  N   UNL     1     -40.409  59.912 -51.010  1.00  0.00    -0.002 NA
HETATM   21  N   UNL     1     -39.269  59.470 -51.509  1.00  0.00     0.018 NA
HETATM   22  N   UNL     1     -39.482  58.789 -52.667  1.00  0.00    -0.145 NA
BRANCH  19  23
HETATM   23  C   UNL     1     -42.782  59.771 -51.470  1.00  0.00     0.042 C 
HETATM   24  C   UNL     1     -42.932  60.681 -50.237  1.00  0.00     0.039 C 
HETATM   25  C   UNL     1     -43.485  60.488 -52.647  1.00  0.00     0.039 C 
HETATM   26  C   UNL     1     -43.512  58.446 -51.177  1.00  0.00     0.039 C 
ENDBRANCH  19  23
ENDBRANCH  17  18
ENDBRANCH   1  17
BRANCH   1  27
HETATM   27  C   UNL     1     -43.211  56.482 -54.202  1.00  0.00     0.237 C 
BRANCH  27  28
HETATM   28  C   UNL     1     -43.478  56.234 -55.698  1.00  0.00     0.055 C 
BRANCH  28  29
HETATM   29  C   UNL     1     -43.997  57.448 -56.471  1.00  0.00     0.236 C 
BRANCH  29  30
HETATM   30  N   UNL     1     -43.533  57.407 -57.914  1.00  0.00    -0.067 N 
HETATM   31  H   UNL     1     -42.678  57.971 -58.022  1.00  0.00     0.280 HD
HETATM   32  C   UNL     1     -43.147  55.978 -58.348  1.00  0.00     0.261 C 
HETATM   33  C   UNL     1     -42.658  55.991 -59.800  1.00  0.00     0.195 C 
HETATM   34  O   UNL     1     -43.667  56.518 -60.665  1.00  0.00    -0.388 OA
HETATM   35  C   UNL     1     -43.999  57.869 -60.342  1.00  0.00     0.195 C 
HETATM   36  C   UNL     1     -44.560  57.963 -58.917  1.00  0.00     0.261 C 
ENDBRANCH  29  30
ENDBRANCH  28  29
ENDBRANCH  27  28
ENDBRANCH   1  27
TORSDOF 10
ENDMDL
MODEL 8
REMARK VINA RESULT:      -8.0      2.133      2.935
REMARK  10 active torsions:
REMARK  status: ('A' for Active; 'I' for Inactive)
REMARK    1  A    between atoms: C_6  and  C_7 
REMARK    2  A    between atoms: C_7  and  N_8 
REMARK    3  A    between atoms: N_8  and  C_10 
REMARK    4  A    between atoms: N_8  and  C_20 
REMARK    5  A    between atoms: C_10  and  C_11 
REMARK    6  A    between atoms: N_12  and  C_13 
REMARK    7  A    between atoms: C_20  and  C_21 
REMARK    8  A    between atoms: C_21  and  C_22 
REMARK    9  A    between atoms: C_22  and  N_23 
REMARK   10  A    between atoms: C_30  and  O_31 
ROOT
HETATM    1  N   UNL     1     -42.941  57.894 -54.474  1.00  0.00    -0.060 N 
HETATM    2  H   UNL     1     -42.871  57.691 -53.466  1.00  0.00     0.280 HD
ENDROOT
BRANCH   1   3
HETATM    3  C   UNL     1     -42.439  56.603 -55.139  1.00  0.00     0.278 C 
BRANCH   3   4
HETATM    4  C   UNL     1     -41.891  55.529 -54.257  1.00  0.00     0.021 A 
HETATM    5  C   UNL     1     -41.253  54.403 -54.783  1.00  0.00     0.027 A 
HETATM    6  C   UNL     1     -40.697  53.435 -53.929  1.00  0.00    -0.006 A 
HETATM    7  C   UNL     1     -40.801  53.626 -52.531  1.00  0.00     0.075 A 
HETATM    8  C   UNL     1     -40.036  52.311 -54.449  1.00  0.00     0.014 A 
HETATM    9  C   UNL     1     -40.236  52.662 -51.685  1.00  0.00    -0.032 A 
HETATM   10  N   UNL     1     -41.421  54.713 -52.030  1.00  0.00    -0.223 NA
HETATM   11  C   UNL     1     -40.261  52.824 -50.187  1.00  0.00     0.050 C 
HETATM   12  C   UNL     1     -39.567  51.548 -52.219  1.00  0.00     0.009 A 
HETATM   13  C   UNL     1     -39.471  51.371 -53.594  1.00  0.00     0.002 A 
HETATM   14  C   UNL     1     -41.920  55.611 -52.881  1.00  0.00     0.170 A 
BRANCH  14  15
HETATM   15  O   UNL     1     -42.481  56.665 -52.243  1.00  0.00    -0.344 OA
HETATM   16  H   UNL     1     -41.659  57.064 -51.878  1.00  0.00     0.219 HD
ENDBRANCH  14  15
ENDBRANCH   3   4
ENDBRANCH   1   3
BRANCH   1  17
HETATM   17  C   UNL     1     -41.928  59.060 -54.628  1.00  0.00     0.316 C 
BRANCH  17  18
HETATM   18  C   UNL     1     -41.203  59.286 -53.358  1.00  0.00     0.163 A 
HETATM   19  N   UNL     1     -41.616  59.947 -52.222  1.00  0.00    -0.253 N 
HETATM   20  N   UNL     1     -40.581  59.953 -51.355  1.00  0.00    -0.002 NA
HETATM   21  N   UNL     1     -39.611  59.253 -51.916  1.00  0.00     0.018 NA
HETATM   22  N   UNL     1     -39.984  58.818 -53.150  1.00  0.00    -0.145 NA
BRANCH  19  23
HETATM   23  C   UNL     1     -42.871  60.594 -51.811  1.00  0.00     0.042 C 
HETATM   24  C   UNL     1     -44.014  59.607 -51.506  1.00  0.00     0.039 C 
HETATM   25  C   UNL     1     -42.629  61.413 -50.521  1.00  0.00     0.039 C 
HETATM   26  C   UNL     1     -43.345  61.541 -52.930  1.00  0.00     0.039 C 
ENDBRANCH  19  23
ENDBRANCH  17  18
ENDBRANCH   1  17
BRANCH   1  27
HETATM   27  C   UNL     1     -44.343  58.327 -54.818  1.00  0.00     0.237 C 
BRANCH  27  28
HETATM   28  C   UNL     1     -44.849  57.868 -56.198  1.00  0.00     0.055 C 
BRANCH  28  29
HETATM   29  C   UNL     1     -44.408  58.744 -57.371  1.00  0.00     0.236 C 
BRANCH  29  30
HETATM   30  N   UNL     1     -43.375  58.029 -58.220  1.00  0.00    -0.067 N 
HETATM   31  H   UNL     1     -42.511  57.892 -57.676  1.00  0.00     0.280 HD
HETATM   32  C   UNL     1     -43.845  56.616 -58.620  1.00  0.00     0.261 C 
HETATM   33  C   UNL     1     -42.759  55.923 -59.450  1.00  0.00     0.195 C 
HETATM   34  O   UNL     1     -42.450  56.691 -60.614  1.00  0.00    -0.388 OA
HETATM   35  C   UNL     1     -41.939  57.984 -60.284  1.00  0.00     0.195 C 
HETATM   36  C   UNL     1     -42.978  58.792 -59.497  1.00  0.00     0.261 C 
ENDBRANCH  29  30
ENDBRANCH  28  29
ENDBRANCH  27  28
ENDBRANCH   1  27
TORSDOF 10
ENDMDL
MODEL 9
REMARK VINA RESULT:      -7.9      2.742      6.463
REMARK  10 active torsions:
REMARK  status: ('A' for Active; 'I' for Inactive)
REMARK    1  A    between atoms: C_6  and  C_7 
REMARK    2  A    between atoms: C_7  and  N_8 
REMARK    3  A    between atoms: N_8  and  C_10 
REMARK    4  A    between atoms: N_8  and  C_20 
REMARK    5  A    between atoms: C_10  and  C_11 
REMARK    6  A    between atoms: N_12  and  C_13 
REMARK    7  A    between atoms: C_20  and  C_21 
REMARK    8  A    between atoms: C_21  and  C_22 
REMARK    9  A    between atoms: C_22  and  N_23 
REMARK   10  A    between atoms: C_30  and  O_31 
ROOT
HETATM    1  N   UNL     1     -43.055  56.777 -56.277  1.00  0.00    -0.060 N 
HETATM    2  H   UNL     1     -42.558  56.125 -56.901  1.00  0.00     0.280 HD
ENDROOT
BRANCH   1   3
HETATM    3  C   UNL     1     -43.717  55.854 -55.242  1.00  0.00     0.278 C 
BRANCH   3   4
HETATM    4  C   UNL     1     -42.828  55.092 -54.316  1.00  0.00     0.021 A 
HETATM    5  C   UNL     1     -42.177  53.924 -54.719  1.00  0.00     0.027 A 
HETATM    6  C   UNL     1     -41.301  53.257 -53.846  1.00  0.00    -0.006 A 
HETATM    7  C   UNL     1     -41.097  53.792 -52.552  1.00  0.00     0.075 A 
HETATM    8  C   UNL     1     -40.626  52.094 -54.251  1.00  0.00     0.014 A 
HETATM    9  C   UNL     1     -40.216  53.128 -51.690  1.00  0.00    -0.032 A 
HETATM   10  N   UNL     1     -41.732  54.918 -52.166  1.00  0.00    -0.223 NA
HETATM   11  C   UNL     1     -39.909  53.668 -50.317  1.00  0.00     0.050 C 
HETATM   12  C   UNL     1     -39.539  51.972 -52.112  1.00  0.00     0.009 A 
HETATM   13  C   UNL     1     -39.747  51.455 -53.385  1.00  0.00     0.002 A 
HETATM   14  C   UNL     1     -42.542  55.523 -53.038  1.00  0.00     0.170 A 
BRANCH  14  15
HETATM   15  O   UNL     1     -43.082  56.657 -52.531  1.00  0.00    -0.344 OA
HETATM   16  H   UNL     1     -43.009  57.220 -53.335  1.00  0.00     0.219 HD
ENDBRANCH  14  15
ENDBRANCH   3   4
ENDBRANCH   1   3
BRANCH   1  17
HETATM   17  C   UNL     1     -44.094  57.403 -57.247  1.00  0.00     0.316 C 
BRANCH  17  18
HETATM   18  C   UNL     1     -43.936  56.843 -58.607  1.00  0.00     0.163 A 
HETATM   19  N   UNL     1     -44.823  56.845 -59.661  1.00  0.00    -0.253 N 
HETATM   20  N   UNL     1     -44.256  56.153 -60.671  1.00  0.00    -0.002 NA
HETATM   21  N   UNL     1     -43.044  55.818 -60.269  1.00  0.00     0.018 NA
HETATM   22  N   UNL     1     -42.821  56.251 -58.999  1.00  0.00    -0.145 NA
BRANCH  19  23
HETATM   23  C   UNL     1     -46.163  57.414 -59.873  1.00  0.00     0.042 C 
HETATM   24  C   UNL     1     -46.154  58.817 -60.510  1.00  0.00     0.039 C 
HETATM   25  C   UNL     1     -46.968  56.495 -60.823  1.00  0.00     0.039 C 
HETATM   26  C   UNL     1     -46.894  57.509 -58.520  1.00  0.00     0.039 C 
ENDBRANCH  19  23
ENDBRANCH  17  18
ENDBRANCH   1  17
BRANCH   1  27
HETATM   27  C   UNL     1     -42.099  57.813 -55.742  1.00  0.00     0.237 C 
BRANCH  27  28
HETATM   28  C   UNL     1     -42.763  59.057 -55.123  1.00  0.00     0.055 C 
BRANCH  28  29
HETATM   29  C   UNL     1     -41.833  59.933 -54.282  1.00  0.00     0.236 C 
BRANCH  29  30
HETATM   30  N   UNL     1     -41.821  59.474 -52.836  1.00  0.00    -0.067 N 
HETATM   31  H   UNL     1     -42.452  58.668 -52.722  1.00  0.00     0.280 HD
HETATM   32  C   UNL     1     -40.425  58.976 -52.409  1.00  0.00     0.261 C 
HETATM   33  C   UNL     1     -40.469  58.497 -50.954  1.00  0.00     0.195 C 
HETATM   34  O   UNL     1     -40.907  59.549 -50.092  1.00  0.00    -0.388 OA
HETATM   35  C   UNL     1     -42.230  59.988 -50.409  1.00  0.00     0.195 C 
HETATM   36  C   UNL     1     -42.286  60.548 -51.836  1.00  0.00     0.261 C 
ENDBRANCH  29  30
ENDBRANCH  28  29
ENDBRANCH  27  28
ENDBRANCH   1  27
TORSDOF 10
ENDMDL
MODEL 10
REMARK VINA RESULT:      -7.8      2.122      3.176
REMARK  10 active torsions:
REMARK  status: ('A' for Active; 'I' for Inactive)
REMARK    1  A    between atoms: C_6  and  C_7 
REMARK    2  A    between atoms: C_7  and  N_8 
REMARK    3  A    between atoms: N_8  and  C_10 
REMARK    4  A    between atoms: N_8  and  C_20 
REMARK    5  A    between atoms: C_10  and  C_11 
REMARK    6  A    between atoms: N_12  and  C_13 
REMARK    7  A    between atoms: C_20  and  C_21 
REMARK    8  A    between atoms: C_21  and  C_22 
REMARK    9  A    between atoms: C_22  and  N_23 
REMARK   10  A    between atoms: C_30  and  O_31 
ROOT
HETATM    1  N   UNL     1     -42.990  56.158 -53.613  1.00  0.00    -0.060 N 
HETATM    2  H   UNL     1     -43.314  55.296 -53.152  1.00  0.00     0.280 HD
ENDROOT
BRANCH   1   3
HETATM    3  C   UNL     1     -41.473  55.952 -53.743  1.00  0.00     0.278 C 
BRANCH   3   4
HETATM    4  C   UNL     1     -40.934  54.576 -53.524  1.00  0.00     0.021 A 
HETATM    5  C   UNL     1     -40.870  54.007 -52.250  1.00  0.00     0.027 A 
HETATM    6  C   UNL     1     -40.412  52.689 -52.080  1.00  0.00    -0.006 A 
HETATM    7  C   UNL     1     -40.014  51.957 -53.223  1.00  0.00     0.075 A 
HETATM    8  C   UNL     1     -40.365  52.103 -50.805  1.00  0.00     0.014 A 
HETATM    9  C   UNL     1     -39.567  50.642 -53.047  1.00  0.00    -0.032 A 
HETATM   10  N   UNL     1     -40.073  52.514 -54.450  1.00  0.00    -0.223 NA
HETATM   11  C   UNL     1     -39.177  49.784 -54.223  1.00  0.00     0.050 C 
HETATM   12  C   UNL     1     -39.535  50.063 -51.767  1.00  0.00     0.009 A 
HETATM   13  C   UNL     1     -39.929  50.792 -50.651  1.00  0.00     0.002 A 
HETATM   14  C   UNL     1     -40.531  53.762 -54.562  1.00  0.00     0.170 A 
BRANCH  14  15
HETATM   15  O   UNL     1     -40.570  54.179 -55.850  1.00  0.00    -0.344 OA
HETATM   16  H   UNL     1     -40.935  55.079 -55.697  1.00  0.00     0.219 HD
ENDBRANCH  14  15
ENDBRANCH   3   4
ENDBRANCH   1   3
BRANCH   1  17
HETATM   17  C   UNL     1     -43.341  57.232 -52.547  1.00  0.00     0.316 C 
BRANCH  17  18
HETATM   18  C   UNL     1     -42.645  58.503 -52.845  1.00  0.00     0.163 A 
HETATM   19  N   UNL     1     -41.639  59.133 -52.144  1.00  0.00    -0.253 N 
HETATM   20  N   UNL     1     -41.379  60.301 -52.768  1.00  0.00    -0.002 NA
HETATM   21  N   UNL     1     -42.141  60.334 -53.846  1.00  0.00     0.018 NA
HETATM   22  N   UNL     1     -42.920  59.222 -53.919  1.00  0.00    -0.145 NA
BRANCH  19  23
HETATM   23  C   UNL     1     -40.860  58.797 -50.942  1.00  0.00     0.042 C 
HETATM   24  C   UNL     1     -40.915  57.307 -50.556  1.00  0.00     0.039 C 
HETATM   25  C   UNL     1     -39.372  59.145 -51.181  1.00  0.00     0.039 C 
HETATM   26  C   UNL     1     -41.387  59.619 -49.751  1.00  0.00     0.039 C 
ENDBRANCH  19  23
ENDBRANCH  17  18
ENDBRANCH   1  17
BRANCH   1  27
HETATM   27  C   UNL     1     -43.752  56.378 -54.895  1.00  0.00     0.237 C 
BRANCH  27  28
HETATM   28  C   UNL     1     -42.884  56.476 -56.163  1.00  0.00     0.055 C 
BRANCH  28  29
HETATM   29  C   UNL     1     -43.266  57.605 -57.121  1.00  0.00     0.236 C 
BRANCH  29  30
HETATM   30  N   UNL     1     -43.774  57.048 -58.437  1.00  0.00    -0.067 N 
HETATM   31  H   UNL     1     -43.221  57.433 -59.215  1.00  0.00     0.280 HD
HETATM   32  C   UNL     1     -43.595  55.518 -58.514  1.00  0.00     0.261 C 
HETATM   33  C   UNL     1     -44.096  55.006 -59.869  1.00  0.00     0.195 C 
HETATM   34  O   UNL     1     -45.467  55.357 -60.064  1.00  0.00    -0.388 OA
HETATM   35  C   UNL     1     -45.663  56.772 -60.074  1.00  0.00     0.195 C 
HETATM   36  C   UNL     1     -45.248  57.385 -58.731  1.00  0.00     0.261 C 
ENDBRANCH  29  30
ENDBRANCH  28  29
ENDBRANCH  27  28
ENDBRANCH   1  27
TORSDOF 10
ENDMDL
