MODEL 1
REMARK VINA RESULT:      -8.2      0.000      0.000
REMARK  6 active torsions:
REMARK  status: ('A' for Active; 'I' for Inactive)
REMARK    1  A    between atoms: C_2  and  O_3 
REMARK    2  A    between atoms: C_2  and  C_4 
REMARK    3  A    between atoms: C_7  and  N_8 
REMARK       I    between atoms: N_8  and  C_9 
REMARK    4  A    between atoms: C_9  and  C_10 
REMARK    5  A    between atoms: C_15  and  C_16 
REMARK    6  A    between atoms: C_22  and  C_23 
ROOT
HETATM    1  C   UNL     1     -42.475  58.192 -52.331  1.00  0.00     0.148 A 
HETATM    2  N   UNL     1     -43.756  58.388 -52.728  1.00  0.00    -0.165 NA
HETATM    3  N   UNL     1     -44.173  59.388 -51.930  1.00  0.00    -0.240 N 
HETATM    4  C   UNL     1     -43.261  59.769 -50.988  1.00  0.00     0.123 A 
HETATM    5  N   UNL     1     -43.587  60.646 -50.020  1.00  0.00    -0.364 N 
HETATM    6  C   UNL     1     -44.982  60.961 -49.678  1.00  0.00     0.143 C 
HETATM    7  C   UNL     1     -45.977  60.089 -50.478  1.00  0.00     0.068 C 
HETATM    8  C   UNL     1     -45.539  59.872 -51.932  1.00  0.00     0.221 C 
HETATM    9  C   UNL     1     -42.116  59.078 -51.275  1.00  0.00     0.089 A 
HETATM   10  H   UNL     1     -42.903  60.936 -49.321  1.00  0.00     0.162 HD
ENDROOT
BRANCH   1  11
HETATM   11  C   UNL     1     -41.630  57.123 -52.895  1.00  0.00     0.276 C 
HETATM   12  N   UNL     1     -42.149  55.868 -52.641  1.00  0.00    -0.322 N 
HETATM   13  H   UNL     1     -43.058  55.891 -52.184  1.00  0.00     0.169 HD
HETATM   14  O   UNL     1     -40.584  57.380 -53.479  1.00  0.00    -0.266 OA
BRANCH  12  15
HETATM   15  C   UNL     1     -41.544  54.619 -52.853  1.00  0.00     0.035 A 
HETATM   16  C   UNL     1     -41.519  53.969 -54.088  1.00  0.00     0.030 A 
HETATM   17  C   UNL     1     -40.841  52.755 -54.240  1.00  0.00     0.012 A 
HETATM   18  C   UNL     1     -40.175  52.164 -53.158  1.00  0.00    -0.030 A 
HETATM   19  C   UNL     1     -40.230  52.803 -51.912  1.00  0.00     0.012 A 
HETATM   20  C   UNL     1     -40.901  54.022 -51.765  1.00  0.00     0.030 A 
BRANCH  18  21
HETATM   21  C   UNL     1     -39.438  50.857 -53.344  1.00  0.00     0.147 C 
HETATM   22  C   UNL     1     -39.993  50.042 -54.502  1.00  0.00     0.044 C 
BRANCH  21  23
HETATM   23  O   UNL     1     -39.506  50.073 -52.153  1.00  0.00    -0.391 OA
HETATM   24  H   UNL     1     -38.927  49.303 -52.290  1.00  0.00     0.210 HD
ENDBRANCH  21  23
ENDBRANCH  18  21
ENDBRANCH  12  15
ENDBRANCH   1  11
BRANCH   8  25
HETATM   25  C   UNL     1     -45.651  61.121 -52.775  1.00  0.00     0.409 C 
HETATM   26  F   UNL     1     -44.469  61.766 -52.893  1.00  0.00    -0.169 F 
HETATM   27  F   UNL     1     -46.034  60.786 -54.036  1.00  0.00    -0.169 F 
HETATM   28  F   UNL     1     -46.561  62.006 -52.319  1.00  0.00    -0.169 F 
ENDBRANCH   8  25
BRANCH   6  29
HETATM   29  C   UNL     1     -45.261  60.796 -48.213  1.00  0.00     0.075 A 
HETATM   30  O   UNL     1     -46.175  59.846 -47.861  1.00  0.00    -0.325 OA
HETATM   31  C   UNL     1     -46.260  59.863 -46.505  1.00  0.00     0.142 A 
HETATM   32  C   UNL     1     -45.408  60.806 -45.978  1.00  0.00     0.027 A 
HETATM   33  C   UNL     1     -44.760  61.410 -47.081  1.00  0.00     0.037 A 
ENDBRANCH   6  29
TORSDOF 6
ENDMDL
MODEL 2
REMARK VINA RESULT:      -8.2      6.015      9.225
REMARK  6 active torsions:
REMARK  status: ('A' for Active; 'I' for Inactive)
REMARK    1  A    between atoms: C_2  and  O_3 
REMARK    2  A    between atoms: C_2  and  C_4 
REMARK    3  A    between atoms: C_7  and  N_8 
REMARK       I    between atoms: N_8  and  C_9 
REMARK    4  A    between atoms: C_9  and  C_10 
REMARK    5  A    between atoms: C_15  and  C_16 
REMARK    6  A    between atoms: C_22  and  C_23 
ROOT
HETATM    1  C   UNL     1     -43.418  57.031 -56.677  1.00  0.00     0.148 A 
HETATM    2  N   UNL     1     -44.188  56.792 -55.587  1.00  0.00    -0.165 NA
HETATM    3  N   UNL     1     -43.300  56.346 -54.679  1.00  0.00    -0.240 N 
HETATM    4  C   UNL     1     -42.032  56.198 -55.162  1.00  0.00     0.123 A 
HETATM    5  N   UNL     1     -41.070  55.615 -54.422  1.00  0.00    -0.364 N 
HETATM    6  C   UNL     1     -41.373  54.787 -53.246  1.00  0.00     0.143 C 
HETATM    7  C   UNL     1     -42.896  54.594 -53.059  1.00  0.00     0.068 C 
HETATM    8  C   UNL     1     -43.696  55.866 -53.370  1.00  0.00     0.221 C 
HETATM    9  C   UNL     1     -42.051  56.717 -56.427  1.00  0.00     0.089 A 
HETATM   10  H   UNL     1     -40.122  55.512 -54.782  1.00  0.00     0.162 HD
ENDROOT
BRANCH   1  11
HETATM   11  C   UNL     1     -43.989  57.476 -57.961  1.00  0.00     0.276 C 
HETATM   12  N   UNL     1     -45.340  57.205 -58.046  1.00  0.00    -0.322 N 
HETATM   13  H   UNL     1     -45.731  56.822 -57.189  1.00  0.00     0.169 HD
HETATM   14  O   UNL     1     -43.287  57.989 -58.826  1.00  0.00    -0.266 OA
BRANCH  12  15
HETATM   15  C   UNL     1     -46.178  57.310 -59.169  1.00  0.00     0.035 A 
HETATM   16  C   UNL     1     -46.804  58.494 -59.560  1.00  0.00     0.030 A 
HETATM   17  C   UNL     1     -47.574  58.540 -60.728  1.00  0.00     0.012 A 
HETATM   18  C   UNL     1     -47.736  57.400 -61.526  1.00  0.00    -0.030 A 
HETATM   19  C   UNL     1     -47.132  56.205 -61.112  1.00  0.00     0.012 A 
HETATM   20  C   UNL     1     -46.355  56.164 -59.949  1.00  0.00     0.030 A 
BRANCH  18  21
HETATM   21  C   UNL     1     -48.563  57.471 -62.791  1.00  0.00     0.147 C 
HETATM   22  C   UNL     1     -49.868  58.224 -62.584  1.00  0.00     0.044 C 
BRANCH  21  23
HETATM   23  O   UNL     1     -48.857  56.158 -63.268  1.00  0.00    -0.391 OA
HETATM   24  H   UNL     1     -48.008  55.685 -63.329  1.00  0.00     0.210 HD
ENDBRANCH  21  23
ENDBRANCH  18  21
ENDBRANCH  12  15
ENDBRANCH   1  11
BRANCH   8  25
HETATM   25  C   UNL     1     -43.506  56.951 -52.335  1.00  0.00     0.409 C 
HETATM   26  F   UNL     1     -44.581  57.764 -52.243  1.00  0.00    -0.169 F 
HETATM   27  F   UNL     1     -43.346  56.386 -51.109  1.00  0.00    -0.169 F 
HETATM   28  F   UNL     1     -42.421  57.723 -52.547  1.00  0.00    -0.169 F 
ENDBRANCH   8  25
BRANCH   6  29
HETATM   29  C   UNL     1     -40.719  53.438 -53.315  1.00  0.00     0.075 A 
HETATM   30  O   UNL     1     -40.180  52.952 -52.160  1.00  0.00    -0.325 OA
HETATM   31  C   UNL     1     -39.659  51.731 -52.450  1.00  0.00     0.142 A 
HETATM   32  C   UNL     1     -39.860  51.422 -53.776  1.00  0.00     0.027 A 
HETATM   33  C   UNL     1     -40.546  52.524 -54.337  1.00  0.00     0.037 A 
ENDBRANCH   6  29
TORSDOF 6
ENDMDL
MODEL 3
REMARK VINA RESULT:      -8.0      5.868      7.491
REMARK  6 active torsions:
REMARK  status: ('A' for Active; 'I' for Inactive)
REMARK    1  A    between atoms: C_2  and  O_3 
REMARK    2  A    between atoms: C_2  and  C_4 
REMARK    3  A    between atoms: C_7  and  N_8 
REMARK       I    between atoms: N_8  and  C_9 
REMARK    4  A    between atoms: C_9  and  C_10 
REMARK    5  A    between atoms: C_15  and  C_16 
REMARK    6  A    between atoms: C_22  and  C_23 
ROOT
HETATM    1  C   UNL     1     -43.163  56.047 -56.090  1.00  0.00     0.148 A 
HETATM    2  N   UNL     1     -42.944  55.746 -57.393  1.00  0.00    -0.165 NA
HETATM    3  N   UNL     1     -43.305  56.876 -58.031  1.00  0.00    -0.240 N 
HETATM    4  C   UNL     1     -43.829  57.836 -57.214  1.00  0.00     0.123 A 
HETATM    5  N   UNL     1     -44.379  58.955 -57.722  1.00  0.00    -0.364 N 
HETATM    6  C   UNL     1     -44.788  59.065 -59.129  1.00  0.00     0.143 C 
HETATM    7  C   UNL     1     -44.611  57.726 -59.882  1.00  0.00     0.068 C 
HETATM    8  C   UNL     1     -43.331  56.982 -59.476  1.00  0.00     0.221 C 
HETATM    9  C   UNL     1     -43.670  57.369 -55.938  1.00  0.00     0.089 A 
HETATM   10  H   UNL     1     -44.764  59.675 -57.110  1.00  0.00     0.162 HD
ENDROOT
BRANCH   1  11
HETATM   11  C   UNL     1     -42.966  55.061 -55.011  1.00  0.00     0.276 C 
HETATM   12  N   UNL     1     -41.628  54.879 -54.717  1.00  0.00    -0.322 N 
HETATM   13  H   UNL     1     -41.013  55.507 -55.230  1.00  0.00     0.169 HD
HETATM   14  O   UNL     1     -43.915  54.479 -54.500  1.00  0.00    -0.266 OA
BRANCH  12  15
HETATM   15  C   UNL     1     -41.046  53.904 -53.893  1.00  0.00     0.035 A 
HETATM   16  C   UNL     1     -40.928  54.028 -52.508  1.00  0.00     0.030 A 
HETATM   17  C   UNL     1     -40.394  52.986 -51.742  1.00  0.00     0.012 A 
HETATM   18  C   UNL     1     -39.962  51.799 -52.347  1.00  0.00    -0.030 A 
HETATM   19  C   UNL     1     -40.052  51.690 -53.741  1.00  0.00     0.012 A 
HETATM   20  C   UNL     1     -40.595  52.730 -54.504  1.00  0.00     0.030 A 
BRANCH  18  21
HETATM   21  C   UNL     1     -39.398  50.678 -51.502  1.00  0.00     0.147 C 
HETATM   22  C   UNL     1     -39.558  49.319 -52.165  1.00  0.00     0.044 C 
BRANCH  21  23
HETATM   23  O   UNL     1     -40.036  50.648 -50.225  1.00  0.00    -0.391 OA
HETATM   24  H   UNL     1     -39.354  50.861 -49.565  1.00  0.00     0.210 HD
ENDBRANCH  21  23
ENDBRANCH  18  21
ENDBRANCH  12  15
ENDBRANCH   1  11
BRANCH   8  25
HETATM   25  C   UNL     1     -42.074  57.656 -59.975  1.00  0.00     0.409 C 
HETATM   26  F   UNL     1     -41.447  58.353 -59.001  1.00  0.00    -0.169 F 
HETATM   27  F   UNL     1     -41.192  56.714 -60.402  1.00  0.00    -0.169 F 
HETATM   28  F   UNL     1     -42.279  58.491 -61.014  1.00  0.00    -0.169 F 
ENDBRANCH   8  25
BRANCH   6  29
HETATM   29  C   UNL     1     -46.211  59.519 -59.275  1.00  0.00     0.075 A 
HETATM   30  O   UNL     1     -46.686  59.664 -60.546  1.00  0.00    -0.325 OA
HETATM   31  C   UNL     1     -47.980  60.066 -60.440  1.00  0.00     0.142 A 
HETATM   32  C   UNL     1     -48.346  60.177 -59.119  1.00  0.00     0.027 A 
HETATM   33  C   UNL     1     -47.203  59.822 -58.363  1.00  0.00     0.037 A 
ENDBRANCH   6  29
TORSDOF 6
ENDMDL
MODEL 4
REMARK VINA RESULT:      -7.9      6.393      8.541
REMARK  6 active torsions:
REMARK  status: ('A' for Active; 'I' for Inactive)
REMARK    1  A    between atoms: C_2  and  O_3 
REMARK    2  A    between atoms: C_2  and  C_4 
REMARK    3  A    between atoms: C_7  and  N_8 
REMARK       I    between atoms: N_8  and  C_9 
REMARK    4  A    between atoms: C_9  and  C_10 
REMARK    5  A    between atoms: C_15  and  C_16 
REMARK    6  A    between atoms: C_22  and  C_23 
ROOT
HETATM    1  C   UNL     1     -43.811  57.026 -56.469  1.00  0.00     0.148 A 
HETATM    2  N   UNL     1     -42.841  56.120 -56.192  1.00  0.00    -0.165 NA
HETATM    3  N   UNL     1     -42.756  56.167 -54.849  1.00  0.00    -0.240 N 
HETATM    4  C   UNL     1     -43.547  57.118 -54.272  1.00  0.00     0.123 A 
HETATM    5  N   UNL     1     -43.455  57.393 -52.956  1.00  0.00    -0.364 N 
HETATM    6  C   UNL     1     -42.297  56.990 -52.145  1.00  0.00     0.143 C 
HETATM    7  C   UNL     1     -41.193  56.336 -53.009  1.00  0.00     0.068 C 
HETATM    8  C   UNL     1     -41.761  55.422 -54.104  1.00  0.00     0.221 C 
HETATM    9  C   UNL     1     -44.311  57.633 -55.282  1.00  0.00     0.089 A 
HETATM   10  H   UNL     1     -44.051  58.099 -52.525  1.00  0.00     0.162 HD
ENDROOT
BRANCH   1  11
HETATM   11  C   UNL     1     -44.200  57.365 -57.851  1.00  0.00     0.276 C 
HETATM   12  N   UNL     1     -45.561  57.241 -58.047  1.00  0.00    -0.322 N 
HETATM   13  H   UNL     1     -46.074  57.020 -57.197  1.00  0.00     0.169 HD
HETATM   14  O   UNL     1     -43.362  57.677 -58.689  1.00  0.00    -0.266 OA
BRANCH  12  15
HETATM   15  C   UNL     1     -46.272  57.297 -59.257  1.00  0.00     0.035 A 
HETATM   16  C   UNL     1     -46.491  56.191 -60.079  1.00  0.00     0.030 A 
HETATM   17  C   UNL     1     -47.265  56.308 -61.239  1.00  0.00     0.012 A 
HETATM   18  C   UNL     1     -47.833  57.536 -61.602  1.00  0.00    -0.030 A 
HETATM   19  C   UNL     1     -47.584  58.651 -60.791  1.00  0.00     0.012 A 
HETATM   20  C   UNL     1     -46.818  58.530 -59.627  1.00  0.00     0.030 A 
BRANCH  18  21
HETATM   21  C   UNL     1     -48.676  57.641 -62.854  1.00  0.00     0.147 C 
HETATM   22  C   UNL     1     -50.060  58.206 -62.570  1.00  0.00     0.044 C 
BRANCH  21  23
HETATM   23  O   UNL     1     -48.815  56.361 -63.468  1.00  0.00    -0.391 OA
HETATM   24  H   UNL     1     -49.732  56.302 -63.790  1.00  0.00     0.210 HD
ENDBRANCH  21  23
ENDBRANCH  18  21
ENDBRANCH  12  15
ENDBRANCH   1  11
BRANCH   8  25
HETATM   25  C   UNL     1     -42.363  54.149 -53.555  1.00  0.00     0.409 C 
HETATM   26  F   UNL     1     -43.706  54.229 -53.433  1.00  0.00    -0.169 F 
HETATM   27  F   UNL     1     -42.114  53.123 -54.413  1.00  0.00    -0.169 F 
HETATM   28  F   UNL     1     -41.860  53.780 -52.360  1.00  0.00    -0.169 F 
ENDBRANCH   8  25
BRANCH   6  29
HETATM   29  C   UNL     1     -41.702  58.142 -51.389  1.00  0.00     0.075 A 
HETATM   30  O   UNL     1     -42.494  59.238 -51.210  1.00  0.00    -0.325 OA
HETATM   31  C   UNL     1     -41.765  60.140 -50.502  1.00  0.00     0.142 A 
HETATM   32  C   UNL     1     -40.516  59.637 -50.217  1.00  0.00     0.027 A 
HETATM   33  C   UNL     1     -40.474  58.344 -50.790  1.00  0.00     0.037 A 
ENDBRANCH   6  29
TORSDOF 6
ENDMDL
MODEL 5
REMARK VINA RESULT:      -7.9      3.834      9.651
REMARK  6 active torsions:
REMARK  status: ('A' for Active; 'I' for Inactive)
REMARK    1  A    between atoms: C_2  and  O_3 
REMARK    2  A    between atoms: C_2  and  C_4 
REMARK    3  A    between atoms: C_7  and  N_8 
REMARK       I    between atoms: N_8  and  C_9 
REMARK    4  A    between atoms: C_9  and  C_10 
REMARK    5  A    between atoms: C_15  and  C_16 
REMARK    6  A    between atoms: C_22  and  C_23 
ROOT
HETATM    1  C   UNL     1     -42.985  56.313 -52.839  1.00  0.00     0.148 A 
HETATM    2  N   UNL     1     -43.016  55.784 -51.591  1.00  0.00    -0.165 NA
HETATM    3  N   UNL     1     -41.926  54.994 -51.569  1.00  0.00    -0.240 N 
HETATM    4  C   UNL     1     -41.264  54.920 -52.760  1.00  0.00     0.123 A 
HETATM    5  N   UNL     1     -40.251  54.051 -52.939  1.00  0.00    -0.364 N 
HETATM    6  C   UNL     1     -40.028  52.904 -52.047  1.00  0.00     0.143 C 
HETATM    7  C   UNL     1     -41.148  52.777 -50.988  1.00  0.00     0.068 C 
HETATM    8  C   UNL     1     -41.606  54.137 -50.445  1.00  0.00     0.221 C 
HETATM    9  C   UNL     1     -41.869  55.831 -53.582  1.00  0.00     0.089 A 
HETATM   10  H   UNL     1     -39.753  54.002 -53.827  1.00  0.00     0.162 HD
ENDROOT
BRANCH   1  11
HETATM   11  C   UNL     1     -44.047  57.203 -53.343  1.00  0.00     0.276 C 
HETATM   12  N   UNL     1     -43.982  58.458 -52.769  1.00  0.00    -0.322 N 
HETATM   13  H   UNL     1     -43.174  58.585 -52.164  1.00  0.00     0.169 HD
HETATM   14  O   UNL     1     -44.880  56.807 -54.149  1.00  0.00    -0.266 OA
BRANCH  12  15
HETATM   15  C   UNL     1     -44.917  59.502 -52.856  1.00  0.00     0.035 A 
HETATM   16  C   UNL     1     -45.054  60.331 -53.970  1.00  0.00     0.030 A 
HETATM   17  C   UNL     1     -46.053  61.310 -54.011  1.00  0.00     0.012 A 
HETATM   18  C   UNL     1     -46.934  61.482 -52.936  1.00  0.00    -0.030 A 
HETATM   19  C   UNL     1     -46.773  60.669 -51.806  1.00  0.00     0.012 A 
HETATM   20  C   UNL     1     -45.780  59.685 -51.771  1.00  0.00     0.030 A 
BRANCH  18  21
HETATM   21  C   UNL     1     -48.015  62.538 -53.003  1.00  0.00     0.147 C 
HETATM   22  C   UNL     1     -48.131  63.326 -51.706  1.00  0.00     0.044 C 
BRANCH  21  23
HETATM   23  O   UNL     1     -49.277  61.940 -53.296  1.00  0.00    -0.391 OA
HETATM   24  H   UNL     1     -49.091  61.071 -53.693  1.00  0.00     0.210 HD
ENDBRANCH  21  23
ENDBRANCH  18  21
ENDBRANCH  12  15
ENDBRANCH   1  11
BRANCH   8  25
HETATM   25  C   UNL     1     -40.573  54.797 -49.560  1.00  0.00     0.409 C 
HETATM   26  F   UNL     1     -39.479  54.024 -49.387  1.00  0.00    -0.169 F 
HETATM   27  F   UNL     1     -40.143  55.947 -50.143  1.00  0.00    -0.169 F 
HETATM   28  F   UNL     1     -41.037  55.136 -48.340  1.00  0.00    -0.169 F 
ENDBRANCH   8  25
BRANCH   6  29
HETATM   29  C   UNL     1     -39.923  51.610 -52.799  1.00  0.00     0.075 A 
HETATM   30  O   UNL     1     -39.555  50.508 -52.085  1.00  0.00    -0.325 OA
HETATM   31  C   UNL     1     -39.535  49.463 -52.953  1.00  0.00     0.142 A 
HETATM   32  C   UNL     1     -39.891  49.876 -54.216  1.00  0.00     0.027 A 
HETATM   33  C   UNL     1     -40.144  51.264 -54.119  1.00  0.00     0.037 A 
ENDBRANCH   6  29
TORSDOF 6
ENDMDL
MODEL 6
REMARK VINA RESULT:      -7.8      5.277      8.923
REMARK  6 active torsions:
REMARK  status: ('A' for Active; 'I' for Inactive)
REMARK    1  A    between atoms: C_2  and  O_3 
REMARK    2  A    between atoms: C_2  and  C_4 
REMARK    3  A    between atoms: C_7  and  N_8 
REMARK       I    between atoms: N_8  and  C_9 
REMARK    4  A    between atoms: C_9  and  C_10 
REMARK    5  A    between atoms: C_15  and  C_16 
REMARK    6  A    between atoms: C_22  and  C_23 
ROOT
HETATM    1  C   UNL     1     -42.881  57.063 -55.268  1.00  0.00     0.148 A 
HETATM    2  N   UNL     1     -43.692  56.632 -54.271  1.00  0.00    -0.165 NA
HETATM    3  N   UNL     1     -42.848  55.974 -53.455  1.00  0.00    -0.240 N 
HETATM    4  C   UNL     1     -41.570  55.883 -53.927  1.00  0.00     0.123 A 
HETATM    5  N   UNL     1     -40.651  55.123 -53.302  1.00  0.00    -0.364 N 
HETATM    6  C   UNL     1     -41.016  54.080 -52.332  1.00  0.00     0.143 C 
HETATM    7  C   UNL     1     -42.550  53.910 -52.227  1.00  0.00     0.068 C 
HETATM    8  C   UNL     1     -43.300  55.247 -52.285  1.00  0.00     0.221 C 
HETATM    9  C   UNL     1     -41.533  56.654 -55.056  1.00  0.00     0.089 A 
HETATM   10  H   UNL     1     -39.695  55.062 -53.652  1.00  0.00     0.162 HD
ENDROOT
BRANCH   1  11
HETATM   11  C   UNL     1     -43.396  57.787 -56.445  1.00  0.00     0.276 C 
HETATM   12  N   UNL     1     -44.644  57.332 -56.823  1.00  0.00    -0.322 N 
HETATM   13  H   UNL     1     -45.032  56.638 -56.188  1.00  0.00     0.169 HD
HETATM   14  O   UNL     1     -42.732  58.656 -56.998  1.00  0.00    -0.266 OA
BRANCH  12  15
HETATM   15  C   UNL     1     -45.364  57.641 -57.989  1.00  0.00     0.035 A 
HETATM   16  C   UNL     1     -45.044  57.146 -59.253  1.00  0.00     0.030 A 
HETATM   17  C   UNL     1     -45.846  57.446 -60.360  1.00  0.00     0.012 A 
HETATM   18  C   UNL     1     -46.984  58.252 -60.224  1.00  0.00    -0.030 A 
HETATM   19  C   UNL     1     -47.283  58.775 -58.959  1.00  0.00     0.012 A 
HETATM   20  C   UNL     1     -46.485  58.465 -57.852  1.00  0.00     0.030 A 
BRANCH  18  21
HETATM   21  C   UNL     1     -47.845  58.557 -61.429  1.00  0.00     0.147 C 
HETATM   22  C   UNL     1     -48.351  57.294 -62.109  1.00  0.00     0.044 C 
BRANCH  21  23
HETATM   23  O   UNL     1     -47.115  59.333 -62.379  1.00  0.00    -0.391 OA
HETATM   24  H   UNL     1     -47.768  59.714 -62.991  1.00  0.00     0.210 HD
ENDBRANCH  21  23
ENDBRANCH  18  21
ENDBRANCH  12  15
ENDBRANCH   1  11
BRANCH   8  25
HETATM   25  C   UNL     1     -43.109  56.086 -51.042  1.00  0.00     0.409 C 
HETATM   26  F   UNL     1     -42.292  57.140 -51.256  1.00  0.00    -0.169 F 
HETATM   27  F   UNL     1     -44.306  56.599 -50.652  1.00  0.00    -0.169 F 
HETATM   28  F   UNL     1     -42.626  55.395 -49.989  1.00  0.00    -0.169 F 
ENDBRANCH   8  25
BRANCH   6  29
HETATM   29  C   UNL     1     -40.402  52.752 -52.666  1.00  0.00     0.075 A 
HETATM   30  O   UNL     1     -39.976  51.988 -51.619  1.00  0.00    -0.325 OA
HETATM   31  C   UNL     1     -39.472  50.842 -52.147  1.00  0.00     0.142 A 
HETATM   32  C   UNL     1     -39.574  50.855 -53.519  1.00  0.00     0.027 A 
HETATM   33  C   UNL     1     -40.177  52.089 -53.857  1.00  0.00     0.037 A 
ENDBRANCH   6  29
TORSDOF 6
ENDMDL
MODEL 7
REMARK VINA RESULT:      -7.8      3.703      9.866
REMARK  6 active torsions:
REMARK  status: ('A' for Active; 'I' for Inactive)
REMARK    1  A    between atoms: C_2  and  O_3 
REMARK    2  A    between atoms: C_2  and  C_4 
REMARK    3  A    between atoms: C_7  and  N_8 
REMARK       I    between atoms: N_8  and  C_9 
REMARK    4  A    between atoms: C_9  and  C_10 
REMARK    5  A    between atoms: C_15  and  C_16 
REMARK    6  A    between atoms: C_22  and  C_23 
ROOT
HETATM    1  C   UNL     1     -44.500  58.395 -51.258  1.00  0.00     0.148 A 
HETATM    2  N   UNL     1     -44.319  57.062 -51.099  1.00  0.00    -0.165 NA
HETATM    3  N   UNL     1     -43.435  56.757 -52.067  1.00  0.00    -0.240 N 
HETATM    4  C   UNL     1     -43.120  57.803 -52.886  1.00  0.00     0.123 A 
HETATM    5  N   UNL     1     -42.373  57.619 -53.992  1.00  0.00    -0.364 N 
HETATM    6  C   UNL     1     -42.162  56.293 -54.590  1.00  0.00     0.143 C 
HETATM    7  C   UNL     1     -42.984  55.202 -53.865  1.00  0.00     0.068 C 
HETATM    8  C   UNL     1     -43.016  55.398 -52.343  1.00  0.00     0.221 C 
HETATM    9  C   UNL     1     -43.722  58.902 -52.338  1.00  0.00     0.089 A 
HETATM   10  H   UNL     1     -42.133  58.403 -54.599  1.00  0.00     0.162 HD
ENDROOT
BRANCH   1  11
HETATM   11  C   UNL     1     -45.460  59.162 -50.442  1.00  0.00     0.276 C 
HETATM   12  N   UNL     1     -44.872  60.269 -49.860  1.00  0.00    -0.322 N 
HETATM   13  H   UNL     1     -43.909  60.416 -50.152  1.00  0.00     0.169 HD
HETATM   14  O   UNL     1     -46.619  58.790 -50.306  1.00  0.00    -0.266 OA
BRANCH  12  15
HETATM   15  C   UNL     1     -45.408  61.123 -48.883  1.00  0.00     0.035 A 
HETATM   16  C   UNL     1     -45.117  61.023 -47.522  1.00  0.00     0.030 A 
HETATM   17  C   UNL     1     -45.637  61.950 -46.612  1.00  0.00     0.012 A 
HETATM   18  C   UNL     1     -46.463  62.995 -47.046  1.00  0.00    -0.030 A 
HETATM   19  C   UNL     1     -46.779  63.073 -48.408  1.00  0.00     0.012 A 
HETATM   20  C   UNL     1     -46.250  62.151 -49.317  1.00  0.00     0.030 A 
BRANCH  18  21
HETATM   21  C   UNL     1     -47.007  63.995 -46.049  1.00  0.00     0.147 C 
HETATM   22  C   UNL     1     -46.172  64.054 -44.779  1.00  0.00     0.044 C 
BRANCH  21  23
HETATM   23  O   UNL     1     -48.353  63.670 -45.703  1.00  0.00    -0.391 OA
HETATM   24  H   UNL     1     -48.668  64.373 -45.109  1.00  0.00     0.210 HD
ENDBRANCH  21  23
ENDBRANCH  18  21
ENDBRANCH  12  15
ENDBRANCH   1  11
BRANCH   8  25
HETATM   25  C   UNL     1     -41.686  55.114 -51.683  1.00  0.00     0.409 C 
HETATM   26  F   UNL     1     -41.003  56.245 -51.404  1.00  0.00    -0.169 F 
HETATM   27  F   UNL     1     -41.893  54.487 -50.495  1.00  0.00    -0.169 F 
HETATM   28  F   UNL     1     -40.880  54.311 -52.406  1.00  0.00    -0.169 F 
ENDBRANCH   8  25
BRANCH   6  29
HETATM   29  C   UNL     1     -42.504  56.267 -56.051  1.00  0.00     0.075 A 
HETATM   30  O   UNL     1     -42.421  57.449 -56.727  1.00  0.00    -0.325 OA
HETATM   31  C   UNL     1     -42.759  57.190 -58.017  1.00  0.00     0.142 A 
HETATM   32  C   UNL     1     -43.052  55.856 -58.183  1.00  0.00     0.027 A 
HETATM   33  C   UNL     1     -42.887  55.257 -56.912  1.00  0.00     0.037 A 
ENDBRANCH   6  29
TORSDOF 6
ENDMDL
MODEL 8
REMARK VINA RESULT:      -7.7      2.872      4.051
REMARK  6 active torsions:
REMARK  status: ('A' for Active; 'I' for Inactive)
REMARK    1  A    between atoms: C_2  and  O_3 
REMARK    2  A    between atoms: C_2  and  C_4 
REMARK    3  A    between atoms: C_7  and  N_8 
REMARK       I    between atoms: N_8  and  C_9 
REMARK    4  A    between atoms: C_9  and  C_10 
REMARK    5  A    between atoms: C_15  and  C_16 
REMARK    6  A    between atoms: C_22  and  C_23 
ROOT
HETATM    1  C   UNL     1     -43.327  56.894 -51.513  1.00  0.00     0.148 A 
HETATM    2  N   UNL     1     -42.399  57.874 -51.635  1.00  0.00    -0.165 NA
HETATM    3  N   UNL     1     -43.142  58.997 -51.640  1.00  0.00    -0.240 N 
HETATM    4  C   UNL     1     -44.489  58.777 -51.625  1.00  0.00     0.123 A 
HETATM    5  N   UNL     1     -45.360  59.791 -51.786  1.00  0.00    -0.364 N 
HETATM    6  C   UNL     1     -44.964  61.092 -52.342  1.00  0.00     0.143 C 
HETATM    7  C   UNL     1     -43.488  61.089 -52.806  1.00  0.00     0.068 C 
HETATM    8  C   UNL     1     -42.569  60.311 -51.855  1.00  0.00     0.221 C 
HETATM    9  C   UNL     1     -44.646  57.429 -51.452  1.00  0.00     0.089 A 
HETATM   10  H   UNL     1     -46.366  59.626 -51.767  1.00  0.00     0.162 HD
ENDROOT
BRANCH   1  11
HETATM   11  C   UNL     1     -42.968  55.464 -51.533  1.00  0.00     0.276 C 
HETATM   12  N   UNL     1     -41.658  55.267 -51.923  1.00  0.00    -0.322 N 
HETATM   13  H   UNL     1     -41.139  56.133 -52.051  1.00  0.00     0.169 HD
HETATM   14  O   UNL     1     -43.791  54.598 -51.260  1.00  0.00    -0.266 OA
BRANCH  12  15
HETATM   15  C   UNL     1     -41.017  54.057 -52.236  1.00  0.00     0.035 A 
HETATM   16  C   UNL     1     -40.362  53.260 -51.296  1.00  0.00     0.030 A 
HETATM   17  C   UNL     1     -39.802  52.034 -51.670  1.00  0.00     0.012 A 
HETATM   18  C   UNL     1     -39.882  51.581 -52.993  1.00  0.00    -0.030 A 
HETATM   19  C   UNL     1     -40.512  52.399 -53.940  1.00  0.00     0.012 A 
HETATM   20  C   UNL     1     -41.080  53.620 -53.562  1.00  0.00     0.030 A 
BRANCH  18  21
HETATM   21  C   UNL     1     -39.280  50.247 -53.375  1.00  0.00     0.147 C 
HETATM   22  C   UNL     1     -39.846  49.714 -54.683  1.00  0.00     0.044 C 
BRANCH  21  23
HETATM   23  O   UNL     1     -39.508  49.285 -52.346  1.00  0.00    -0.391 OA
HETATM   24  H   UNL     1     -40.464  49.103 -52.339  1.00  0.00     0.210 HD
ENDBRANCH  21  23
ENDBRANCH  18  21
ENDBRANCH  12  15
ENDBRANCH   1  11
BRANCH   8  25
HETATM   25  C   UNL     1     -42.358  61.013 -50.533  1.00  0.00     0.409 C 
HETATM   26  F   UNL     1     -43.218  60.584 -49.583  1.00  0.00    -0.169 F 
HETATM   27  F   UNL     1     -41.108  60.744 -50.070  1.00  0.00    -0.169 F 
HETATM   28  F   UNL     1     -42.459  62.355 -50.607  1.00  0.00    -0.169 F 
ENDBRANCH   8  25
BRANCH   6  29
HETATM   29  C   UNL     1     -45.833  61.509 -53.492  1.00  0.00     0.075 A 
HETATM   30  O   UNL     1     -46.925  62.271 -53.197  1.00  0.00    -0.325 OA
HETATM   31  C   UNL     1     -47.551  62.536 -54.373  1.00  0.00     0.142 A 
HETATM   32  C   UNL     1     -46.873  61.960 -55.423  1.00  0.00     0.027 A 
HETATM   33  C   UNL     1     -45.760  61.296 -54.855  1.00  0.00     0.037 A 
ENDBRANCH   6  29
TORSDOF 6
ENDMDL
MODEL 9
REMARK VINA RESULT:      -7.7      5.249      8.873
REMARK  6 active torsions:
REMARK  status: ('A' for Active; 'I' for Inactive)
REMARK    1  A    between atoms: C_2  and  O_3 
REMARK    2  A    between atoms: C_2  and  C_4 
REMARK    3  A    between atoms: C_7  and  N_8 
REMARK       I    between atoms: N_8  and  C_9 
REMARK    4  A    between atoms: C_9  and  C_10 
REMARK    5  A    between atoms: C_15  and  C_16 
REMARK    6  A    between atoms: C_22  and  C_23 
ROOT
HETATM    1  C   UNL     1     -42.597  56.684 -55.190  1.00  0.00     0.148 A 
HETATM    2  N   UNL     1     -43.494  56.296 -54.251  1.00  0.00    -0.165 NA
HETATM    3  N   UNL     1     -42.726  55.677 -53.335  1.00  0.00    -0.240 N 
HETATM    4  C   UNL     1     -41.412  55.568 -53.688  1.00  0.00     0.123 A 
HETATM    5  N   UNL     1     -40.552  54.839 -52.951  1.00  0.00    -0.364 N 
HETATM    6  C   UNL     1     -41.003  53.840 -51.971  1.00  0.00     0.143 C 
HETATM    7  C   UNL     1     -42.541  53.671 -51.994  1.00  0.00     0.068 C 
HETATM    8  C   UNL     1     -43.280  55.003 -52.178  1.00  0.00     0.221 C 
HETATM    9  C   UNL     1     -41.273  56.288 -54.843  1.00  0.00     0.089 A 
HETATM   10  H   UNL     1     -39.569  54.764 -53.212  1.00  0.00     0.162 HD
ENDROOT
BRANCH   1  11
HETATM   11  C   UNL     1     -43.006  57.353 -56.439  1.00  0.00     0.276 C 
HETATM   12  N   UNL     1     -41.923  57.635 -57.250  1.00  0.00    -0.322 N 
HETATM   13  H   UNL     1     -41.044  57.266 -56.894  1.00  0.00     0.169 HD
HETATM   14  O   UNL     1     -44.179  57.631 -56.658  1.00  0.00    -0.266 OA
BRANCH  12  15
HETATM   15  C   UNL     1     -41.892  58.419 -58.415  1.00  0.00     0.035 A 
HETATM   16  C   UNL     1     -41.936  57.892 -59.706  1.00  0.00     0.030 A 
HETATM   17  C   UNL     1     -41.966  58.739 -60.820  1.00  0.00     0.012 A 
HETATM   18  C   UNL     1     -41.950  60.131 -60.664  1.00  0.00    -0.030 A 
HETATM   19  C   UNL     1     -41.874  60.655 -59.367  1.00  0.00     0.012 A 
HETATM   20  C   UNL     1     -41.853  59.807 -58.255  1.00  0.00     0.030 A 
BRANCH  18  21
HETATM   21  C   UNL     1     -41.995  61.030 -61.879  1.00  0.00     0.147 C 
HETATM   22  C   UNL     1     -41.141  62.277 -61.705  1.00  0.00     0.044 C 
BRANCH  21  23
HETATM   23  O   UNL     1     -43.339  61.425 -62.157  1.00  0.00    -0.391 OA
HETATM   24  H   UNL     1     -43.793  61.496 -61.299  1.00  0.00     0.210 HD
ENDBRANCH  21  23
ENDBRANCH  18  21
ENDBRANCH  12  15
ENDBRANCH   1  11
BRANCH   8  25
HETATM   25  C   UNL     1     -43.198  55.896 -50.961  1.00  0.00     0.409 C 
HETATM   26  F   UNL     1     -42.716  55.245 -49.881  1.00  0.00    -0.169 F 
HETATM   27  F   UNL     1     -42.341  56.922 -51.208  1.00  0.00    -0.169 F 
HETATM   28  F   UNL     1     -44.376  56.455 -50.616  1.00  0.00    -0.169 F 
ENDBRANCH   8  25
BRANCH   6  29
HETATM   29  C   UNL     1     -40.365  52.499 -52.190  1.00  0.00     0.075 A 
HETATM   30  O   UNL     1     -40.082  51.761 -51.078  1.00  0.00    -0.325 OA
HETATM   31  C   UNL     1     -39.526  50.598 -51.508  1.00  0.00     0.142 A 
HETATM   32  C   UNL     1     -39.453  50.575 -52.881  1.00  0.00     0.027 A 
HETATM   33  C   UNL     1     -39.995  51.804 -53.325  1.00  0.00     0.037 A 
ENDBRANCH   6  29
TORSDOF 6
ENDMDL
MODEL 10
REMARK VINA RESULT:      -7.5      2.766      9.386
REMARK  6 active torsions:
REMARK  status: ('A' for Active; 'I' for Inactive)
REMARK    1  A    between atoms: C_2  and  O_3 
REMARK    2  A    between atoms: C_2  and  C_4 
REMARK    3  A    between atoms: C_7  and  N_8 
REMARK       I    between atoms: N_8  and  C_9 
REMARK    4  A    between atoms: C_9  and  C_10 
REMARK    5  A    between atoms: C_15  and  C_16 
REMARK    6  A    between atoms: C_22  and  C_23 
ROOT
HETATM    1  C   UNL     1     -43.064  57.872 -52.245  1.00  0.00     0.148 A 
HETATM    2  N   UNL     1     -42.416  58.005 -53.428  1.00  0.00    -0.165 NA
HETATM    3  N   UNL     1     -42.367  56.742 -53.892  1.00  0.00    -0.240 N 
HETATM    4  C   UNL     1     -42.861  55.809 -53.027  1.00  0.00     0.123 A 
HETATM    5  N   UNL     1     -42.737  54.492 -53.281  1.00  0.00    -0.364 N 
HETATM    6  C   UNL     1     -41.779  53.964 -54.263  1.00  0.00     0.143 C 
HETATM    7  C   UNL     1     -40.889  55.084 -54.852  1.00  0.00     0.068 C 
HETATM    8  C   UNL     1     -41.663  56.384 -55.107  1.00  0.00     0.221 C 
HETATM    9  C   UNL     1     -43.403  56.512 -51.987  1.00  0.00     0.089 A 
HETATM   10  H   UNL     1     -43.113  53.796 -52.637  1.00  0.00     0.162 HD
ENDROOT
BRANCH   1  11
HETATM   11  C   UNL     1     -43.287  59.012 -51.337  1.00  0.00     0.276 C 
HETATM   12  N   UNL     1     -44.632  59.251 -51.131  1.00  0.00    -0.322 N 
HETATM   13  H   UNL     1     -45.237  58.560 -51.568  1.00  0.00     0.169 HD
HETATM   14  O   UNL     1     -42.349  59.655 -50.880  1.00  0.00    -0.266 OA
BRANCH  12  15
HETATM   15  C   UNL     1     -45.231  60.347 -50.489  1.00  0.00     0.035 A 
HETATM   16  C   UNL     1     -45.898  61.371 -51.162  1.00  0.00     0.030 A 
HETATM   17  C   UNL     1     -46.527  62.399 -50.451  1.00  0.00     0.012 A 
HETATM   18  C   UNL     1     -46.498  62.425 -49.051  1.00  0.00    -0.030 A 
HETATM   19  C   UNL     1     -45.800  61.412 -48.379  1.00  0.00     0.012 A 
HETATM   20  C   UNL     1     -45.180  60.380 -49.092  1.00  0.00     0.030 A 
BRANCH  18  21
HETATM   21  C   UNL     1     -47.193  63.538 -48.299  1.00  0.00     0.147 C 
HETATM   22  C   UNL     1     -46.491  63.877 -46.993  1.00  0.00     0.044 C 
BRANCH  21  23
HETATM   23  O   UNL     1     -48.546  63.179 -48.017  1.00  0.00    -0.391 OA
HETATM   24  H   UNL     1     -48.550  62.775 -47.131  1.00  0.00     0.210 HD
ENDBRANCH  21  23
ENDBRANCH  18  21
ENDBRANCH  12  15
ENDBRANCH   1  11
BRANCH   8  25
HETATM   25  C   UNL     1     -42.633  56.276 -56.262  1.00  0.00     0.409 C 
HETATM   26  F   UNL     1     -43.905  56.531 -55.886  1.00  0.00    -0.169 F 
HETATM   27  F   UNL     1     -42.318  57.200 -57.208  1.00  0.00    -0.169 F 
HETATM   28  F   UNL     1     -42.616  55.076 -56.876  1.00  0.00    -0.169 F 
ENDBRANCH   8  25
BRANCH   6  29
HETATM   29  C   UNL     1     -40.897  52.898 -53.682  1.00  0.00     0.075 A 
HETATM   30  O   UNL     1     -40.533  53.042 -52.376  1.00  0.00    -0.325 OA
HETATM   31  C   UNL     1     -39.755  51.973 -52.063  1.00  0.00     0.142 A 
HETATM   32  C   UNL     1     -39.619  51.139 -53.149  1.00  0.00     0.027 A 
HETATM   33  C   UNL     1     -40.358  51.735 -54.197  1.00  0.00     0.037 A 
ENDBRANCH   6  29
TORSDOF 6
ENDMDL
