MODEL 1
REMARK VINA RESULT:      -8.0      0.000      0.000
REMARK  10 active torsions:
REMARK  status: ('A' for Active; 'I' for Inactive)
REMARK    1  A    between atoms: C_2  and  O_3 
REMARK    2  A    between atoms: O_3  and  C_4 
REMARK    3  A    between atoms: C_4  and  C_5 
REMARK    4  A    between atoms: C_6  and  C_7 
REMARK    5  A    between atoms: C_14  and  C_15 
REMARK    6  A    between atoms: C_15  and  C_16 
REMARK       I    between atoms: C_16  and  N_17 
REMARK    7  A    between atoms: N_17  and  C_18 
REMARK    8  A    between atoms: C_18  and  C_19 
REMARK    9  A    between atoms: C_19  and  N_20 
REMARK   10  A    between atoms: C_31  and  C_32 
ROOT
HETATM    1  C   UNL     1     -41.753  56.012 -53.002  1.00  0.00     0.071 C 
HETATM    2  C   UNL     1     -42.931  56.704 -53.732  1.00  0.00     0.150 C 
HETATM    3  N   UNL     1     -42.819  56.879 -55.152  1.00  0.00    -0.321 N 
HETATM    4  C   UNL     1     -43.188  57.737 -56.046  1.00  0.00     0.011 C 
HETATM    5  C   UNL     1     -42.535  55.509 -55.728  1.00  0.00     0.170 C 
HETATM    6  S   UNL     1     -42.861  55.435 -57.422  1.00  0.00    -0.086 SA
HETATM    7  C   UNL     1     -43.080  57.245 -57.475  1.00  0.00     0.135 C 
HETATM    8  N   UNL     1     -42.188  54.524 -54.992  1.00  0.00    -0.223 NA
HETATM    9  C   UNL     1     -41.703  54.738 -53.686  1.00  0.00     0.084 C 
ENDROOT
BRANCH   4  10
HETATM   10  C   UNL     1     -43.847  59.031 -55.666  1.00  0.00     0.156 C 
BRANCH  10  11
HETATM   11  C   UNL     1     -44.556  59.779 -56.782  1.00  0.00     0.223 C 
HETATM   12  N   UNL     1     -45.877  59.433 -56.913  1.00  0.00    -0.359 N 
HETATM   13  H   UNL     1     -46.230  58.684 -56.321  1.00  0.00     0.162 HD
HETATM   14  O   UNL     1     -43.999  60.602 -57.500  1.00  0.00    -0.273 OA
BRANCH  12  15
HETATM   15  C   UNL     1     -46.915  60.082 -57.720  1.00  0.00     0.150 C 
BRANCH  15  16
HETATM   16  C   UNL     1     -47.736  59.271 -58.742  1.00  0.00     0.254 C 
BRANCH  16  17
HETATM   17  N   UNL     1     -46.885  58.429 -59.659  1.00  0.00    -0.070 N 
HETATM   18  H   UNL     1     -45.974  58.922 -59.704  1.00  0.00     0.279 HD
HETATM   19  C   UNL     1     -47.420  58.373 -61.084  1.00  0.00     0.235 C 
HETATM   20  C   UNL     1     -47.734  56.908 -61.319  1.00  0.00     0.029 C 
HETATM   21  C   UNL     1     -46.678  56.197 -60.501  1.00  0.00     0.029 C 
HETATM   22  C   UNL     1     -46.657  56.999 -59.216  1.00  0.00     0.235 C 
ENDBRANCH  16  17
ENDBRANCH  15  16
ENDBRANCH  12  15
ENDBRANCH  10  11
ENDBRANCH   4  10
BRANCH   2  23
HETATM   23  C   UNL     1     -42.395  57.691 -52.858  1.00  0.00     0.037 C 
HETATM   24  C   UNL     1     -42.931  56.944 -51.258  1.00  0.00    -0.009 C 
HETATM   25  C   UNL     1     -44.600  57.255 -50.775  1.00  0.00    -0.003 C 
HETATM   26  C   UNL     1     -45.661  58.301 -51.768  1.00  0.00    -0.001 C 
HETATM   27  C   UNL     1     -45.057  59.165 -53.233  1.00  0.00    -0.003 C 
HETATM   28  C   UNL     1     -43.382  58.967 -53.761  1.00  0.00    -0.009 C 
ENDBRANCH   2  23
BRANCH   1  29
HETATM   29  C   UNL     1     -40.971  57.279 -51.465  1.00  0.00     0.293 C 
HETATM   30  O   UNL     1     -40.834  56.982 -50.240  1.00  0.00    -0.259 OA
BRANCH  29  31
HETATM   31  O   UNL     1     -40.478  58.626 -51.624  1.00  0.00    -0.318 OA
BRANCH  31  32
HETATM   32  C   UNL     1     -40.438  59.534 -50.502  1.00  0.00     0.174 C 
HETATM   33  C   UNL     1     -41.687  60.394 -50.488  1.00  0.00     0.034 C 
ENDBRANCH  31  32
ENDBRANCH  29  31
ENDBRANCH   1  29
BRANCH   9  34
HETATM   34  C   UNL     1     -41.019  53.441 -53.338  1.00  0.00    -0.006 A 
HETATM   35  C   UNL     1     -40.750  52.494 -54.337  1.00  0.00     0.014 A 
HETATM   36  C   UNL     1     -40.071  51.314 -54.026  1.00  0.00     0.001 A 
HETATM   37  C   UNL     1     -39.631  51.082 -52.724  1.00  0.00     0.000 A 
HETATM   38  C   UNL     1     -39.857  52.032 -51.731  1.00  0.00     0.001 A 
HETATM   39  C   UNL     1     -40.536  53.214 -52.037  1.00  0.00     0.014 A 
ENDBRANCH   9  34
TORSDOF 10
ENDMDL
MODEL 2
REMARK VINA RESULT:      -7.9      2.563      3.554
REMARK  10 active torsions:
REMARK  status: ('A' for Active; 'I' for Inactive)
REMARK    1  A    between atoms: C_2  and  O_3 
REMARK    2  A    between atoms: O_3  and  C_4 
REMARK    3  A    between atoms: C_4  and  C_5 
REMARK    4  A    between atoms: C_6  and  C_7 
REMARK    5  A    between atoms: C_14  and  C_15 
REMARK    6  A    between atoms: C_15  and  C_16 
REMARK       I    between atoms: C_16  and  N_17 
REMARK    7  A    between atoms: N_17  and  C_18 
REMARK    8  A    between atoms: C_18  and  C_19 
REMARK    9  A    between atoms: C_19  and  N_20 
REMARK   10  A    between atoms: C_31  and  C_32 
ROOT
HETATM    1  C   UNL     1     -41.777  56.162 -53.100  1.00  0.00     0.071 C 
HETATM    2  C   UNL     1     -42.957  56.881 -53.799  1.00  0.00     0.150 C 
HETATM    3  N   UNL     1     -42.853  57.104 -55.213  1.00  0.00    -0.321 N 
HETATM    4  C   UNL     1     -43.224  57.992 -56.075  1.00  0.00     0.011 C 
HETATM    5  C   UNL     1     -42.575  55.754 -55.836  1.00  0.00     0.170 C 
HETATM    6  S   UNL     1     -42.911  55.738 -57.530  1.00  0.00    -0.086 SA
HETATM    7  C   UNL     1     -43.125  57.549 -57.520  1.00  0.00     0.135 C 
HETATM    8  N   UNL     1     -42.227  54.744 -55.136  1.00  0.00    -0.223 NA
HETATM    9  C   UNL     1     -41.734  54.912 -53.826  1.00  0.00     0.084 C 
ENDROOT
BRANCH   4  10
HETATM   10  C   UNL     1     -43.878  59.275 -55.648  1.00  0.00     0.156 C 
BRANCH  10  11
HETATM   11  C   UNL     1     -44.104  60.311 -56.736  1.00  0.00     0.223 C 
HETATM   12  N   UNL     1     -43.035  61.152 -56.915  1.00  0.00    -0.359 N 
HETATM   13  H   UNL     1     -42.247  61.055 -56.278  1.00  0.00     0.162 HD
HETATM   14  O   UNL     1     -45.142  60.391 -57.383  1.00  0.00    -0.273 OA
BRANCH  12  15
HETATM   15  C   UNL     1     -42.803  62.118 -57.994  1.00  0.00     0.150 C 
BRANCH  15  16
HETATM   16  C   UNL     1     -42.550  61.637 -59.436  1.00  0.00     0.254 C 
BRANCH  16  17
HETATM   17  N   UNL     1     -41.100  61.700 -59.842  1.00  0.00    -0.070 N 
HETATM   18  H   UNL     1     -40.819  60.711 -59.981  1.00  0.00     0.279 HD
HETATM   19  C   UNL     1     -40.198  62.258 -58.749  1.00  0.00     0.235 C 
HETATM   20  C   UNL     1     -39.605  63.519 -59.347  1.00  0.00     0.029 C 
HETATM   21  C   UNL     1     -39.487  63.178 -60.817  1.00  0.00     0.029 C 
HETATM   22  C   UNL     1     -40.803  62.484 -61.103  1.00  0.00     0.235 C 
ENDBRANCH  16  17
ENDBRANCH  15  16
ENDBRANCH  12  15
ENDBRANCH  10  11
ENDBRANCH   4  10
BRANCH   2  23
HETATM   23  C   UNL     1     -42.414  57.838 -52.895  1.00  0.00     0.037 C 
HETATM   24  C   UNL     1     -42.941  57.038 -51.318  1.00  0.00    -0.009 C 
HETATM   25  C   UNL     1     -44.607  57.334 -50.815  1.00  0.00    -0.003 C 
HETATM   26  C   UNL     1     -45.672  58.416 -51.765  1.00  0.00    -0.001 C 
HETATM   27  C   UNL     1     -45.075  59.328 -53.203  1.00  0.00    -0.003 C 
HETATM   28  C   UNL     1     -43.404  59.145 -53.748  1.00  0.00    -0.009 C 
ENDBRANCH   2  23
BRANCH   1  29
HETATM   29  C   UNL     1     -40.983  57.375 -51.525  1.00  0.00     0.293 C 
HETATM   30  O   UNL     1     -40.812  57.026 -50.317  1.00  0.00    -0.259 OA
BRANCH  29  31
HETATM   31  O   UNL     1     -40.519  58.737 -51.635  1.00  0.00    -0.318 OA
BRANCH  31  32
HETATM   32  C   UNL     1     -40.455  59.590 -50.471  1.00  0.00     0.174 C 
HETATM   33  C   UNL     1     -41.731  60.399 -50.351  1.00  0.00     0.034 C 
ENDBRANCH  31  32
ENDBRANCH  29  31
ENDBRANCH   1  29
BRANCH   9  34
HETATM   34  C   UNL     1     -41.052  53.603 -53.526  1.00  0.00    -0.006 A 
HETATM   35  C   UNL     1     -40.875  52.649 -54.540  1.00  0.00     0.014 A 
HETATM   36  C   UNL     1     -40.198  51.457 -54.277  1.00  0.00     0.001 A 
HETATM   37  C   UNL     1     -39.668  51.218 -53.010  1.00  0.00     0.000 A 
HETATM   38  C   UNL     1     -39.801  52.174 -52.006  1.00  0.00     0.001 A 
HETATM   39  C   UNL     1     -40.478  53.368 -52.263  1.00  0.00     0.014 A 
ENDBRANCH   9  34
TORSDOF 10
ENDMDL
MODEL 3
REMARK VINA RESULT:      -7.7      1.742      2.221
REMARK  10 active torsions:
REMARK  status: ('A' for Active; 'I' for Inactive)
REMARK    1  A    between atoms: C_2  and  O_3 
REMARK    2  A    between atoms: O_3  and  C_4 
REMARK    3  A    between atoms: C_4  and  C_5 
REMARK    4  A    between atoms: C_6  and  C_7 
REMARK    5  A    between atoms: C_14  and  C_15 
REMARK    6  A    between atoms: C_15  and  C_16 
REMARK       I    between atoms: C_16  and  N_17 
REMARK    7  A    between atoms: N_17  and  C_18 
REMARK    8  A    between atoms: C_18  and  C_19 
REMARK    9  A    between atoms: C_19  and  N_20 
REMARK   10  A    between atoms: C_31  and  C_32 
ROOT
HETATM    1  C   UNL     1     -41.713  56.078 -53.102  1.00  0.00     0.071 C 
HETATM    2  C   UNL     1     -42.883  56.789 -53.828  1.00  0.00     0.150 C 
HETATM    3  N   UNL     1     -42.767  56.976 -55.246  1.00  0.00    -0.321 N 
HETATM    4  C   UNL     1     -43.125  57.846 -56.132  1.00  0.00     0.011 C 
HETATM    5  C   UNL     1     -42.495  55.610 -55.834  1.00  0.00     0.170 C 
HETATM    6  S   UNL     1     -42.818  55.555 -57.529  1.00  0.00    -0.086 SA
HETATM    7  C   UNL     1     -43.019  57.367 -57.565  1.00  0.00     0.135 C 
HETATM    8  N   UNL     1     -42.159  54.614 -55.107  1.00  0.00    -0.223 NA
HETATM    9  C   UNL     1     -41.674  54.810 -53.798  1.00  0.00     0.084 C 
ENDROOT
BRANCH   4  10
HETATM   10  C   UNL     1     -43.772  59.143 -55.741  1.00  0.00     0.156 C 
BRANCH  10  11
HETATM   11  C   UNL     1     -43.677  60.274 -56.751  1.00  0.00     0.223 C 
HETATM   12  N   UNL     1     -44.817  60.430 -57.499  1.00  0.00    -0.359 N 
HETATM   13  H   UNL     1     -45.566  59.753 -57.365  1.00  0.00     0.162 HD
HETATM   14  O   UNL     1     -42.679  60.971 -56.889  1.00  0.00    -0.273 OA
BRANCH  12  15
HETATM   15  C   UNL     1     -45.172  61.527 -58.405  1.00  0.00     0.150 C 
BRANCH  15  16
HETATM   16  C   UNL     1     -45.442  61.256 -59.898  1.00  0.00     0.254 C 
BRANCH  16  17
HETATM   17  N   UNL     1     -44.187  61.197 -60.732  1.00  0.00    -0.070 N 
HETATM   18  H   UNL     1     -44.477  61.523 -61.673  1.00  0.00     0.279 HD
HETATM   19  C   UNL     1     -43.655  59.780 -60.908  1.00  0.00     0.235 C 
HETATM   20  C   UNL     1     -42.282  59.803 -60.263  1.00  0.00     0.029 C 
HETATM   21  C   UNL     1     -41.800  61.212 -60.533  1.00  0.00     0.029 C 
HETATM   22  C   UNL     1     -43.032  62.045 -60.243  1.00  0.00     0.235 C 
ENDBRANCH  16  17
ENDBRANCH  15  16
ENDBRANCH  12  15
ENDBRANCH  10  11
ENDBRANCH   4  10
BRANCH   2  23
HETATM   23  C   UNL     1     -42.339  57.762 -52.943  1.00  0.00     0.037 C 
HETATM   24  C   UNL     1     -42.863  56.992 -51.350  1.00  0.00    -0.009 C 
HETATM   25  C   UNL     1     -44.528  57.297 -50.850  1.00  0.00    -0.003 C 
HETATM   26  C   UNL     1     -45.596  58.359 -51.818  1.00  0.00    -0.001 C 
HETATM   27  C   UNL     1     -45.003  59.244 -53.275  1.00  0.00    -0.003 C 
HETATM   28  C   UNL     1     -43.332  59.053 -53.820  1.00  0.00    -0.009 C 
ENDBRANCH   2  23
BRANCH   1  29
HETATM   29  C   UNL     1     -40.922  57.323 -51.551  1.00  0.00     0.293 C 
HETATM   30  O   UNL     1     -40.749  56.997 -50.338  1.00  0.00    -0.259 OA
BRANCH  29  31
HETATM   31  O   UNL     1     -40.463  58.684 -51.687  1.00  0.00    -0.318 OA
BRANCH  31  32
HETATM   32  C   UNL     1     -40.371  59.550 -50.534  1.00  0.00     0.174 C 
HETATM   33  C   UNL     1     -41.641  60.365 -50.397  1.00  0.00     0.034 C 
ENDBRANCH  31  32
ENDBRANCH  29  31
ENDBRANCH   1  29
BRANCH   9  34
HETATM   34  C   UNL     1     -41.005  53.504 -53.461  1.00  0.00    -0.006 A 
HETATM   35  C   UNL     1     -40.815  52.531 -54.453  1.00  0.00     0.014 A 
HETATM   36  C   UNL     1     -40.149  51.340 -54.156  1.00  0.00     0.001 A 
HETATM   37  C   UNL     1     -39.643  51.122 -52.875  1.00  0.00     0.000 A 
HETATM   38  C   UNL     1     -39.789  52.097 -51.891  1.00  0.00     0.001 A 
HETATM   39  C   UNL     1     -40.456  53.289 -52.184  1.00  0.00     0.014 A 
ENDBRANCH   9  34
TORSDOF 10
ENDMDL
MODEL 4
REMARK VINA RESULT:      -6.1     17.232     21.328
REMARK  10 active torsions:
REMARK  status: ('A' for Active; 'I' for Inactive)
REMARK    1  A    between atoms: C_2  and  O_3 
REMARK    2  A    between atoms: O_3  and  C_4 
REMARK    3  A    between atoms: C_4  and  C_5 
REMARK    4  A    between atoms: C_6  and  C_7 
REMARK    5  A    between atoms: C_14  and  C_15 
REMARK    6  A    between atoms: C_15  and  C_16 
REMARK       I    between atoms: C_16  and  N_17 
REMARK    7  A    between atoms: N_17  and  C_18 
REMARK    8  A    between atoms: C_18  and  C_19 
REMARK    9  A    between atoms: C_19  and  N_20 
REMARK   10  A    between atoms: C_31  and  C_32 
ROOT
HETATM    1  C   UNL     1     -35.889  38.358 -59.646  1.00  0.00     0.071 C 
HETATM    2  C   UNL     1     -35.828  39.135 -58.307  1.00  0.00     0.150 C 
HETATM    3  N   UNL     1     -35.324  38.438 -57.158  1.00  0.00    -0.321 N 
HETATM    4  C   UNL     1     -35.526  38.418 -55.882  1.00  0.00     0.011 C 
HETATM    5  C   UNL     1     -33.967  37.898 -57.552  1.00  0.00     0.170 C 
HETATM    6  S   UNL     1     -33.012  37.474 -56.177  1.00  0.00    -0.086 SA
HETATM    7  C   UNL     1     -34.455  37.701 -55.085  1.00  0.00     0.135 C 
HETATM    8  N   UNL     1     -33.576  37.867 -58.768  1.00  0.00    -0.223 NA
HETATM    9  C   UNL     1     -34.503  37.987 -59.824  1.00  0.00     0.084 C 
ENDROOT
BRANCH   4  10
HETATM   10  C   UNL     1     -36.633  39.213 -55.251  1.00  0.00     0.156 C 
BRANCH  10  11
HETATM   11  C   UNL     1     -36.408  39.656 -53.815  1.00  0.00     0.223 C 
HETATM   12  N   UNL     1     -35.841  40.901 -53.715  1.00  0.00    -0.359 N 
HETATM   13  H   UNL     1     -35.567  41.367 -54.578  1.00  0.00     0.162 HD
HETATM   14  O   UNL     1     -36.696  38.965 -52.845  1.00  0.00    -0.273 OA
BRANCH  12  15
HETATM   15  C   UNL     1     -35.676  41.736 -52.521  1.00  0.00     0.150 C 
BRANCH  15  16
HETATM   16  C   UNL     1     -35.170  41.124 -51.199  1.00  0.00     0.254 C 
BRANCH  16  17
HETATM   17  N   UNL     1     -34.029  40.156 -51.386  1.00  0.00    -0.070 N 
HETATM   18  H   UNL     1     -34.315  39.558 -52.184  1.00  0.00     0.279 HD
HETATM   19  C   UNL     1     -33.833  39.228 -50.194  1.00  0.00     0.235 C 
HETATM   20  C   UNL     1     -32.442  39.548 -49.682  1.00  0.00     0.029 C 
HETATM   21  C   UNL     1     -31.688  39.909 -50.944  1.00  0.00     0.029 C 
HETATM   22  C   UNL     1     -32.682  40.779 -51.687  1.00  0.00     0.235 C 
ENDBRANCH  16  17
ENDBRANCH  15  16
ENDBRANCH  12  15
ENDBRANCH  10  11
ENDBRANCH   4  10
BRANCH   2  23
HETATM   23  C   UNL     1     -37.212  39.048 -58.631  1.00  0.00     0.037 C 
HETATM   24  C   UNL     1     -37.186  40.067 -60.170  1.00  0.00    -0.009 C 
HETATM   25  C   UNL     1     -37.228  41.817 -59.945  1.00  0.00    -0.003 C 
HETATM   26  C   UNL     1     -37.365  42.527 -58.307  1.00  0.00    -0.001 C 
HETATM   27  C   UNL     1     -37.570  41.505 -56.833  1.00  0.00    -0.003 C 
HETATM   28  C   UNL     1     -37.603  39.743 -56.963  1.00  0.00    -0.009 C 
ENDBRANCH   2  23
BRANCH   1  29
HETATM   29  C   UNL     1     -37.888  38.337 -60.413  1.00  0.00     0.293 C 
HETATM   30  O   UNL     1     -38.944  38.084 -59.759  1.00  0.00    -0.259 OA
BRANCH  29  31
HETATM   31  O   UNL     1     -38.295  38.628 -61.767  1.00  0.00    -0.318 OA
BRANCH  31  32
HETATM   32  C   UNL     1     -38.743  37.571 -62.645  1.00  0.00     0.174 C 
HETATM   33  C   UNL     1     -40.203  37.776 -62.997  1.00  0.00     0.034 C 
ENDBRANCH  31  32
ENDBRANCH  29  31
ENDBRANCH   1  29
BRANCH   9  34
HETATM   34  C   UNL     1     -33.749  37.479 -61.025  1.00  0.00    -0.006 A 
HETATM   35  C   UNL     1     -34.370  37.435 -62.283  1.00  0.00     0.014 A 
HETATM   36  C   UNL     1     -33.659  37.013 -63.407  1.00  0.00     0.001 A 
HETATM   37  C   UNL     1     -32.315  36.658 -63.292  1.00  0.00     0.000 A 
HETATM   38  C   UNL     1     -31.676  36.735 -62.057  1.00  0.00     0.001 A 
HETATM   39  C   UNL     1     -32.384  37.155 -60.929  1.00  0.00     0.014 A 
ENDBRANCH   9  34
TORSDOF 10
ENDMDL
MODEL 5
REMARK VINA RESULT:      -6.1     17.446     20.785
REMARK  10 active torsions:
REMARK  status: ('A' for Active; 'I' for Inactive)
REMARK    1  A    between atoms: C_2  and  O_3 
REMARK    2  A    between atoms: O_3  and  C_4 
REMARK    3  A    between atoms: C_4  and  C_5 
REMARK    4  A    between atoms: C_6  and  C_7 
REMARK    5  A    between atoms: C_14  and  C_15 
REMARK    6  A    between atoms: C_15  and  C_16 
REMARK       I    between atoms: C_16  and  N_17 
REMARK    7  A    between atoms: N_17  and  C_18 
REMARK    8  A    between atoms: C_18  and  C_19 
REMARK    9  A    between atoms: C_19  and  N_20 
REMARK   10  A    between atoms: C_31  and  C_32 
ROOT
HETATM    1  C   UNL     1     -33.293  38.829 -55.234  1.00  0.00     0.071 C 
HETATM    2  C   UNL     1     -33.989  39.595 -54.081  1.00  0.00     0.150 C 
HETATM    3  N   UNL     1     -33.985  38.983 -52.782  1.00  0.00    -0.321 N 
HETATM    4  C   UNL     1     -34.759  38.918 -51.750  1.00  0.00     0.011 C 
HETATM    5  C   UNL     1     -32.539  38.684 -52.458  1.00  0.00     0.170 C 
HETATM    6  S   UNL     1     -32.292  38.417 -50.771  1.00  0.00    -0.086 SA
HETATM    7  C   UNL     1     -34.095  38.387 -50.496  1.00  0.00     0.135 C 
HETATM    8  N   UNL     1     -31.622  38.731 -53.347  1.00  0.00    -0.223 NA
HETATM    9  C   UNL     1     -31.947  38.700 -54.719  1.00  0.00     0.084 C 
ENDROOT
BRANCH   4  10
HETATM   10  C   UNL     1     -36.140  39.508 -51.766  1.00  0.00     0.156 C 
BRANCH  10  11
HETATM   11  C   UNL     1     -36.869  39.551 -50.433  1.00  0.00     0.223 C 
HETATM   12  N   UNL     1     -37.800  38.554 -50.293  1.00  0.00    -0.359 N 
HETATM   13  H   UNL     1     -37.962  37.943 -51.091  1.00  0.00     0.162 HD
HETATM   14  O   UNL     1     -36.652  40.398 -49.574  1.00  0.00    -0.273 OA
BRANCH  12  15
HETATM   15  C   UNL     1     -38.532  38.151 -49.087  1.00  0.00     0.150 C 
BRANCH  15  16
HETATM   16  C   UNL     1     -39.957  37.572 -49.192  1.00  0.00     0.254 C 
BRANCH  16  17
HETATM   17  N   UNL     1     -40.991  38.594 -49.592  1.00  0.00    -0.070 N 
HETATM   18  H   UNL     1     -40.743  39.446 -49.056  1.00  0.00     0.279 HD
HETATM   19  C   UNL     1     -42.403  38.210 -49.171  1.00  0.00     0.235 C 
HETATM   20  C   UNL     1     -43.170  38.081 -50.472  1.00  0.00     0.029 C 
HETATM   21  C   UNL     1     -42.520  39.123 -51.357  1.00  0.00     0.029 C 
HETATM   22  C   UNL     1     -41.046  38.930 -51.068  1.00  0.00     0.235 C 
ENDBRANCH  16  17
ENDBRANCH  15  16
ENDBRANCH  12  15
ENDBRANCH  10  11
ENDBRANCH   4  10
BRANCH   2  23
HETATM   23  C   UNL     1     -35.025  39.277 -55.005  1.00  0.00     0.037 C 
HETATM   24  C   UNL     1     -34.498  40.386 -56.382  1.00  0.00    -0.009 C 
HETATM   25  C   UNL     1     -34.979  42.078 -56.245  1.00  0.00    -0.003 C 
HETATM   26  C   UNL     1     -35.984  42.637 -54.873  1.00  0.00    -0.001 C 
HETATM   27  C   UNL     1     -36.637  41.497 -53.636  1.00  0.00    -0.003 C 
HETATM   28  C   UNL     1     -36.262  39.772 -53.723  1.00  0.00    -0.009 C 
ENDBRANCH   2  23
BRANCH   1  29
HETATM   29  C   UNL     1     -34.664  38.476 -56.840  1.00  0.00     0.293 C 
HETATM   30  O   UNL     1     -34.472  38.738 -58.065  1.00  0.00    -0.259 OA
BRANCH  29  31
HETATM   31  O   UNL     1     -35.972  37.876 -56.740  1.00  0.00    -0.318 OA
BRANCH  31  32
HETATM   32  C   UNL     1     -36.950  38.063 -57.787  1.00  0.00     0.174 C 
HETATM   33  C   UNL     1     -37.841  39.244 -57.457  1.00  0.00     0.034 C 
ENDBRANCH  31  32
ENDBRANCH  29  31
ENDBRANCH   1  29
BRANCH   9  34
HETATM   34  C   UNL     1     -30.649  38.337 -55.390  1.00  0.00    -0.006 A 
HETATM   35  C   UNL     1     -29.891  37.252 -54.924  1.00  0.00     0.014 A 
HETATM   36  C   UNL     1     -28.714  36.882 -55.576  1.00  0.00     0.001 A 
HETATM   37  C   UNL     1     -28.296  37.571 -56.713  1.00  0.00     0.000 A 
HETATM   38  C   UNL     1     -29.060  38.625 -57.210  1.00  0.00     0.001 A 
HETATM   39  C   UNL     1     -30.238  39.000 -56.560  1.00  0.00     0.014 A 
ENDBRANCH   9  34
TORSDOF 10
ENDMDL
MODEL 6
REMARK VINA RESULT:      -5.9     17.312     21.977
REMARK  10 active torsions:
REMARK  status: ('A' for Active; 'I' for Inactive)
REMARK    1  A    between atoms: C_2  and  O_3 
REMARK    2  A    between atoms: O_3  and  C_4 
REMARK    3  A    between atoms: C_4  and  C_5 
REMARK    4  A    between atoms: C_6  and  C_7 
REMARK    5  A    between atoms: C_14  and  C_15 
REMARK    6  A    between atoms: C_15  and  C_16 
REMARK       I    between atoms: C_16  and  N_17 
REMARK    7  A    between atoms: N_17  and  C_18 
REMARK    8  A    between atoms: C_18  and  C_19 
REMARK    9  A    between atoms: C_19  and  N_20 
REMARK   10  A    between atoms: C_31  and  C_32 
ROOT
HETATM    1  C   UNL     1     -36.208  40.268 -51.561  1.00  0.00     0.071 C 
HETATM    2  C   UNL     1     -35.038  39.347 -51.135  1.00  0.00     0.150 C 
HETATM    3  N   UNL     1     -34.934  39.007 -49.744  1.00  0.00    -0.321 N 
HETATM    4  C   UNL     1     -34.003  38.766 -48.881  1.00  0.00     0.011 C 
HETATM    5  C   UNL     1     -36.273  38.425 -49.349  1.00  0.00     0.170 C 
HETATM    6  S   UNL     1     -36.180  37.517 -47.883  1.00  0.00    -0.086 SA
HETATM    7  C   UNL     1     -34.484  38.123 -47.597  1.00  0.00     0.135 C 
HETATM    8  N   UNL     1     -37.306  38.535 -50.093  1.00  0.00    -0.223 NA
HETATM    9  C   UNL     1     -37.351  39.497 -51.122  1.00  0.00     0.084 C 
ENDROOT
BRANCH   4  10
HETATM   10  C   UNL     1     -32.551  38.937 -49.226  1.00  0.00     0.156 C 
BRANCH  10  11
HETATM   11  C   UNL     1     -31.569  38.838 -48.071  1.00  0.00     0.223 C 
HETATM   12  N   UNL     1     -31.122  40.059 -47.633  1.00  0.00    -0.359 N 
HETATM   13  H   UNL     1     -31.422  40.884 -48.148  1.00  0.00     0.162 HD
HETATM   14  O   UNL     1     -31.206  37.772 -47.586  1.00  0.00    -0.273 OA
BRANCH  12  15
HETATM   15  C   UNL     1     -30.351  40.369 -46.425  1.00  0.00     0.150 C 
BRANCH  15  16
HETATM   16  C   UNL     1     -28.831  40.113 -46.378  1.00  0.00     0.254 C 
BRANCH  16  17
HETATM   17  N   UNL     1     -28.360  39.551 -45.060  1.00  0.00    -0.070 N 
HETATM   18  H   UNL     1     -27.349  39.781 -45.019  1.00  0.00     0.279 HD
HETATM   19  C   UNL     1     -28.462  38.032 -44.990  1.00  0.00     0.235 C 
HETATM   20  C   UNL     1     -29.435  37.766 -43.858  1.00  0.00     0.029 C 
HETATM   21  C   UNL     1     -29.166  38.906 -42.900  1.00  0.00     0.029 C 
HETATM   22  C   UNL     1     -29.047  40.098 -43.828  1.00  0.00     0.235 C 
ENDBRANCH  16  17
ENDBRANCH  15  16
ENDBRANCH  12  15
ENDBRANCH  10  11
ENDBRANCH   4  10
BRANCH   2  23
HETATM   23  C   UNL     1     -34.426  40.539 -51.615  1.00  0.00     0.037 C 
HETATM   24  C   UNL     1     -34.763  40.303 -53.413  1.00  0.00    -0.009 C 
HETATM   25  C   UNL     1     -33.650  39.243 -54.281  1.00  0.00    -0.003 C 
HETATM   26  C   UNL     1     -32.241  38.517 -53.448  1.00  0.00    -0.001 C 
HETATM   27  C   UNL     1     -31.832  38.909 -51.735  1.00  0.00    -0.003 C 
HETATM   28  C   UNL     1     -32.852  40.009 -50.801  1.00  0.00    -0.009 C 
ENDBRANCH   2  23
BRANCH   1  29
HETATM   29  C   UNL     1     -35.468  42.025 -52.535  1.00  0.00     0.293 C 
HETATM   30  O   UNL     1     -34.825  42.973 -51.992  1.00  0.00    -0.259 OA
BRANCH  29  31
HETATM   31  O   UNL     1     -35.585  42.349 -53.936  1.00  0.00    -0.318 OA
BRANCH  31  32
HETATM   32  C   UNL     1     -36.857  42.239 -54.614  1.00  0.00     0.174 C 
HETATM   33  C   UNL     1     -36.638  42.154 -56.111  1.00  0.00     0.034 C 
ENDBRANCH  31  32
ENDBRANCH  29  31
ENDBRANCH   1  29
BRANCH   9  34
HETATM   34  C   UNL     1     -38.817  39.606 -51.451  1.00  0.00    -0.006 A 
HETATM   35  C   UNL     1     -39.736  38.709 -50.886  1.00  0.00     0.014 A 
HETATM   36  C   UNL     1     -41.102  38.840 -51.148  1.00  0.00     0.001 A 
HETATM   37  C   UNL     1     -41.564  39.881 -51.951  1.00  0.00     0.000 A 
HETATM   38  C   UNL     1     -40.666  40.802 -52.486  1.00  0.00     0.001 A 
HETATM   39  C   UNL     1     -39.299  40.675 -52.227  1.00  0.00     0.014 A 
ENDBRANCH   9  34
TORSDOF 10
ENDMDL
MODEL 7
REMARK VINA RESULT:      -5.9     17.828     21.285
REMARK  10 active torsions:
REMARK  status: ('A' for Active; 'I' for Inactive)
REMARK    1  A    between atoms: C_2  and  O_3 
REMARK    2  A    between atoms: O_3  and  C_4 
REMARK    3  A    between atoms: C_4  and  C_5 
REMARK    4  A    between atoms: C_6  and  C_7 
REMARK    5  A    between atoms: C_14  and  C_15 
REMARK    6  A    between atoms: C_15  and  C_16 
REMARK       I    between atoms: C_16  and  N_17 
REMARK    7  A    between atoms: N_17  and  C_18 
REMARK    8  A    between atoms: C_18  and  C_19 
REMARK    9  A    between atoms: C_19  and  N_20 
REMARK   10  A    between atoms: C_31  and  C_32 
ROOT
HETATM    1  C   UNL     1     -33.571  38.630 -54.804  1.00  0.00     0.071 C 
HETATM    2  C   UNL     1     -34.289  39.206 -53.558  1.00  0.00     0.150 C 
HETATM    3  N   UNL     1     -34.374  38.368 -52.396  1.00  0.00    -0.321 N 
HETATM    4  C   UNL     1     -35.200  38.155 -51.425  1.00  0.00     0.011 C 
HETATM    5  C   UNL     1     -32.959  37.942 -52.075  1.00  0.00     0.170 C 
HETATM    6  S   UNL     1     -32.807  37.358 -50.458  1.00  0.00    -0.086 SA
HETATM    7  C   UNL     1     -34.620  37.370 -50.266  1.00  0.00     0.135 C 
HETATM    8  N   UNL     1     -31.999  38.103 -52.903  1.00  0.00    -0.223 NA
HETATM    9  C   UNL     1     -32.259  38.340 -54.268  1.00  0.00     0.084 C 
ENDROOT
BRANCH   4  10
HETATM   10  C   UNL     1     -36.551  38.808 -51.387  1.00  0.00     0.156 C 
BRANCH  10  11
HETATM   11  C   UNL     1     -37.649  38.042 -50.666  1.00  0.00     0.223 C 
HETATM   12  N   UNL     1     -38.168  38.720 -49.593  1.00  0.00    -0.359 N 
HETATM   13  H   UNL     1     -37.738  39.608 -49.343  1.00  0.00     0.162 HD
HETATM   14  O   UNL     1     -38.024  36.926 -51.006  1.00  0.00    -0.273 OA
BRANCH  12  15
HETATM   15  C   UNL     1     -39.362  38.402 -48.802  1.00  0.00     0.150 C 
BRANCH  15  16
HETATM   16  C   UNL     1     -39.230  37.761 -47.406  1.00  0.00     0.254 C 
BRANCH  16  17
HETATM   17  N   UNL     1     -40.448  37.958 -46.540  1.00  0.00    -0.070 N 
HETATM   18  H   UNL     1     -40.970  37.065 -46.608  1.00  0.00     0.279 HD
HETATM   19  C   UNL     1     -41.379  39.046 -47.060  1.00  0.00     0.235 C 
HETATM   20  C   UNL     1     -41.399  40.091 -45.961  1.00  0.00     0.029 C 
HETATM   21  C   UNL     1     -41.251  39.265 -44.701  1.00  0.00     0.029 C 
HETATM   22  C   UNL     1     -40.176  38.268 -45.083  1.00  0.00     0.235 C 
ENDBRANCH  16  17
ENDBRANCH  15  16
ENDBRANCH  12  15
ENDBRANCH  10  11
ENDBRANCH   4  10
BRANCH   2  23
HETATM   23  C   UNL     1     -35.291  39.116 -54.565  1.00  0.00     0.037 C 
HETATM   24  C   UNL     1     -34.608  40.373 -55.731  1.00  0.00    -0.009 C 
HETATM   25  C   UNL     1     -34.970  42.059 -55.355  1.00  0.00    -0.003 C 
HETATM   26  C   UNL     1     -36.008  42.484 -53.960  1.00  0.00    -0.001 C 
HETATM   27  C   UNL     1     -36.811  41.227 -52.944  1.00  0.00    -0.003 C 
HETATM   28  C   UNL     1     -36.560  39.511 -53.279  1.00  0.00    -0.009 C 
ENDBRANCH   2  23
BRANCH   1  29
HETATM   29  C   UNL     1     -34.876  38.646 -56.501  1.00  0.00     0.293 C 
HETATM   30  O   UNL     1     -34.588  39.046 -57.669  1.00  0.00    -0.259 OA
BRANCH  29  31
HETATM   31  O   UNL     1     -36.242  38.186 -56.542  1.00  0.00    -0.318 OA
BRANCH  31  32
HETATM   32  C   UNL     1     -37.102  38.529 -57.652  1.00  0.00     0.174 C 
HETATM   33  C   UNL     1     -37.974  39.713 -57.283  1.00  0.00     0.034 C 
ENDBRANCH  31  32
ENDBRANCH  29  31
ENDBRANCH   1  29
BRANCH   9  34
HETATM   34  C   UNL     1     -30.946  38.040 -54.943  1.00  0.00    -0.006 A 
HETATM   35  C   UNL     1     -30.463  38.883 -55.956  1.00  0.00     0.014 A 
HETATM   36  C   UNL     1     -29.223  38.636 -56.547  1.00  0.00     0.001 A 
HETATM   37  C   UNL     1     -28.441  37.566 -56.115  1.00  0.00     0.000 A 
HETATM   38  C   UNL     1     -28.891  36.746 -55.083  1.00  0.00     0.001 A 
HETATM   39  C   UNL     1     -30.132  36.987 -54.489  1.00  0.00     0.014 A 
ENDBRANCH   9  34
TORSDOF 10
ENDMDL
MODEL 8
REMARK VINA RESULT:      -5.5     17.872     22.719
REMARK  10 active torsions:
REMARK  status: ('A' for Active; 'I' for Inactive)
REMARK    1  A    between atoms: C_2  and  O_3 
REMARK    2  A    between atoms: O_3  and  C_4 
REMARK    3  A    between atoms: C_4  and  C_5 
REMARK    4  A    between atoms: C_6  and  C_7 
REMARK    5  A    between atoms: C_14  and  C_15 
REMARK    6  A    between atoms: C_15  and  C_16 
REMARK       I    between atoms: C_16  and  N_17 
REMARK    7  A    between atoms: N_17  and  C_18 
REMARK    8  A    between atoms: C_18  and  C_19 
REMARK    9  A    between atoms: C_19  and  N_20 
REMARK   10  A    between atoms: C_31  and  C_32 
ROOT
HETATM    1  C   UNL     1     -36.137  39.303 -50.051  1.00  0.00     0.071 C 
HETATM    2  C   UNL     1     -34.789  38.589 -49.778  1.00  0.00     0.150 C 
HETATM    3  N   UNL     1     -34.385  38.438 -48.409  1.00  0.00    -0.321 N 
HETATM    4  C   UNL     1     -33.287  38.419 -47.729  1.00  0.00     0.011 C 
HETATM    5  C   UNL     1     -35.533  37.753 -47.700  1.00  0.00     0.170 C 
HETATM    6  S   UNL     1     -35.045  37.051 -46.201  1.00  0.00    -0.086 SA
HETATM    7  C   UNL     1     -33.428  37.887 -46.317  1.00  0.00     0.135 C 
HETATM    8  N   UNL     1     -36.690  37.646 -48.232  1.00  0.00    -0.223 NA
HETATM    9  C   UNL     1     -37.059  38.461 -49.321  1.00  0.00     0.084 C 
ENDROOT
BRANCH   4  10
HETATM   10  C   UNL     1     -31.962  38.719 -48.369  1.00  0.00     0.156 C 
BRANCH  10  11
HETATM   11  C   UNL     1     -30.804  38.990 -47.424  1.00  0.00     0.223 C 
HETATM   12  N   UNL     1     -30.637  40.321 -47.139  1.00  0.00    -0.359 N 
HETATM   13  H   UNL     1     -31.236  40.987 -47.624  1.00  0.00     0.162 HD
HETATM   14  O   UNL     1     -30.084  38.107 -46.971  1.00  0.00    -0.273 OA
BRANCH  12  15
HETATM   15  C   UNL     1     -29.780  40.937 -46.120  1.00  0.00     0.150 C 
BRANCH  15  16
HETATM   16  C   UNL     1     -30.002  40.640 -44.624  1.00  0.00     0.254 C 
BRANCH  16  17
HETATM   17  N   UNL     1     -28.844  39.921 -43.979  1.00  0.00    -0.070 N 
HETATM   18  H   UNL     1     -28.107  39.895 -44.708  1.00  0.00     0.279 HD
HETATM   19  C   UNL     1     -29.162  38.473 -43.629  1.00  0.00     0.235 C 
HETATM   20  C   UNL     1     -29.025  38.403 -42.120  1.00  0.00     0.029 C 
HETATM   21  C   UNL     1     -27.923  39.399 -41.830  1.00  0.00     0.029 C 
HETATM   22  C   UNL     1     -28.286  40.566 -42.728  1.00  0.00     0.235 C 
ENDBRANCH  16  17
ENDBRANCH  15  16
ENDBRANCH  12  15
ENDBRANCH  10  11
ENDBRANCH   4  10
BRANCH   2  23
HETATM   23  C   UNL     1     -34.451  39.778 -50.484  1.00  0.00     0.037 C 
HETATM   24  C   UNL     1     -35.225  39.351 -52.104  1.00  0.00    -0.009 C 
HETATM   25  C   UNL     1     -34.277  38.309 -53.168  1.00  0.00    -0.003 C 
HETATM   26  C   UNL     1     -32.632  37.778 -52.702  1.00  0.00    -0.001 C 
HETATM   27  C   UNL     1     -31.828  38.357 -51.194  1.00  0.00    -0.003 C 
HETATM   28  C   UNL     1     -32.673  39.453 -50.094  1.00  0.00    -0.009 C 
ENDBRANCH   2  23
BRANCH   1  29
HETATM   29  C   UNL     1     -35.844  41.002 -51.320  1.00  0.00     0.293 C 
HETATM   30  O   UNL     1     -34.982  41.919 -51.165  1.00  0.00    -0.259 OA
BRANCH  29  31
HETATM   31  O   UNL     1     -36.573  41.314 -52.526  1.00  0.00    -0.318 OA
BRANCH  31  32
HETATM   32  C   UNL     1     -36.079  42.310 -53.449  1.00  0.00     0.174 C 
HETATM   33  C   UNL     1     -36.434  41.918 -54.870  1.00  0.00     0.034 C 
ENDBRANCH  31  32
ENDBRANCH  29  31
ENDBRANCH   1  29
BRANCH   9  34
HETATM   34  C   UNL     1     -38.561  38.352 -49.361  1.00  0.00    -0.006 A 
HETATM   35  C   UNL     1     -39.239  38.387 -50.589  1.00  0.00     0.014 A 
HETATM   36  C   UNL     1     -40.627  38.236 -50.633  1.00  0.00     0.001 A 
HETATM   37  C   UNL     1     -41.345  38.020 -49.458  1.00  0.00     0.000 A 
HETATM   38  C   UNL     1     -40.679  37.943 -48.237  1.00  0.00     0.001 A 
HETATM   39  C   UNL     1     -39.291  38.096 -48.188  1.00  0.00     0.014 A 
ENDBRANCH   9  34
TORSDOF 10
ENDMDL
