MODEL 1
REMARK VINA RESULT:      -7.8      0.000      0.000
REMARK  7 active torsions:
REMARK  status: ('A' for Active; 'I' for Inactive)
REMARK    1  A    between atoms: C_4  and  O_5 
REMARK    2  A    between atoms: O_5  and  C_6 
REMARK    3  A    between atoms: C_9  and  N_10 
REMARK       I    between atoms: N_10  and  C_11 
REMARK    4  A    between atoms: C_11  and  C_12 
REMARK    5  A    between atoms: C_12  and  C_13 
REMARK    6  A    between atoms: C_13  and  N_14 
REMARK       I    between atoms: N_14  and  C_15 
REMARK    7  A    between atoms: C_15  and  C_16 
ROOT
HETATM    1  N   UNL     1     -43.858  56.376 -54.641  1.00  0.00    -0.327 N 
HETATM    2  C   UNL     1     -44.295  57.649 -54.328  1.00  0.00     0.223 C 
HETATM    3  O   UNL     1     -43.887  58.366 -53.420  1.00  0.00    -0.273 OA
HETATM    4  H   UNL     1     -44.235  55.976 -55.501  1.00  0.00     0.169 HD
ENDROOT
BRANCH   1   5
HETATM    5  C   UNL     1     -42.903  55.600 -53.956  1.00  0.00     0.034 A 
HETATM    6  C   UNL     1     -43.202  54.784 -52.865  1.00  0.00     0.032 A 
HETATM    7  C   UNL     1     -42.195  54.037 -52.244  1.00  0.00     0.039 A 
HETATM    8  C   UNL     1     -40.880  54.093 -52.708  1.00  0.00     0.076 A 
HETATM    9  C   UNL     1     -40.572  54.919 -53.789  1.00  0.00     0.039 A 
HETATM   10  C   UNL     1     -41.582  55.657 -54.417  1.00  0.00     0.032 A 
BRANCH   8  11
HETATM   11  O   UNL     1     -39.967  53.351 -51.991  1.00  0.00    -0.311 OA
BRANCH  11  12
HETATM   12  C   UNL     1     -39.802  52.028 -52.316  1.00  0.00     0.076 A 
HETATM   13  C   UNL     1     -39.699  51.112 -51.269  1.00  0.00     0.037 A 
HETATM   14  C   UNL     1     -39.577  49.751 -51.548  1.00  0.00     0.003 A 
HETATM   15  C   UNL     1     -39.576  49.310 -52.872  1.00  0.00     0.000 A 
HETATM   16  C   UNL     1     -39.706  50.227 -53.918  1.00  0.00     0.003 A 
HETATM   17  C   UNL     1     -39.830  51.589 -53.641  1.00  0.00     0.037 A 
ENDBRANCH  11  12
ENDBRANCH   8  11
ENDBRANCH   1   5
BRANCH   2  18
HETATM   18  C   UNL     1     -45.374  58.142 -55.266  1.00  0.00     0.123 C 
BRANCH  18  19
HETATM   19  C   UNL     1     -44.797  58.813 -56.505  1.00  0.00     0.132 C 
BRANCH  19  20
HETATM   20  N   UNL     1     -44.853  58.102 -57.772  1.00  0.00    -0.355 N 
HETATM   21  C   UNL     1     -44.033  57.060 -58.151  1.00  0.00     0.275 C 
HETATM   22  O   UNL     1     -42.965  56.821 -57.595  1.00  0.00    -0.265 OA
HETATM   23  H   UNL     1     -45.723  58.162 -58.291  1.00  0.00     0.162 HD
BRANCH  21  24
HETATM   24  C   UNL     1     -44.534  56.295 -59.275  1.00  0.00     0.142 A 
HETATM   25  O   UNL     1     -45.729  56.647 -59.851  1.00  0.00    -0.317 OA
HETATM   26  C   UNL     1     -45.962  55.765 -60.858  1.00  0.00     0.143 A 
HETATM   27  C   UNL     1     -44.942  54.848 -60.942  1.00  0.00     0.027 A 
HETATM   28  C   UNL     1     -44.021  55.188 -59.922  1.00  0.00     0.045 A 
ENDBRANCH  21  24
ENDBRANCH  19  20
ENDBRANCH  18  19
ENDBRANCH   2  18
TORSDOF 7
ENDMDL
MODEL 2
REMARK VINA RESULT:      -7.5      4.242      7.202
REMARK  7 active torsions:
REMARK  status: ('A' for Active; 'I' for Inactive)
REMARK    1  A    between atoms: C_4  and  O_5 
REMARK    2  A    between atoms: O_5  and  C_6 
REMARK    3  A    between atoms: C_9  and  N_10 
REMARK       I    between atoms: N_10  and  C_11 
REMARK    4  A    between atoms: C_11  and  C_12 
REMARK    5  A    between atoms: C_12  and  C_13 
REMARK    6  A    between atoms: C_13  and  N_14 
REMARK       I    between atoms: N_14  and  C_15 
REMARK    7  A    between atoms: C_15  and  C_16 
ROOT
HETATM    1  N   UNL     1     -43.342  57.281 -53.340  1.00  0.00    -0.327 N 
HETATM    2  C   UNL     1     -43.730  57.643 -52.064  1.00  0.00     0.223 C 
HETATM    3  O   UNL     1     -43.444  57.073 -51.016  1.00  0.00    -0.273 OA
HETATM    4  H   UNL     1     -43.582  57.939 -54.081  1.00  0.00     0.169 HD
ENDROOT
BRANCH   1   5
HETATM    5  C   UNL     1     -42.594  56.151 -53.724  1.00  0.00     0.034 A 
HETATM    6  C   UNL     1     -43.128  54.868 -53.842  1.00  0.00     0.032 A 
HETATM    7  C   UNL     1     -42.318  53.798 -54.239  1.00  0.00     0.039 A 
HETATM    8  C   UNL     1     -40.967  53.999 -54.526  1.00  0.00     0.076 A 
HETATM    9  C   UNL     1     -40.423  55.276 -54.395  1.00  0.00     0.039 A 
HETATM   10  C   UNL     1     -41.237  56.348 -54.009  1.00  0.00     0.032 A 
BRANCH   8  11
HETATM   11  O   UNL     1     -40.259  52.866 -54.862  1.00  0.00    -0.311 OA
BRANCH  11  12
HETATM   12  C   UNL     1     -40.054  51.914 -53.895  1.00  0.00     0.076 A 
HETATM   13  C   UNL     1     -39.943  50.585 -54.308  1.00  0.00     0.037 A 
HETATM   14  C   UNL     1     -39.688  49.587 -53.367  1.00  0.00     0.003 A 
HETATM   15  C   UNL     1     -39.529  49.923 -52.022  1.00  0.00     0.000 A 
HETATM   16  C   UNL     1     -39.614  51.256 -51.615  1.00  0.00     0.003 A 
HETATM   17  C   UNL     1     -39.867  52.257 -52.555  1.00  0.00     0.037 A 
ENDBRANCH  11  12
ENDBRANCH   8  11
ENDBRANCH   1   5
BRANCH   2  18
HETATM   18  C   UNL     1     -44.574  58.898 -52.046  1.00  0.00     0.123 C 
BRANCH  18  19
HETATM   19  C   UNL     1     -43.843  60.074 -51.412  1.00  0.00     0.132 C 
BRANCH  19  20
HETATM   20  N   UNL     1     -44.126  60.404 -50.025  1.00  0.00    -0.355 N 
HETATM   21  C   UNL     1     -45.362  60.721 -49.504  1.00  0.00     0.275 C 
HETATM   22  O   UNL     1     -46.308  61.066 -50.207  1.00  0.00    -0.265 OA
HETATM   23  H   UNL     1     -43.446  60.098 -49.335  1.00  0.00     0.162 HD
BRANCH  21  24
HETATM   24  C   UNL     1     -45.434  60.634 -48.060  1.00  0.00     0.142 A 
HETATM   25  O   UNL     1     -46.367  59.813 -47.479  1.00  0.00    -0.317 OA
HETATM   26  C   UNL     1     -46.225  59.934 -46.133  1.00  0.00     0.143 A 
HETATM   27  C   UNL     1     -45.218  60.820 -45.833  1.00  0.00     0.027 A 
HETATM   28  C   UNL     1     -44.708  61.273 -47.073  1.00  0.00     0.045 A 
ENDBRANCH  21  24
ENDBRANCH  19  20
ENDBRANCH  18  19
ENDBRANCH   2  18
TORSDOF 7
ENDMDL
MODEL 3
REMARK VINA RESULT:      -7.4      3.403      5.536
REMARK  7 active torsions:
REMARK  status: ('A' for Active; 'I' for Inactive)
REMARK    1  A    between atoms: C_4  and  O_5 
REMARK    2  A    between atoms: O_5  and  C_6 
REMARK    3  A    between atoms: C_9  and  N_10 
REMARK       I    between atoms: N_10  and  C_11 
REMARK    4  A    between atoms: C_11  and  C_12 
REMARK    5  A    between atoms: C_12  and  C_13 
REMARK    6  A    between atoms: C_13  and  N_14 
REMARK       I    between atoms: N_14  and  C_15 
REMARK    7  A    between atoms: C_15  and  C_16 
ROOT
HETATM    1  N   UNL     1     -43.420  56.631 -54.694  1.00  0.00    -0.327 N 
HETATM    2  C   UNL     1     -44.105  57.166 -53.620  1.00  0.00     0.223 C 
HETATM    3  O   UNL     1     -44.036  56.809 -52.448  1.00  0.00    -0.273 OA
HETATM    4  H   UNL     1     -43.519  57.131 -55.577  1.00  0.00     0.169 HD
ENDROOT
BRANCH   1   5
HETATM    5  C   UNL     1     -42.547  55.526 -54.694  1.00  0.00     0.034 A 
HETATM    6  C   UNL     1     -42.973  54.198 -54.708  1.00  0.00     0.032 A 
HETATM    7  C   UNL     1     -42.039  53.155 -54.716  1.00  0.00     0.039 A 
HETATM    8  C   UNL     1     -40.671  53.428 -54.714  1.00  0.00     0.076 A 
HETATM    9  C   UNL     1     -40.238  54.754 -54.684  1.00  0.00     0.039 A 
HETATM   10  C   UNL     1     -41.173  55.796 -54.688  1.00  0.00     0.032 A 
BRANCH   8  11
HETATM   11  O   UNL     1     -39.847  52.324 -54.676  1.00  0.00    -0.311 OA
BRANCH  11  12
HETATM   12  C   UNL     1     -39.808  51.578 -53.525  1.00  0.00     0.076 A 
HETATM   13  C   UNL     1     -39.582  50.207 -53.650  1.00  0.00     0.037 A 
HETATM   14  C   UNL     1     -39.488  49.414 -52.506  1.00  0.00     0.003 A 
HETATM   15  C   UNL     1     -39.602  49.998 -51.243  1.00  0.00     0.000 A 
HETATM   16  C   UNL     1     -39.802  51.375 -51.121  1.00  0.00     0.003 A 
HETATM   17  C   UNL     1     -39.894  52.171 -52.264  1.00  0.00     0.037 A 
ENDBRANCH  11  12
ENDBRANCH   8  11
ENDBRANCH   1   5
BRANCH   2  18
HETATM   18  C   UNL     1     -44.995  58.323 -54.014  1.00  0.00     0.123 C 
BRANCH  18  19
HETATM   19  C   UNL     1     -44.519  59.643 -53.424  1.00  0.00     0.132 C 
BRANCH  19  20
HETATM   20  N   UNL     1     -43.141  59.748 -52.973  1.00  0.00    -0.355 N 
HETATM   21  C   UNL     1     -42.730  60.033 -51.688  1.00  0.00     0.275 C 
HETATM   22  O   UNL     1     -43.474  60.538 -50.851  1.00  0.00    -0.265 OA
HETATM   23  H   UNL     1     -42.437  59.297 -53.548  1.00  0.00     0.162 HD
BRANCH  21  24
HETATM   24  C   UNL     1     -41.344  59.707 -51.427  1.00  0.00     0.142 A 
HETATM   25  O   UNL     1     -40.504  59.440 -52.479  1.00  0.00    -0.317 OA
HETATM   26  C   UNL     1     -39.283  59.154 -51.954  1.00  0.00     0.143 A 
HETATM   27  C   UNL     1     -39.319  59.230 -50.582  1.00  0.00     0.027 A 
HETATM   28  C   UNL     1     -40.646  59.585 -50.240  1.00  0.00     0.045 A 
ENDBRANCH  21  24
ENDBRANCH  19  20
ENDBRANCH  18  19
ENDBRANCH   2  18
TORSDOF 7
ENDMDL
MODEL 4
REMARK VINA RESULT:      -7.4      1.905      8.122
REMARK  7 active torsions:
REMARK  status: ('A' for Active; 'I' for Inactive)
REMARK    1  A    between atoms: C_4  and  O_5 
REMARK    2  A    between atoms: O_5  and  C_6 
REMARK    3  A    between atoms: C_9  and  N_10 
REMARK       I    between atoms: N_10  and  C_11 
REMARK    4  A    between atoms: C_11  and  C_12 
REMARK    5  A    between atoms: C_12  and  C_13 
REMARK    6  A    between atoms: C_13  and  N_14 
REMARK       I    between atoms: N_14  and  C_15 
REMARK    7  A    between atoms: C_15  and  C_16 
ROOT
HETATM    1  N   UNL     1     -43.234  55.970 -53.008  1.00  0.00    -0.327 N 
HETATM    2  C   UNL     1     -42.208  56.088 -52.090  1.00  0.00     0.223 C 
HETATM    3  O   UNL     1     -41.082  56.530 -52.294  1.00  0.00    -0.273 OA
HETATM    4  H   UNL     1     -44.138  55.686 -52.630  1.00  0.00     0.169 HD
ENDROOT
BRANCH   1   5
HETATM    5  C   UNL     1     -43.196  56.267 -54.384  1.00  0.00     0.034 A 
HETATM    6  C   UNL     1     -43.412  57.541 -54.911  1.00  0.00     0.032 A 
HETATM    7  C   UNL     1     -43.349  57.755 -56.292  1.00  0.00     0.039 A 
HETATM    8  C   UNL     1     -43.065  56.701 -57.162  1.00  0.00     0.076 A 
HETATM    9  C   UNL     1     -42.864  55.422 -56.643  1.00  0.00     0.039 A 
HETATM   10  C   UNL     1     -42.916  55.211 -55.259  1.00  0.00     0.032 A 
BRANCH   8  11
HETATM   11  O   UNL     1     -43.074  57.020 -58.502  1.00  0.00    -0.311 OA
BRANCH  11  12
HETATM   12  C   UNL     1     -44.156  56.640 -59.256  1.00  0.00     0.076 A 
HETATM   13  C   UNL     1     -43.988  55.568 -60.134  1.00  0.00     0.037 A 
HETATM   14  C   UNL     1     -45.071  55.115 -60.888  1.00  0.00     0.003 A 
HETATM   15  C   UNL     1     -46.319  55.723 -60.748  1.00  0.00     0.000 A 
HETATM   16  C   UNL     1     -46.490  56.778 -59.849  1.00  0.00     0.003 A 
HETATM   17  C   UNL     1     -45.409  57.232 -59.092  1.00  0.00     0.037 A 
ENDBRANCH  11  12
ENDBRANCH   8  11
ENDBRANCH   1   5
BRANCH   2  18
HETATM   18  C   UNL     1     -42.607  55.622 -50.707  1.00  0.00     0.123 C 
BRANCH  18  19
HETATM   19  C   UNL     1     -42.107  54.215 -50.407  1.00  0.00     0.132 C 
BRANCH  19  20
HETATM   20  N   UNL     1     -41.556  53.425 -51.496  1.00  0.00    -0.355 N 
HETATM   21  C   UNL     1     -40.259  52.967 -51.587  1.00  0.00     0.275 C 
HETATM   22  O   UNL     1     -39.342  53.436 -50.918  1.00  0.00    -0.265 OA
HETATM   23  H   UNL     1     -42.221  52.923 -52.077  1.00  0.00     0.162 HD
BRANCH  21  24
HETATM   24  C   UNL     1     -40.075  51.907 -52.557  1.00  0.00     0.142 A 
HETATM   25  O   UNL     1     -39.731  50.651 -52.125  1.00  0.00    -0.317 OA
HETATM   26  C   UNL     1     -39.610  49.868 -53.229  1.00  0.00     0.143 A 
HETATM   27  C   UNL     1     -39.867  50.595 -54.367  1.00  0.00     0.027 A 
HETATM   28  C   UNL     1     -40.166  51.910 -53.936  1.00  0.00     0.045 A 
ENDBRANCH  21  24
ENDBRANCH  19  20
ENDBRANCH  18  19
ENDBRANCH   2  18
TORSDOF 7
ENDMDL
MODEL 5
REMARK VINA RESULT:      -7.4     14.687     17.963
REMARK  7 active torsions:
REMARK  status: ('A' for Active; 'I' for Inactive)
REMARK    1  A    between atoms: C_4  and  O_5 
REMARK    2  A    between atoms: O_5  and  C_6 
REMARK    3  A    between atoms: C_9  and  N_10 
REMARK       I    between atoms: N_10  and  C_11 
REMARK    4  A    between atoms: C_11  and  C_12 
REMARK    5  A    between atoms: C_12  and  C_13 
REMARK    6  A    between atoms: C_13  and  N_14 
REMARK       I    between atoms: N_14  and  C_15 
REMARK    7  A    between atoms: C_15  and  C_16 
ROOT
HETATM    1  N   UNL     1     -35.007  42.046 -53.703  1.00  0.00    -0.327 N 
HETATM    2  C   UNL     1     -34.960  41.024 -52.775  1.00  0.00     0.223 C 
HETATM    3  O   UNL     1     -35.352  39.871 -52.925  1.00  0.00    -0.273 OA
HETATM    4  H   UNL     1     -34.530  42.908 -53.439  1.00  0.00     0.169 HD
ENDROOT
BRANCH   1   5
HETATM    5  C   UNL     1     -35.569  42.012 -54.993  1.00  0.00     0.034 A 
HETATM    6  C   UNL     1     -34.823  41.873 -56.163  1.00  0.00     0.032 A 
HETATM    7  C   UNL     1     -35.459  41.840 -57.409  1.00  0.00     0.039 A 
HETATM    8  C   UNL     1     -36.848  41.940 -57.500  1.00  0.00     0.076 A 
HETATM    9  C   UNL     1     -37.600  42.094 -56.335  1.00  0.00     0.039 A 
HETATM   10  C   UNL     1     -36.962  42.116 -55.088  1.00  0.00     0.032 A 
BRANCH   8  11
HETATM   11  O   UNL     1     -37.360  41.941 -58.779  1.00  0.00    -0.311 OA
BRANCH  11  12
HETATM   12  C   UNL     1     -37.620  40.735 -59.379  1.00  0.00     0.076 A 
HETATM   13  C   UNL     1     -38.322  39.782 -58.640  1.00  0.00     0.037 A 
HETATM   14  C   UNL     1     -38.651  38.558 -59.223  1.00  0.00     0.003 A 
HETATM   15  C   UNL     1     -38.290  38.298 -60.546  1.00  0.00     0.000 A 
HETATM   16  C   UNL     1     -37.610  39.264 -61.292  1.00  0.00     0.003 A 
HETATM   17  C   UNL     1     -37.282  40.490 -60.711  1.00  0.00     0.037 A 
ENDBRANCH  11  12
ENDBRANCH   8  11
ENDBRANCH   1   5
BRANCH   2  18
HETATM   18  C   UNL     1     -34.322  41.449 -51.471  1.00  0.00     0.123 C 
BRANCH  18  19
HETATM   19  C   UNL     1     -32.861  41.030 -51.381  1.00  0.00     0.132 C 
BRANCH  19  20
HETATM   20  N   UNL     1     -32.158  40.684 -52.606  1.00  0.00    -0.355 N 
HETATM   21  C   UNL     1     -31.841  39.410 -53.025  1.00  0.00     0.275 C 
HETATM   22  O   UNL     1     -31.838  38.444 -52.266  1.00  0.00    -0.265 OA
HETATM   23  H   UNL     1     -32.160  41.381 -53.344  1.00  0.00     0.162 HD
BRANCH  21  24
HETATM   24  C   UNL     1     -31.492  39.321 -54.427  1.00  0.00     0.142 A 
HETATM   25  O   UNL     1     -31.768  40.376 -55.260  1.00  0.00    -0.317 OA
HETATM   26  C   UNL     1     -31.355  40.022 -56.505  1.00  0.00     0.143 A 
HETATM   27  C   UNL     1     -30.819  38.756 -56.494  1.00  0.00     0.027 A 
HETATM   28  C   UNL     1     -30.907  38.302 -55.156  1.00  0.00     0.045 A 
ENDBRANCH  21  24
ENDBRANCH  19  20
ENDBRANCH  18  19
ENDBRANCH   2  18
TORSDOF 7
ENDMDL
MODEL 6
REMARK VINA RESULT:      -7.3      1.678      2.488
REMARK  7 active torsions:
REMARK  status: ('A' for Active; 'I' for Inactive)
REMARK    1  A    between atoms: C_4  and  O_5 
REMARK    2  A    between atoms: O_5  and  C_6 
REMARK    3  A    between atoms: C_9  and  N_10 
REMARK       I    between atoms: N_10  and  C_11 
REMARK    4  A    between atoms: C_11  and  C_12 
REMARK    5  A    between atoms: C_12  and  C_13 
REMARK    6  A    between atoms: C_13  and  N_14 
REMARK       I    between atoms: N_14  and  C_15 
REMARK    7  A    between atoms: C_15  and  C_16 
ROOT
HETATM    1  N   UNL     1     -43.556  56.032 -56.029  1.00  0.00    -0.327 N 
HETATM    2  C   UNL     1     -43.797  57.383 -56.185  1.00  0.00     0.223 C 
HETATM    3  O   UNL     1     -43.239  58.305 -55.600  1.00  0.00    -0.273 OA
HETATM    4  H   UNL     1     -44.038  55.415 -56.684  1.00  0.00     0.169 HD
ENDROOT
BRANCH   1   5
HETATM    5  C   UNL     1     -42.670  55.414 -55.125  1.00  0.00     0.034 A 
HETATM    6  C   UNL     1     -41.281  55.515 -55.206  1.00  0.00     0.032 A 
HETATM    7  C   UNL     1     -40.468  54.877 -54.262  1.00  0.00     0.039 A 
HETATM    8  C   UNL     1     -41.035  54.135 -53.225  1.00  0.00     0.076 A 
HETATM    9  C   UNL     1     -42.422  54.017 -53.147  1.00  0.00     0.039 A 
HETATM   10  C   UNL     1     -43.234  54.665 -54.086  1.00  0.00     0.032 A 
BRANCH   8  11
HETATM   11  O   UNL     1     -40.138  53.514 -52.383  1.00  0.00    -0.311 OA
BRANCH  11  12
HETATM   12  C   UNL     1     -39.922  52.168 -52.537  1.00  0.00     0.076 A 
HETATM   13  C   UNL     1     -39.766  51.400 -51.382  1.00  0.00     0.037 A 
HETATM   14  C   UNL     1     -39.591  50.020 -51.487  1.00  0.00     0.003 A 
HETATM   15  C   UNL     1     -39.590  49.412 -52.742  1.00  0.00     0.000 A 
HETATM   16  C   UNL     1     -39.773  50.179 -53.895  1.00  0.00     0.003 A 
HETATM   17  C   UNL     1     -39.951  51.560 -53.793  1.00  0.00     0.037 A 
ENDBRANCH  11  12
ENDBRANCH   8  11
ENDBRANCH   1   5
BRANCH   2  18
HETATM   18  C   UNL     1     -44.860  57.669 -57.222  1.00  0.00     0.123 C 
BRANCH  18  19
HETATM   19  C   UNL     1     -44.310  57.615 -58.641  1.00  0.00     0.132 C 
BRANCH  19  20
HETATM   20  N   UNL     1     -45.242  57.695 -59.754  1.00  0.00    -0.355 N 
HETATM   21  C   UNL     1     -46.028  56.666 -60.226  1.00  0.00     0.275 C 
HETATM   22  O   UNL     1     -45.803  55.487 -59.965  1.00  0.00    -0.265 OA
HETATM   23  H   UNL     1     -45.564  58.622 -60.014  1.00  0.00     0.162 HD
BRANCH  21  24
HETATM   24  C   UNL     1     -47.121  57.099 -61.072  1.00  0.00     0.142 A 
HETATM   25  O   UNL     1     -47.722  56.196 -61.912  1.00  0.00    -0.317 OA
HETATM   26  C   UNL     1     -48.692  56.864 -62.591  1.00  0.00     0.143 A 
HETATM   27  C   UNL     1     -48.727  58.183 -62.206  1.00  0.00     0.027 A 
HETATM   28  C   UNL     1     -47.715  58.336 -61.228  1.00  0.00     0.045 A 
ENDBRANCH  21  24
ENDBRANCH  19  20
ENDBRANCH  18  19
ENDBRANCH   2  18
TORSDOF 7
ENDMDL
MODEL 7
REMARK VINA RESULT:      -7.2      1.415      2.092
REMARK  7 active torsions:
REMARK  status: ('A' for Active; 'I' for Inactive)
REMARK    1  A    between atoms: C_4  and  O_5 
REMARK    2  A    between atoms: O_5  and  C_6 
REMARK    3  A    between atoms: C_9  and  N_10 
REMARK       I    between atoms: N_10  and  C_11 
REMARK    4  A    between atoms: C_11  and  C_12 
REMARK    5  A    between atoms: C_12  and  C_13 
REMARK    6  A    between atoms: C_13  and  N_14 
REMARK       I    between atoms: N_14  and  C_15 
REMARK    7  A    between atoms: C_15  and  C_16 
ROOT
HETATM    1  N   UNL     1     -43.116  56.861 -54.613  1.00  0.00    -0.327 N 
HETATM    2  C   UNL     1     -43.239  57.816 -55.604  1.00  0.00     0.223 C 
HETATM    3  O   UNL     1     -42.694  57.814 -56.703  1.00  0.00    -0.273 OA
HETATM    4  H   UNL     1     -43.733  56.973 -53.809  1.00  0.00     0.169 HD
ENDROOT
BRANCH   1   5
HETATM    5  C   UNL     1     -42.296  55.716 -54.618  1.00  0.00     0.034 A 
HETATM    6  C   UNL     1     -40.904  55.756 -54.706  1.00  0.00     0.032 A 
HETATM    7  C   UNL     1     -40.160  54.571 -54.696  1.00  0.00     0.039 A 
HETATM    8  C   UNL     1     -40.797  53.334 -54.593  1.00  0.00     0.076 A 
HETATM    9  C   UNL     1     -42.189  53.285 -54.520  1.00  0.00     0.039 A 
HETATM   10  C   UNL     1     -42.932  54.472 -54.519  1.00  0.00     0.032 A 
BRANCH   8  11
HETATM   11  O   UNL     1     -39.967  52.235 -54.639  1.00  0.00    -0.311 OA
BRANCH  11  12
HETATM   12  C   UNL     1     -39.815  51.484 -53.501  1.00  0.00     0.076 A 
HETATM   13  C   UNL     1     -39.877  52.147 -52.275  1.00  0.00     0.037 A 
HETATM   14  C   UNL     1     -39.774  51.420 -51.089  1.00  0.00     0.003 A 
HETATM   15  C   UNL     1     -39.627  50.033 -51.133  1.00  0.00     0.000 A 
HETATM   16  C   UNL     1     -39.591  49.369 -52.361  1.00  0.00     0.003 A 
HETATM   17  C   UNL     1     -39.696  50.094 -53.549  1.00  0.00     0.037 A 
ENDBRANCH  11  12
ENDBRANCH   8  11
ENDBRANCH   1   5
BRANCH   2  18
HETATM   18  C   UNL     1     -44.179  58.936 -55.220  1.00  0.00     0.123 C 
BRANCH  18  19
HETATM   19  C   UNL     1     -45.486  58.884 -56.000  1.00  0.00     0.132 C 
BRANCH  19  20
HETATM   20  N   UNL     1     -45.623  57.902 -57.063  1.00  0.00    -0.355 N 
HETATM   21  C   UNL     1     -46.261  58.099 -58.270  1.00  0.00     0.275 C 
HETATM   22  O   UNL     1     -47.053  59.019 -58.458  1.00  0.00    -0.265 OA
HETATM   23  H   UNL     1     -44.966  57.128 -57.057  1.00  0.00     0.162 HD
BRANCH  21  24
HETATM   24  C   UNL     1     -45.931  57.114 -59.279  1.00  0.00     0.142 A 
HETATM   25  O   UNL     1     -46.923  56.616 -60.085  1.00  0.00    -0.317 OA
HETATM   26  C   UNL     1     -46.345  55.712 -60.919  1.00  0.00     0.143 A 
HETATM   27  C   UNL     1     -44.998  55.614 -60.665  1.00  0.00     0.027 A 
HETATM   28  C   UNL     1     -44.729  56.516 -59.608  1.00  0.00     0.045 A 
ENDBRANCH  21  24
ENDBRANCH  19  20
ENDBRANCH  18  19
ENDBRANCH   2  18
TORSDOF 7
ENDMDL
MODEL 8
REMARK VINA RESULT:      -7.0      5.167      7.835
REMARK  7 active torsions:
REMARK  status: ('A' for Active; 'I' for Inactive)
REMARK    1  A    between atoms: C_4  and  O_5 
REMARK    2  A    between atoms: O_5  and  C_6 
REMARK    3  A    between atoms: C_9  and  N_10 
REMARK       I    between atoms: N_10  and  C_11 
REMARK    4  A    between atoms: C_11  and  C_12 
REMARK    5  A    between atoms: C_12  and  C_13 
REMARK    6  A    between atoms: C_13  and  N_14 
REMARK       I    between atoms: N_14  and  C_15 
REMARK    7  A    between atoms: C_15  and  C_16 
ROOT
HETATM    1  N   UNL     1     -43.138  57.551 -51.291  1.00  0.00    -0.327 N 
HETATM    2  C   UNL     1     -44.485  57.853 -51.236  1.00  0.00     0.223 C 
HETATM    3  O   UNL     1     -45.378  57.160 -50.759  1.00  0.00    -0.273 OA
HETATM    4  H   UNL     1     -42.528  58.298 -51.622  1.00  0.00     0.169 HD
ENDROOT
BRANCH   1   5
HETATM    5  C   UNL     1     -42.504  56.365 -50.874  1.00  0.00     0.034 A 
HETATM    6  C   UNL     1     -43.080  55.098 -50.975  1.00  0.00     0.032 A 
HETATM    7  C   UNL     1     -42.379  53.966 -50.545  1.00  0.00     0.039 A 
HETATM    8  C   UNL     1     -41.094  54.086 -50.013  1.00  0.00     0.076 A 
HETATM    9  C   UNL     1     -40.518  55.351 -49.895  1.00  0.00     0.039 A 
HETATM   10  C   UNL     1     -41.216  56.482 -50.336  1.00  0.00     0.032 A 
BRANCH   8  11
HETATM   11  O   UNL     1     -40.520  52.910 -49.581  1.00  0.00    -0.311 OA
BRANCH  11  12
HETATM   12  C   UNL     1     -40.229  51.945 -50.512  1.00  0.00     0.076 A 
HETATM   13  C   UNL     1     -39.827  52.369 -51.779  1.00  0.00     0.037 A 
HETATM   14  C   UNL     1     -39.476  51.425 -52.745  1.00  0.00     0.003 A 
HETATM   15  C   UNL     1     -39.512  50.065 -52.436  1.00  0.00     0.000 A 
HETATM   16  C   UNL     1     -39.890  49.645 -51.158  1.00  0.00     0.003 A 
HETATM   17  C   UNL     1     -40.239  50.587 -50.189  1.00  0.00     0.037 A 
ENDBRANCH  11  12
ENDBRANCH   8  11
ENDBRANCH   1   5
BRANCH   2  18
HETATM   18  C   UNL     1     -44.803  59.208 -51.828  1.00  0.00     0.123 C 
BRANCH  18  19
HETATM   19  C   UNL     1     -45.662  60.055 -50.900  1.00  0.00     0.132 C 
BRANCH  19  20
HETATM   20  N   UNL     1     -45.350  60.068 -49.480  1.00  0.00    -0.355 N 
HETATM   21  C   UNL     1     -45.466  61.151 -48.636  1.00  0.00     0.275 C 
HETATM   22  O   UNL     1     -45.546  62.306 -49.047  1.00  0.00    -0.265 OA
HETATM   23  H   UNL     1     -45.332  59.168 -49.009  1.00  0.00     0.162 HD
BRANCH  21  24
HETATM   24  C   UNL     1     -45.460  60.806 -47.229  1.00  0.00     0.142 A 
HETATM   25  O   UNL     1     -44.553  61.406 -46.392  1.00  0.00    -0.317 OA
HETATM   26  C   UNL     1     -44.756  60.895 -45.150  1.00  0.00     0.143 A 
HETATM   27  C   UNL     1     -45.775  59.973 -45.168  1.00  0.00     0.027 A 
HETATM   28  C   UNL     1     -46.229  59.914 -46.508  1.00  0.00     0.045 A 
ENDBRANCH  21  24
ENDBRANCH  19  20
ENDBRANCH  18  19
ENDBRANCH   2  18
TORSDOF 7
ENDMDL
MODEL 9
REMARK VINA RESULT:      -7.0      2.665      8.011
REMARK  7 active torsions:
REMARK  status: ('A' for Active; 'I' for Inactive)
REMARK    1  A    between atoms: C_4  and  O_5 
REMARK    2  A    between atoms: O_5  and  C_6 
REMARK    3  A    between atoms: C_9  and  N_10 
REMARK       I    between atoms: N_10  and  C_11 
REMARK    4  A    between atoms: C_11  and  C_12 
REMARK    5  A    between atoms: C_12  and  C_13 
REMARK    6  A    between atoms: C_13  and  N_14 
REMARK       I    between atoms: N_14  and  C_15 
REMARK    7  A    between atoms: C_15  and  C_16 
ROOT
HETATM    1  N   UNL     1     -42.745  55.651 -50.916  1.00  0.00    -0.327 N 
HETATM    2  C   UNL     1     -41.511  55.949 -50.372  1.00  0.00     0.223 C 
HETATM    3  O   UNL     1     -40.661  56.703 -50.837  1.00  0.00    -0.273 OA
HETATM    4  H   UNL     1     -43.366  55.092 -50.331  1.00  0.00     0.169 HD
ENDROOT
BRANCH   1   5
HETATM    5  C   UNL     1     -43.273  56.090 -52.146  1.00  0.00     0.034 A 
HETATM    6  C   UNL     1     -43.175  55.367 -53.336  1.00  0.00     0.032 A 
HETATM    7  C   UNL     1     -43.734  55.870 -54.516  1.00  0.00     0.039 A 
HETATM    8  C   UNL     1     -44.400  57.096 -54.521  1.00  0.00     0.076 A 
HETATM    9  C   UNL     1     -44.488  57.831 -53.338  1.00  0.00     0.039 A 
HETATM   10  C   UNL     1     -43.938  57.322 -52.155  1.00  0.00     0.032 A 
BRANCH   8  11
HETATM   11  O   UNL     1     -44.870  57.511 -55.748  1.00  0.00    -0.311 OA
BRANCH  11  12
HETATM   12  C   UNL     1     -43.960  57.760 -56.744  1.00  0.00     0.076 A 
HETATM   13  C   UNL     1     -43.086  58.833 -56.570  1.00  0.00     0.037 A 
HETATM   14  C   UNL     1     -42.112  59.097 -57.534  1.00  0.00     0.003 A 
HETATM   15  C   UNL     1     -42.006  58.278 -58.658  1.00  0.00     0.000 A 
HETATM   16  C   UNL     1     -42.865  57.188 -58.817  1.00  0.00     0.003 A 
HETATM   17  C   UNL     1     -43.839  56.921 -57.853  1.00  0.00     0.037 A 
ENDBRANCH  11  12
ENDBRANCH   8  11
ENDBRANCH   1   5
BRANCH   2  18
HETATM   18  C   UNL     1     -41.272  55.250 -49.053  1.00  0.00     0.123 C 
BRANCH  18  19
HETATM   19  C   UNL     1     -40.082  54.301 -49.112  1.00  0.00     0.132 C 
BRANCH  19  20
HETATM   20  N   UNL     1     -39.800  53.614 -50.362  1.00  0.00    -0.355 N 
HETATM   21  C   UNL     1     -40.219  52.346 -50.701  1.00  0.00     0.275 C 
HETATM   22  O   UNL     1     -40.611  51.533 -49.868  1.00  0.00    -0.265 OA
HETATM   23  H   UNL     1     -39.539  54.196 -51.152  1.00  0.00     0.162 HD
BRANCH  21  24
HETATM   24  C   UNL     1     -40.132  52.055 -52.117  1.00  0.00     0.142 A 
HETATM   25  O   UNL     1     -39.484  50.919 -52.533  1.00  0.00    -0.317 OA
HETATM   26  C   UNL     1     -39.537  50.902 -53.891  1.00  0.00     0.143 A 
HETATM   27  C   UNL     1     -40.206  52.008 -54.361  1.00  0.00     0.027 A 
HETATM   28  C   UNL     1     -40.588  52.752 -53.219  1.00  0.00     0.045 A 
ENDBRANCH  21  24
ENDBRANCH  19  20
ENDBRANCH  18  19
ENDBRANCH   2  18
TORSDOF 7
ENDMDL
MODEL 10
REMARK VINA RESULT:      -7.0     14.979     19.483
REMARK  7 active torsions:
REMARK  status: ('A' for Active; 'I' for Inactive)
REMARK    1  A    between atoms: C_4  and  O_5 
REMARK    2  A    between atoms: O_5  and  C_6 
REMARK    3  A    between atoms: C_9  and  N_10 
REMARK       I    between atoms: N_10  and  C_11 
REMARK    4  A    between atoms: C_11  and  C_12 
REMARK    5  A    between atoms: C_12  and  C_13 
REMARK    6  A    between atoms: C_13  and  N_14 
REMARK       I    between atoms: N_14  and  C_15 
REMARK    7  A    between atoms: C_15  and  C_16 
ROOT
HETATM    1  N   UNL     1     -35.181  38.929 -49.595  1.00  0.00    -0.327 N 
HETATM    2  C   UNL     1     -35.963  38.700 -48.480  1.00  0.00     0.223 C 
HETATM    3  O   UNL     1     -37.020  39.253 -48.194  1.00  0.00    -0.273 OA
HETATM    4  H   UNL     1     -34.393  38.294 -49.724  1.00  0.00     0.169 HD
ENDROOT
BRANCH   1   5
HETATM    5  C   UNL     1     -35.386  39.884 -50.609  1.00  0.00     0.034 A 
HETATM    6  C   UNL     1     -34.620  41.041 -50.755  1.00  0.00     0.032 A 
HETATM    7  C   UNL     1     -34.882  41.938 -51.797  1.00  0.00     0.039 A 
HETATM    8  C   UNL     1     -35.910  41.687 -52.707  1.00  0.00     0.076 A 
HETATM    9  C   UNL     1     -36.690  40.540 -52.558  1.00  0.00     0.039 A 
HETATM   10  C   UNL     1     -36.419  39.638 -51.522  1.00  0.00     0.032 A 
BRANCH   8  11
HETATM   11  O   UNL     1     -36.107  42.660 -53.662  1.00  0.00    -0.311 OA
BRANCH  11  12
HETATM   12  C   UNL     1     -36.038  42.300 -54.984  1.00  0.00     0.076 A 
HETATM   13  C   UNL     1     -37.226  42.288 -55.715  1.00  0.00     0.037 A 
HETATM   14  C   UNL     1     -37.200  41.973 -57.074  1.00  0.00     0.003 A 
HETATM   15  C   UNL     1     -35.986  41.690 -57.699  1.00  0.00     0.000 A 
HETATM   16  C   UNL     1     -34.794  41.728 -56.972  1.00  0.00     0.003 A 
HETATM   17  C   UNL     1     -34.817  42.044 -55.612  1.00  0.00     0.037 A 
ENDBRANCH  11  12
ENDBRANCH   8  11
ENDBRANCH   1   5
BRANCH   2  18
HETATM   18  C   UNL     1     -35.396  37.624 -47.581  1.00  0.00     0.123 C 
BRANCH  18  19
HETATM   19  C   UNL     1     -33.998  37.196 -48.006  1.00  0.00     0.132 C 
BRANCH  19  20
HETATM   20  N   UNL     1     -32.854  37.767 -47.313  1.00  0.00    -0.355 N 
HETATM   21  C   UNL     1     -31.973  38.692 -47.832  1.00  0.00     0.275 C 
HETATM   22  O   UNL     1     -31.868  38.904 -49.037  1.00  0.00    -0.265 OA
HETATM   23  H   UNL     1     -32.865  37.721 -46.299  1.00  0.00     0.162 HD
BRANCH  21  24
HETATM   24  C   UNL     1     -31.171  39.368 -46.833  1.00  0.00     0.142 A 
HETATM   25  O   UNL     1     -30.411  40.450 -47.197  1.00  0.00    -0.317 OA
HETATM   26  C   UNL     1     -29.758  40.874 -46.083  1.00  0.00     0.143 A 
HETATM   27  C   UNL     1     -30.080  40.084 -45.006  1.00  0.00     0.027 A 
HETATM   28  C   UNL     1     -30.990  39.112 -45.487  1.00  0.00     0.045 A 
ENDBRANCH  21  24
ENDBRANCH  19  20
ENDBRANCH  18  19
ENDBRANCH   2  18
TORSDOF 7
ENDMDL
