MODEL 1
REMARK VINA RESULT:      -9.0      0.000      0.000
REMARK  6 active torsions:
REMARK  status: ('A' for Active; 'I' for Inactive)
REMARK    1  A    between atoms: C_2  and  C_3 
REMARK    2  A    between atoms: C_3  and  N_4 
REMARK    3  A    between atoms: N_8  and  C_10 
REMARK    4  A    between atoms: C_10  and  C_11 
REMARK    5  A    between atoms: C_11  and  C_12 
REMARK    6  A    between atoms: C_20  and  N_21 
ROOT
HETATM    1  N   UNL     1     -42.305  55.151 -51.433  1.00  0.00    -0.064 N 
HETATM    2  H   UNL     1     -42.147  54.680 -50.527  1.00  0.00     0.280 HD
HETATM    3  C   UNL     1     -43.366  54.348 -52.170  1.00  0.00     0.263 C 
HETATM    4  C   UNL     1     -43.858  55.071 -53.454  1.00  0.00     0.262 C 
HETATM    5  N   UNL     1     -44.268  56.526 -53.197  1.00  0.00    -0.068 N 
HETATM    6  H   UNL     1     -45.165  56.522 -52.682  1.00  0.00     0.280 HD
HETATM    7  C   UNL     1     -43.255  57.316 -52.349  1.00  0.00     0.262 C 
HETATM    8  C   UNL     1     -42.823  56.541 -51.087  1.00  0.00     0.263 C 
ENDROOT
BRANCH   5   9
HETATM    9  C   UNL     1     -44.543  57.309 -54.492  1.00  0.00     0.238 C 
BRANCH   9  10
HETATM   10  C   UNL     1     -43.402  58.259 -54.827  1.00  0.00     0.070 C 
BRANCH  10  11
HETATM   11  C   UNL     1     -43.647  58.953 -56.181  1.00  0.00     0.222 C 
HETATM   12  O   UNL     1     -44.440  58.075 -56.963  1.00  0.00    -0.334 OA
HETATM   13  C   UNL     1     -43.827  57.538 -58.059  1.00  0.00     0.099 A 
HETATM   14  C   UNL     1     -42.570  57.930 -58.526  1.00  0.00     0.068 A 
HETATM   15  C   UNL     1     -44.542  56.542 -58.723  1.00  0.00     0.075 A 
HETATM   16  N   UNL     1     -41.848  58.914 -57.851  1.00  0.00    -0.323 N 
HETATM   17  C   UNL     1     -42.021  57.333 -59.661  1.00  0.00     0.035 A 
HETATM   18  C   UNL     1     -42.299  59.476 -56.696  1.00  0.00     0.251 C 
HETATM   19  H   UNL     1     -40.949  59.231 -58.202  1.00  0.00     0.169 HD
HETATM   20  O   UNL     1     -41.642  60.293 -56.057  1.00  0.00    -0.270 OA
HETATM   21  C   UNL     1     -42.724  56.321 -60.326  1.00  0.00     0.038 A 
HETATM   22  C   UNL     1     -43.981  55.927 -59.849  1.00  0.00     0.105 A 
BRANCH  22  23
HETATM   23  N   UNL     1     -44.710  54.838 -60.508  1.00  0.00    -0.116 N 
HETATM   24  O   UNL     1     -45.058  53.881 -59.800  1.00  0.00    -0.532 OA
HETATM   25  O   UNL     1     -44.906  54.931 -61.725  1.00  0.00    -0.532 OA
ENDBRANCH  22  23
ENDBRANCH  10  11
ENDBRANCH   9  10
ENDBRANCH   5   9
BRANCH   1  26
HETATM   26  C   UNL     1     -40.940  55.090 -52.116  1.00  0.00     0.273 C 
BRANCH  26  27
HETATM   27  C   UNL     1     -40.563  53.727 -52.620  1.00  0.00    -0.030 A 
HETATM   28  C   UNL     1     -40.514  53.472 -54.013  1.00  0.00     0.012 A 
HETATM   29  C   UNL     1     -40.144  52.214 -54.502  1.00  0.00     0.040 A 
HETATM   30  C   UNL     1     -39.838  51.234 -53.587  1.00  0.00     0.105 A 
HETATM   31  C   UNL     1     -39.892  51.467 -52.236  1.00  0.00     0.105 A 
HETATM   32  O   UNL     1     -39.466  49.962 -53.879  1.00  0.00    -0.323 OA
HETATM   33  C   UNL     1     -40.250  52.695 -51.719  1.00  0.00     0.048 A 
HETATM   34  O   UNL     1     -39.560  50.371 -51.507  1.00  0.00    -0.323 OA
HETATM   35  C   UNL     1     -39.346  49.396 -52.556  1.00  0.00     0.352 A 
ENDBRANCH  26  27
ENDBRANCH   1  26
TORSDOF 6
ENDMDL
MODEL 2
REMARK VINA RESULT:      -9.0      2.537      8.695
REMARK  6 active torsions:
REMARK  status: ('A' for Active; 'I' for Inactive)
REMARK    1  A    between atoms: C_2  and  C_3 
REMARK    2  A    between atoms: C_3  and  N_4 
REMARK    3  A    between atoms: N_8  and  C_10 
REMARK    4  A    between atoms: C_10  and  C_11 
REMARK    5  A    between atoms: C_11  and  C_12 
REMARK    6  A    between atoms: C_20  and  N_21 
ROOT
HETATM    1  N   UNL     1     -42.262  55.198 -56.047  1.00  0.00    -0.064 N 
HETATM    2  H   UNL     1     -42.221  54.553 -56.853  1.00  0.00     0.280 HD
HETATM    3  C   UNL     1     -43.346  54.673 -55.116  1.00  0.00     0.263 C 
HETATM    4  C   UNL     1     -43.362  55.426 -53.758  1.00  0.00     0.262 C 
HETATM    5  N   UNL     1     -41.979  55.496 -53.100  1.00  0.00    -0.068 N 
HETATM    6  H   UNL     1     -41.745  54.555 -52.739  1.00  0.00     0.280 HD
HETATM    7  C   UNL     1     -40.854  55.913 -54.064  1.00  0.00     0.262 C 
HETATM    8  C   UNL     1     -40.894  55.115 -55.384  1.00  0.00     0.263 C 
ENDROOT
BRANCH   5   9
HETATM    9  C   UNL     1     -41.945  56.424 -51.874  1.00  0.00     0.238 C 
BRANCH   9  10
HETATM   10  C   UNL     1     -42.019  55.639 -50.571  1.00  0.00     0.070 C 
BRANCH  10  11
HETATM   11  C   UNL     1     -40.644  55.039 -50.215  1.00  0.00     0.222 C 
HETATM   12  O   UNL     1     -40.203  54.306 -51.345  1.00  0.00    -0.334 OA
HETATM   13  C   UNL     1     -40.136  52.951 -51.187  1.00  0.00     0.099 A 
HETATM   14  C   UNL     1     -40.305  52.296 -49.964  1.00  0.00     0.068 A 
HETATM   15  C   UNL     1     -39.875  52.220 -52.343  1.00  0.00     0.075 A 
HETATM   16  N   UNL     1     -40.582  53.027 -48.810  1.00  0.00    -0.323 N 
HETATM   17  C   UNL     1     -40.212  50.905 -49.890  1.00  0.00     0.035 A 
HETATM   18  C   UNL     1     -40.761  54.377 -48.835  1.00  0.00     0.251 C 
HETATM   19  H   UNL     1     -40.673  52.564 -47.911  1.00  0.00     0.169 HD
HETATM   20  O   UNL     1     -41.073  55.022 -47.838  1.00  0.00    -0.270 OA
HETATM   21  C   UNL     1     -39.966  50.161 -51.050  1.00  0.00     0.038 A 
HETATM   22  C   UNL     1     -39.804  50.822 -52.274  1.00  0.00     0.105 A 
BRANCH  22  23
HETATM   23  N   UNL     1     -39.590  50.053 -53.504  1.00  0.00    -0.116 N 
HETATM   24  O   UNL     1     -39.118  48.913 -53.382  1.00  0.00    -0.532 OA
HETATM   25  O   UNL     1     -39.867  50.598 -54.578  1.00  0.00    -0.532 OA
ENDBRANCH  22  23
ENDBRANCH  10  11
ENDBRANCH   9  10
ENDBRANCH   5   9
BRANCH   1  26
HETATM   26  C   UNL     1     -42.628  56.541 -56.677  1.00  0.00     0.273 C 
BRANCH  26  27
HETATM   27  C   UNL     1     -43.580  56.441 -57.833  1.00  0.00    -0.030 A 
HETATM   28  C   UNL     1     -43.433  55.406 -58.789  1.00  0.00     0.012 A 
HETATM   29  C   UNL     1     -44.323  55.283 -59.861  1.00  0.00     0.040 A 
HETATM   30  C   UNL     1     -45.339  56.205 -59.961  1.00  0.00     0.105 A 
HETATM   31  C   UNL     1     -45.484  57.218 -59.046  1.00  0.00     0.105 A 
HETATM   32  O   UNL     1     -46.286  56.243 -60.931  1.00  0.00    -0.323 OA
HETATM   33  C   UNL     1     -44.627  57.368 -57.976  1.00  0.00     0.048 A 
HETATM   34  O   UNL     1     -46.543  58.021 -59.327  1.00  0.00    -0.323 OA
HETATM   35  C   UNL     1     -47.017  57.433 -60.562  1.00  0.00     0.352 A 
ENDBRANCH  26  27
ENDBRANCH   1  26
TORSDOF 6
ENDMDL
MODEL 3
REMARK VINA RESULT:      -8.9      1.937      2.310
REMARK  6 active torsions:
REMARK  status: ('A' for Active; 'I' for Inactive)
REMARK    1  A    between atoms: C_2  and  C_3 
REMARK    2  A    between atoms: C_3  and  N_4 
REMARK    3  A    between atoms: N_8  and  C_10 
REMARK    4  A    between atoms: C_10  and  C_11 
REMARK    5  A    between atoms: C_11  and  C_12 
REMARK    6  A    between atoms: C_20  and  N_21 
ROOT
HETATM    1  N   UNL     1     -41.600  55.568 -52.334  1.00  0.00    -0.064 N 
HETATM    2  H   UNL     1     -41.236  55.058 -51.513  1.00  0.00     0.280 HD
HETATM    3  C   UNL     1     -43.105  55.343 -52.362  1.00  0.00     0.263 C 
HETATM    4  C   UNL     1     -43.808  56.236 -53.421  1.00  0.00     0.262 C 
HETATM    5  N   UNL     1     -43.418  57.714 -53.306  1.00  0.00    -0.068 N 
HETATM    6  H   UNL     1     -43.874  58.104 -52.463  1.00  0.00     0.280 HD
HETATM    7  C   UNL     1     -41.904  57.946 -53.157  1.00  0.00     0.262 C 
HETATM    8  C   UNL     1     -41.278  57.035 -52.082  1.00  0.00     0.263 C 
ENDROOT
BRANCH   5   9
HETATM    9  C   UNL     1     -43.933  58.563 -54.480  1.00  0.00     0.238 C 
BRANCH   9  10
HETATM   10  C   UNL     1     -44.592  57.703 -55.550  1.00  0.00     0.070 C 
BRANCH  10  11
HETATM   11  C   UNL     1     -43.847  57.833 -56.893  1.00  0.00     0.222 C 
HETATM   12  O   UNL     1     -44.799  58.248 -57.859  1.00  0.00    -0.334 OA
HETATM   13  C   UNL     1     -45.098  57.335 -58.829  1.00  0.00     0.099 A 
HETATM   14  C   UNL     1     -44.413  56.130 -59.010  1.00  0.00     0.068 A 
HETATM   15  C   UNL     1     -46.158  57.672 -59.669  1.00  0.00     0.075 A 
HETATM   16  N   UNL     1     -43.364  55.786 -58.159  1.00  0.00    -0.323 N 
HETATM   17  C   UNL     1     -44.781  55.257 -60.035  1.00  0.00     0.035 A 
HETATM   18  C   UNL     1     -43.013  56.562 -57.096  1.00  0.00     0.251 C 
HETATM   19  H   UNL     1     -42.838  54.930 -58.303  1.00  0.00     0.169 HD
HETATM   20  O   UNL     1     -42.136  56.235 -56.300  1.00  0.00    -0.270 OA
HETATM   21  C   UNL     1     -45.854  55.579 -60.874  1.00  0.00     0.038 A 
HETATM   22  C   UNL     1     -46.541  56.785 -60.683  1.00  0.00     0.105 A 
BRANCH  22  23
HETATM   23  N   UNL     1     -47.695  57.116 -61.526  1.00  0.00    -0.116 N 
HETATM   24  O   UNL     1     -48.105  56.233 -62.295  1.00  0.00    -0.532 OA
HETATM   25  O   UNL     1     -48.165  58.255 -61.436  1.00  0.00    -0.532 OA
ENDBRANCH  22  23
ENDBRANCH  10  11
ENDBRANCH   9  10
ENDBRANCH   5   9
BRANCH   1  26
HETATM   26  C   UNL     1     -40.885  54.913 -53.515  1.00  0.00     0.273 C 
BRANCH  26  27
HETATM   27  C   UNL     1     -40.532  53.470 -53.298  1.00  0.00    -0.030 A 
HETATM   28  C   UNL     1     -40.400  52.596 -54.405  1.00  0.00     0.012 A 
HETATM   29  C   UNL     1     -40.050  51.253 -54.226  1.00  0.00     0.040 A 
HETATM   30  C   UNL     1     -39.848  50.808 -52.940  1.00  0.00     0.105 A 
HETATM   31  C   UNL     1     -39.985  51.644 -51.859  1.00  0.00     0.105 A 
HETATM   32  O   UNL     1     -39.511  49.545 -52.579  1.00  0.00    -0.323 OA
HETATM   33  C   UNL     1     -40.325  52.973 -51.999  1.00  0.00     0.048 A 
HETATM   34  O   UNL     1     -39.750  51.010 -50.682  1.00  0.00    -0.323 OA
HETATM   35  C   UNL     1     -39.506  49.658 -51.139  1.00  0.00     0.352 A 
ENDBRANCH  26  27
ENDBRANCH   1  26
TORSDOF 6
ENDMDL
MODEL 4
REMARK VINA RESULT:      -8.6      3.664      6.292
REMARK  6 active torsions:
REMARK  status: ('A' for Active; 'I' for Inactive)
REMARK    1  A    between atoms: C_2  and  C_3 
REMARK    2  A    between atoms: C_3  and  N_4 
REMARK    3  A    between atoms: N_8  and  C_10 
REMARK    4  A    between atoms: C_10  and  C_11 
REMARK    5  A    between atoms: C_11  and  C_12 
REMARK    6  A    between atoms: C_20  and  N_21 
ROOT
HETATM    1  N   UNL     1     -42.212  54.478 -54.331  1.00  0.00    -0.064 N 
HETATM    2  H   UNL     1     -42.039  53.471 -54.177  1.00  0.00     0.280 HD
HETATM    3  C   UNL     1     -42.273  54.691 -55.836  1.00  0.00     0.263 C 
HETATM    4  C   UNL     1     -42.748  56.124 -56.203  1.00  0.00     0.262 C 
HETATM    5  N   UNL     1     -44.039  56.527 -55.480  1.00  0.00    -0.068 N 
HETATM    6  H   UNL     1     -44.823  56.003 -55.905  1.00  0.00     0.280 HD
HETATM    7  C   UNL     1     -44.033  56.206 -53.975  1.00  0.00     0.262 C 
HETATM    8  C   UNL     1     -43.564  54.764 -53.689  1.00  0.00     0.263 C 
ENDROOT
BRANCH   5   9
HETATM    9  C   UNL     1     -44.391  58.012 -55.665  1.00  0.00     0.238 C 
BRANCH   9  10
HETATM   10  C   UNL     1     -45.163  58.560 -54.473  1.00  0.00     0.070 C 
BRANCH  10  11
HETATM   11  C   UNL     1     -44.595  59.924 -54.033  1.00  0.00     0.222 C 
HETATM   12  O   UNL     1     -43.182  59.818 -54.064  1.00  0.00    -0.334 OA
HETATM   13  C   UNL     1     -42.554  59.870 -52.853  1.00  0.00     0.099 A 
HETATM   14  C   UNL     1     -43.194  60.186 -51.651  1.00  0.00     0.068 A 
HETATM   15  C   UNL     1     -41.190  59.589 -52.866  1.00  0.00     0.075 A 
HETATM   16  N   UNL     1     -44.563  60.452 -51.636  1.00  0.00    -0.323 N 
HETATM   17  C   UNL     1     -42.473  60.226 -50.457  1.00  0.00     0.035 A 
HETATM   18  C   UNL     1     -45.331  60.353 -52.756  1.00  0.00     0.251 C 
HETATM   19  H   UNL     1     -45.031  60.716 -50.774  1.00  0.00     0.169 HD
HETATM   20  O   UNL     1     -46.548  60.517 -52.741  1.00  0.00    -0.270 OA
HETATM   21  C   UNL     1     -41.106  59.929 -50.458  1.00  0.00     0.038 A 
HETATM   22  C   UNL     1     -40.471  59.606 -51.664  1.00  0.00     0.105 A 
BRANCH  22  23
HETATM   23  N   UNL     1     -39.048  59.249 -51.675  1.00  0.00    -0.116 N 
HETATM   24  O   UNL     1     -38.495  59.101 -50.575  1.00  0.00    -0.532 OA
HETATM   25  O   UNL     1     -38.489  59.147 -52.772  1.00  0.00    -0.532 OA
ENDBRANCH  22  23
ENDBRANCH  10  11
ENDBRANCH   9  10
ENDBRANCH   5   9
BRANCH   1  26
HETATM   26  C   UNL     1     -41.003  55.155 -53.689  1.00  0.00     0.273 C 
BRANCH  26  27
HETATM   27  C   UNL     1     -40.998  55.114 -52.188  1.00  0.00    -0.030 A 
HETATM   28  C   UNL     1     -41.345  56.268 -51.444  1.00  0.00     0.012 A 
HETATM   29  C   UNL     1     -41.367  56.244 -50.045  1.00  0.00     0.040 A 
HETATM   30  C   UNL     1     -41.033  55.065 -49.418  1.00  0.00     0.105 A 
HETATM   31  C   UNL     1     -40.685  53.944 -50.130  1.00  0.00     0.105 A 
HETATM   32  O   UNL     1     -40.996  54.861 -48.078  1.00  0.00    -0.323 OA
HETATM   33  C   UNL     1     -40.655  53.932 -51.509  1.00  0.00     0.048 A 
HETATM   34  O   UNL     1     -40.386  52.893 -49.325  1.00  0.00    -0.323 OA
HETATM   35  C   UNL     1     -40.528  53.496 -48.016  1.00  0.00     0.352 A 
ENDBRANCH  26  27
ENDBRANCH   1  26
TORSDOF 6
ENDMDL
MODEL 5
REMARK VINA RESULT:      -8.6      1.787      2.218
REMARK  6 active torsions:
REMARK  status: ('A' for Active; 'I' for Inactive)
REMARK    1  A    between atoms: C_2  and  C_3 
REMARK    2  A    between atoms: C_3  and  N_4 
REMARK    3  A    between atoms: N_8  and  C_10 
REMARK    4  A    between atoms: C_10  and  C_11 
REMARK    5  A    between atoms: C_11  and  C_12 
REMARK    6  A    between atoms: C_20  and  N_21 
ROOT
HETATM    1  N   UNL     1     -41.596  54.963 -51.091  1.00  0.00    -0.064 N 
HETATM    2  H   UNL     1     -41.390  54.084 -50.588  1.00  0.00     0.280 HD
HETATM    3  C   UNL     1     -43.108  55.043 -51.239  1.00  0.00     0.263 C 
HETATM    4  C   UNL     1     -43.569  56.423 -51.782  1.00  0.00     0.262 C 
HETATM    5  N   UNL     1     -42.973  57.600 -50.999  1.00  0.00    -0.068 N 
HETATM    6  H   UNL     1     -43.441  57.645 -50.079  1.00  0.00     0.280 HD
HETATM    7  C   UNL     1     -41.461  57.471 -50.741  1.00  0.00     0.262 C 
HETATM    8  C   UNL     1     -41.082  56.080 -50.192  1.00  0.00     0.263 C 
ENDROOT
BRANCH   5   9
HETATM    9  C   UNL     1     -43.244  58.960 -51.664  1.00  0.00     0.238 C 
BRANCH   9  10
HETATM   10  C   UNL     1     -42.478  59.111 -52.971  1.00  0.00     0.070 C 
BRANCH  10  11
HETATM   11  C   UNL     1     -43.386  59.686 -54.075  1.00  0.00     0.222 C 
HETATM   12  O   UNL     1     -43.616  58.645 -55.011  1.00  0.00    -0.334 OA
HETATM   13  C   UNL     1     -43.060  58.823 -56.245  1.00  0.00     0.099 A 
HETATM   14  C   UNL     1     -42.452  60.007 -56.669  1.00  0.00     0.068 A 
HETATM   15  C   UNL     1     -43.133  57.727 -57.103  1.00  0.00     0.075 A 
HETATM   16  N   UNL     1     -42.364  61.098 -55.804  1.00  0.00    -0.323 N 
HETATM   17  C   UNL     1     -41.916  60.105 -57.954  1.00  0.00     0.035 A 
HETATM   18  C   UNL     1     -42.800  61.034 -54.515  1.00  0.00     0.251 C 
HETATM   19  H   UNL     1     -41.955  61.974 -56.113  1.00  0.00     0.169 HD
HETATM   20  O   UNL     1     -42.666  61.964 -53.725  1.00  0.00    -0.270 OA
HETATM   21  C   UNL     1     -41.970  59.005 -58.817  1.00  0.00     0.038 A 
HETATM   22  C   UNL     1     -42.575  57.818 -58.385  1.00  0.00     0.105 A 
BRANCH  22  23
HETATM   23  N   UNL     1     -42.600  56.643 -59.262  1.00  0.00    -0.116 N 
HETATM   24  O   UNL     1     -43.055  55.592 -58.785  1.00  0.00    -0.532 OA
HETATM   25  O   UNL     1     -42.145  56.767 -60.404  1.00  0.00    -0.532 OA
ENDBRANCH  22  23
ENDBRANCH  10  11
ENDBRANCH   9  10
ENDBRANCH   5   9
BRANCH   1  26
HETATM   26  C   UNL     1     -40.882  54.791 -52.430  1.00  0.00     0.273 C 
BRANCH  26  27
HETATM   27  C   UNL     1     -40.533  53.370 -52.765  1.00  0.00    -0.030 A 
HETATM   28  C   UNL     1     -40.645  52.905 -54.098  1.00  0.00     0.012 A 
HETATM   29  C   UNL     1     -40.303  51.590 -54.434  1.00  0.00     0.040 A 
HETATM   30  C   UNL     1     -39.865  50.763 -53.426  1.00  0.00     0.105 A 
HETATM   31  C   UNL     1     -39.763  51.201 -52.129  1.00  0.00     0.105 A 
HETATM   32  O   UNL     1     -39.498  49.465 -53.566  1.00  0.00    -0.323 OA
HETATM   33  C   UNL     1     -40.089  52.490 -51.763  1.00  0.00     0.048 A 
HETATM   34  O   UNL     1     -39.318  50.231 -51.289  1.00  0.00    -0.323 OA
HETATM   35  C   UNL     1     -39.206  49.108 -52.197  1.00  0.00     0.352 A 
ENDBRANCH  26  27
ENDBRANCH   1  26
TORSDOF 6
ENDMDL
MODEL 6
REMARK VINA RESULT:      -8.6      2.948      9.033
REMARK  6 active torsions:
REMARK  status: ('A' for Active; 'I' for Inactive)
REMARK    1  A    between atoms: C_2  and  C_3 
REMARK    2  A    between atoms: C_3  and  N_4 
REMARK    3  A    between atoms: N_8  and  C_10 
REMARK    4  A    between atoms: C_10  and  C_11 
REMARK    5  A    between atoms: C_11  and  C_12 
REMARK    6  A    between atoms: C_20  and  N_21 
ROOT
HETATM    1  N   UNL     1     -43.475  57.981 -57.779  1.00  0.00    -0.064 N 
HETATM    2  H   UNL     1     -43.847  58.460 -58.615  1.00  0.00     0.280 HD
HETATM    3  C   UNL     1     -44.535  58.100 -56.693  1.00  0.00     0.263 C 
HETATM    4  C   UNL     1     -44.197  57.232 -55.451  1.00  0.00     0.262 C 
HETATM    5  N   UNL     1     -43.860  55.781 -55.813  1.00  0.00    -0.068 N 
HETATM    6  H   UNL     1     -44.737  55.305 -56.086  1.00  0.00     0.280 HD
HETATM    7  C   UNL     1     -42.878  55.647 -56.990  1.00  0.00     0.262 C 
HETATM    8  C   UNL     1     -43.285  56.527 -58.190  1.00  0.00     0.263 C 
ENDROOT
BRANCH   5   9
HETATM    9  C   UNL     1     -43.313  54.977 -54.622  1.00  0.00     0.238 C 
BRANCH   9  10
HETATM   10  C   UNL     1     -42.955  55.881 -53.450  1.00  0.00     0.070 C 
BRANCH  10  11
HETATM   11  C   UNL     1     -41.451  55.789 -53.126  1.00  0.00     0.222 C 
HETATM   12  O   UNL     1     -40.948  54.647 -53.801  1.00  0.00    -0.334 OA
HETATM   13  C   UNL     1     -40.545  53.615 -53.004  1.00  0.00     0.099 A 
HETATM   14  C   UNL     1     -40.443  53.692 -51.612  1.00  0.00     0.068 A 
HETATM   15  C   UNL     1     -40.220  52.432 -53.665  1.00  0.00     0.075 A 
HETATM   16  N   UNL     1     -40.785  54.870 -50.949  1.00  0.00    -0.323 N 
HETATM   17  C   UNL     1     -40.013  52.589 -50.874  1.00  0.00     0.035 A 
HETATM   18  C   UNL     1     -41.283  55.952 -51.609  1.00  0.00     0.251 C 
HETATM   19  H   UNL     1     -40.682  54.948 -49.942  1.00  0.00     0.169 HD
HETATM   20  O   UNL     1     -41.651  56.970 -51.029  1.00  0.00    -0.270 OA
HETATM   21  C   UNL     1     -39.700  51.391 -51.528  1.00  0.00     0.038 A 
HETATM   22  C   UNL     1     -39.810  51.318 -52.922  1.00  0.00     0.105 A 
BRANCH  22  23
HETATM   23  N   UNL     1     -39.528  50.058 -53.617  1.00  0.00    -0.116 N 
HETATM   24  O   UNL     1     -39.331  50.119 -54.841  1.00  0.00    -0.532 OA
HETATM   25  O   UNL     1     -39.530  49.018 -52.949  1.00  0.00    -0.532 OA
ENDBRANCH  22  23
ENDBRANCH  10  11
ENDBRANCH   9  10
ENDBRANCH   5   9
BRANCH   1  26
HETATM   26  C   UNL     1     -42.204  58.762 -57.449  1.00  0.00     0.273 C 
BRANCH  26  27
HETATM   27  C   UNL     1     -41.852  59.820 -58.454  1.00  0.00    -0.030 A 
HETATM   28  C   UNL     1     -42.188  59.644 -59.819  1.00  0.00     0.012 A 
HETATM   29  C   UNL     1     -41.888  60.628 -60.768  1.00  0.00     0.040 A 
HETATM   30  C   UNL     1     -41.249  61.766 -60.332  1.00  0.00     0.105 A 
HETATM   31  C   UNL     1     -40.910  61.942 -59.014  1.00  0.00     0.105 A 
HETATM   32  O   UNL     1     -40.879  62.816 -61.107  1.00  0.00    -0.323 OA
HETATM   33  C   UNL     1     -41.193  60.994 -58.052  1.00  0.00     0.048 A 
HETATM   34  O   UNL     1     -40.283  63.126 -58.794  1.00  0.00    -0.323 OA
HETATM   35  C   UNL     1     -40.211  63.656 -60.140  1.00  0.00     0.352 A 
ENDBRANCH  26  27
ENDBRANCH   1  26
TORSDOF 6
ENDMDL
MODEL 7
REMARK VINA RESULT:      -8.4      2.042      3.512
REMARK  6 active torsions:
REMARK  status: ('A' for Active; 'I' for Inactive)
REMARK    1  A    between atoms: C_2  and  C_3 
REMARK    2  A    between atoms: C_3  and  N_4 
REMARK    3  A    between atoms: N_8  and  C_10 
REMARK    4  A    between atoms: C_10  and  C_11 
REMARK    5  A    between atoms: C_11  and  C_12 
REMARK    6  A    between atoms: C_20  and  N_21 
ROOT
HETATM    1  N   UNL     1     -41.562  55.209 -52.264  1.00  0.00    -0.064 N 
HETATM    2  H   UNL     1     -41.287  54.658 -51.435  1.00  0.00     0.280 HD
HETATM    3  C   UNL     1     -43.035  54.924 -52.517  1.00  0.00     0.263 C 
HETATM    4  C   UNL     1     -43.633  55.859 -53.603  1.00  0.00     0.262 C 
HETATM    5  N   UNL     1     -43.339  57.341 -53.339  1.00  0.00    -0.068 N 
HETATM    6  H   UNL     1     -43.925  57.650 -52.545  1.00  0.00     0.280 HD
HETATM    7  C   UNL     1     -41.873  57.626 -52.966  1.00  0.00     0.262 C 
HETATM    8  C   UNL     1     -41.354  56.667 -51.875  1.00  0.00     0.263 C 
ENDROOT
BRANCH   5   9
HETATM    9  C   UNL     1     -43.732  58.249 -54.516  1.00  0.00     0.238 C 
BRANCH   9  10
HETATM   10  C   UNL     1     -43.903  57.457 -55.805  1.00  0.00     0.070 C 
BRANCH  10  11
HETATM   11  C   UNL     1     -42.559  57.322 -56.548  1.00  0.00     0.222 C 
HETATM   12  O   UNL     1     -42.075  58.636 -56.777  1.00  0.00    -0.334 OA
HETATM   13  C   UNL     1     -42.041  59.037 -58.082  1.00  0.00     0.099 A 
HETATM   14  C   UNL     1     -42.282  58.192 -59.169  1.00  0.00     0.068 A 
HETATM   15  C   UNL     1     -41.737  60.380 -58.293  1.00  0.00     0.075 A 
HETATM   16  N   UNL     1     -42.603  56.852 -58.957  1.00  0.00    -0.323 N 
HETATM   17  C   UNL     1     -42.218  58.685 -60.473  1.00  0.00     0.035 A 
HETATM   18  C   UNL     1     -42.755  56.335 -57.706  1.00  0.00     0.251 C 
HETATM   19  H   UNL     1     -42.746  56.222 -59.740  1.00  0.00     0.169 HD
HETATM   20  O   UNL     1     -43.104  55.174 -57.508  1.00  0.00    -0.270 OA
HETATM   21  C   UNL     1     -41.929  60.036 -60.694  1.00  0.00     0.038 A 
HETATM   22  C   UNL     1     -41.695  60.880 -59.601  1.00  0.00     0.105 A 
BRANCH  22  23
HETATM   23  N   UNL     1     -41.435  62.307 -59.815  1.00  0.00    -0.116 N 
HETATM   24  O   UNL     1     -41.585  63.060 -58.841  1.00  0.00    -0.532 OA
HETATM   25  O   UNL     1     -41.111  62.669 -60.951  1.00  0.00    -0.532 OA
ENDBRANCH  22  23
ENDBRANCH  10  11
ENDBRANCH   9  10
ENDBRANCH   5   9
BRANCH   1  26
HETATM   26  C   UNL     1     -40.660  54.671 -53.374  1.00  0.00     0.273 C 
BRANCH  26  27
HETATM   27  C   UNL     1     -40.366  53.202 -53.271  1.00  0.00    -0.030 A 
HETATM   28  C   UNL     1     -40.326  52.401 -54.438  1.00  0.00     0.012 A 
HETATM   29  C   UNL     1     -40.032  51.035 -54.366  1.00  0.00     0.040 A 
HETATM   30  C   UNL     1     -39.791  50.496 -53.123  1.00  0.00     0.105 A 
HETATM   31  C   UNL     1     -39.837  51.261 -51.985  1.00  0.00     0.105 A 
HETATM   32  O   UNL     1     -39.497  49.197 -52.864  1.00  0.00    -0.323 OA
HETATM   33  C   UNL     1     -40.121  52.610 -52.020  1.00  0.00     0.048 A 
HETATM   34  O   UNL     1     -39.576  50.539 -50.865  1.00  0.00    -0.323 OA
HETATM   35  C   UNL     1     -39.418  49.212 -51.421  1.00  0.00     0.352 A 
ENDBRANCH  26  27
ENDBRANCH   1  26
TORSDOF 6
ENDMDL
MODEL 8
REMARK VINA RESULT:      -8.3      1.353      2.066
REMARK  6 active torsions:
REMARK  status: ('A' for Active; 'I' for Inactive)
REMARK    1  A    between atoms: C_2  and  C_3 
REMARK    2  A    between atoms: C_3  and  N_4 
REMARK    3  A    between atoms: N_8  and  C_10 
REMARK    4  A    between atoms: C_10  and  C_11 
REMARK    5  A    between atoms: C_11  and  C_12 
REMARK    6  A    between atoms: C_20  and  N_21 
ROOT
HETATM    1  N   UNL     1     -42.675  55.280 -54.102  1.00  0.00    -0.064 N 
HETATM    2  H   UNL     1     -43.032  54.329 -53.916  1.00  0.00     0.280 HD
HETATM    3  C   UNL     1     -42.575  55.429 -55.613  1.00  0.00     0.263 C 
HETATM    4  C   UNL     1     -42.260  56.890 -56.036  1.00  0.00     0.262 C 
HETATM    5  N   UNL     1     -43.200  57.913 -55.386  1.00  0.00    -0.068 N 
HETATM    6  H   UNL     1     -44.127  57.830 -55.837  1.00  0.00     0.280 HD
HETATM    7  C   UNL     1     -43.401  57.699 -53.876  1.00  0.00     0.262 C 
HETATM    8  C   UNL     1     -43.722  56.229 -53.534  1.00  0.00     0.263 C 
ENDROOT
BRANCH   5   9
HETATM    9  C   UNL     1     -42.758  59.366 -55.623  1.00  0.00     0.238 C 
BRANCH   9  10
HETATM   10  C   UNL     1     -43.928  60.250 -56.036  1.00  0.00     0.070 C 
BRANCH  10  11
HETATM   11  C   UNL     1     -43.986  60.400 -57.569  1.00  0.00     0.222 C 
HETATM   12  O   UNL     1     -44.636  59.247 -58.077  1.00  0.00    -0.334 OA
HETATM   13  C   UNL     1     -43.859  58.403 -58.816  1.00  0.00     0.099 A 
HETATM   14  C   UNL     1     -42.555  58.695 -59.226  1.00  0.00     0.068 A 
HETATM   15  C   UNL     1     -44.446  57.189 -59.164  1.00  0.00     0.075 A 
HETATM   16  N   UNL     1     -41.960  59.903 -58.864  1.00  0.00    -0.323 N 
HETATM   17  C   UNL     1     -41.832  57.776 -59.989  1.00  0.00     0.035 A 
HETATM   18  C   UNL     1     -42.588  60.803 -58.058  1.00  0.00     0.251 C 
HETATM   19  H   UNL     1     -41.027  60.140 -59.185  1.00  0.00     0.169 HD
HETATM   20  O   UNL     1     -42.049  61.839 -57.676  1.00  0.00    -0.270 OA
HETATM   21  C   UNL     1     -42.409  56.546 -60.329  1.00  0.00     0.038 A 
HETATM   22  C   UNL     1     -43.714  56.257 -59.910  1.00  0.00     0.105 A 
BRANCH  22  23
HETATM   23  N   UNL     1     -44.315  54.956 -60.221  1.00  0.00    -0.116 N 
HETATM   24  O   UNL     1     -44.735  54.789 -61.376  1.00  0.00    -0.532 OA
HETATM   25  O   UNL     1     -44.389  54.123 -59.311  1.00  0.00    -0.532 OA
ENDBRANCH  22  23
ENDBRANCH  10  11
ENDBRANCH   9  10
ENDBRANCH   5   9
BRANCH   1  26
HETATM   26  C   UNL     1     -41.309  55.294 -53.418  1.00  0.00     0.273 C 
BRANCH  26  27
HETATM   27  C   UNL     1     -40.789  53.934 -53.050  1.00  0.00    -0.030 A 
HETATM   28  C   UNL     1     -40.418  53.652 -51.712  1.00  0.00     0.012 A 
HETATM   29  C   UNL     1     -39.953  52.385 -51.345  1.00  0.00     0.040 A 
HETATM   30  C   UNL     1     -39.860  51.426 -52.327  1.00  0.00     0.105 A 
HETATM   31  C   UNL     1     -40.207  51.692 -53.629  1.00  0.00     0.105 A 
HETATM   32  O   UNL     1     -39.428  50.152 -52.156  1.00  0.00    -0.323 OA
HETATM   33  C   UNL     1     -40.672  52.929 -54.025  1.00  0.00     0.048 A 
HETATM   34  O   UNL     1     -40.037  50.616 -54.440  1.00  0.00    -0.323 OA
HETATM   35  C   UNL     1     -39.484  49.653 -53.511  1.00  0.00     0.352 A 
ENDBRANCH  26  27
ENDBRANCH   1  26
TORSDOF 6
ENDMDL
MODEL 9
REMARK VINA RESULT:      -8.3      3.219      9.378
REMARK  6 active torsions:
REMARK  status: ('A' for Active; 'I' for Inactive)
REMARK    1  A    between atoms: C_2  and  C_3 
REMARK    2  A    between atoms: C_3  and  N_4 
REMARK    3  A    between atoms: N_8  and  C_10 
REMARK    4  A    between atoms: C_10  and  C_11 
REMARK    5  A    between atoms: C_11  and  C_12 
REMARK    6  A    between atoms: C_20  and  N_21 
ROOT
HETATM    1  N   UNL     1     -43.022  58.110 -60.410  1.00  0.00    -0.064 N 
HETATM    2  H   UNL     1     -42.807  58.025 -61.417  1.00  0.00     0.280 HD
HETATM    3  C   UNL     1     -44.117  57.098 -60.105  1.00  0.00     0.263 C 
HETATM    4  C   UNL     1     -44.381  56.967 -58.580  1.00  0.00     0.262 C 
HETATM    5  N   UNL     1     -43.098  56.735 -57.772  1.00  0.00    -0.068 N 
HETATM    6  H   UNL     1     -42.778  55.767 -57.946  1.00  0.00     0.280 HD
HETATM    7  C   UNL     1     -41.944  57.678 -58.156  1.00  0.00     0.262 C 
HETATM    8  C   UNL     1     -41.734  57.748 -59.683  1.00  0.00     0.263 C 
ENDROOT
BRANCH   5   9
HETATM    9  C   UNL     1     -43.322  56.825 -56.253  1.00  0.00     0.238 C 
BRANCH   9  10
HETATM   10  C   UNL     1     -42.960  55.523 -55.553  1.00  0.00     0.070 C 
BRANCH  10  11
HETATM   11  C   UNL     1     -41.477  55.521 -55.132  1.00  0.00     0.222 C 
HETATM   12  O   UNL     1     -40.971  54.222 -55.391  1.00  0.00    -0.334 OA
HETATM   13  C   UNL     1     -40.635  53.485 -54.292  1.00  0.00     0.099 A 
HETATM   14  C   UNL     1     -40.602  53.990 -52.990  1.00  0.00     0.068 A 
HETATM   15  C   UNL     1     -40.308  52.153 -54.536  1.00  0.00     0.075 A 
HETATM   16  N   UNL     1     -40.945  55.319 -52.744  1.00  0.00    -0.323 N 
HETATM   17  C   UNL     1     -40.238  53.167 -51.923  1.00  0.00     0.035 A 
HETATM   18  C   UNL     1     -41.381  56.146 -53.734  1.00  0.00     0.251 C 
HETATM   19  H   UNL     1     -40.891  55.705 -51.807  1.00  0.00     0.169 HD
HETATM   20  O   UNL     1     -41.751  57.298 -53.519  1.00  0.00    -0.270 OA
HETATM   21  C   UNL     1     -39.924  51.823 -52.156  1.00  0.00     0.038 A 
HETATM   22  C   UNL     1     -39.965  51.320 -53.462  1.00  0.00     0.105 A 
BRANCH  22  23
HETATM   23  N   UNL     1     -39.681  49.904 -53.716  1.00  0.00    -0.116 N 
HETATM   24  O   UNL     1     -39.633  49.542 -54.902  1.00  0.00    -0.532 OA
HETATM   25  O   UNL     1     -39.536  49.162 -52.739  1.00  0.00    -0.532 OA
ENDBRANCH  22  23
ENDBRANCH  10  11
ENDBRANCH   9  10
ENDBRANCH   5   9
BRANCH   1  26
HETATM   26  C   UNL     1     -43.498  59.554 -60.262  1.00  0.00     0.273 C 
BRANCH  26  27
HETATM   27  C   UNL     1     -42.424  60.582 -60.472  1.00  0.00    -0.030 A 
HETATM   28  C   UNL     1     -42.080  60.993 -61.783  1.00  0.00     0.012 A 
HETATM   29  C   UNL     1     -41.097  61.966 -61.999  1.00  0.00     0.040 A 
HETATM   30  C   UNL     1     -40.471  62.502 -60.897  1.00  0.00     0.105 A 
HETATM   31  C   UNL     1     -40.790  62.102 -59.623  1.00  0.00     0.105 A 
HETATM   32  O   UNL     1     -39.497  63.445 -60.916  1.00  0.00    -0.323 OA
HETATM   33  C   UNL     1     -41.755  61.149 -59.373  1.00  0.00     0.048 A 
HETATM   34  O   UNL     1     -40.055  62.747 -58.680  1.00  0.00    -0.323 OA
HETATM   35  C   UNL     1     -39.191  63.559 -59.509  1.00  0.00     0.352 A 
ENDBRANCH  26  27
ENDBRANCH   1  26
TORSDOF 6
ENDMDL
MODEL 10
REMARK VINA RESULT:      -8.2      2.265      3.244
REMARK  6 active torsions:
REMARK  status: ('A' for Active; 'I' for Inactive)
REMARK    1  A    between atoms: C_2  and  C_3 
REMARK    2  A    between atoms: C_3  and  N_4 
REMARK    3  A    between atoms: N_8  and  C_10 
REMARK    4  A    between atoms: C_10  and  C_11 
REMARK    5  A    between atoms: C_11  and  C_12 
REMARK    6  A    between atoms: C_20  and  N_21 
ROOT
HETATM    1  N   UNL     1     -41.650  55.052 -51.142  1.00  0.00    -0.064 N 
HETATM    2  H   UNL     1     -41.614  54.116 -50.706  1.00  0.00     0.280 HD
HETATM    3  C   UNL     1     -43.118  55.433 -51.255  1.00  0.00     0.263 C 
HETATM    4  C   UNL     1     -43.306  56.911 -51.693  1.00  0.00     0.262 C 
HETATM    5  N   UNL     1     -42.489  57.891 -50.842  1.00  0.00    -0.068 N 
HETATM    6  H   UNL     1     -42.935  57.960 -49.911  1.00  0.00     0.280 HD
HETATM    7  C   UNL     1     -41.030  57.455 -50.623  1.00  0.00     0.262 C 
HETATM    8  C   UNL     1     -40.924  55.982 -50.179  1.00  0.00     0.263 C 
ENDROOT
BRANCH   5   9
HETATM    9  C   UNL     1     -42.496  59.322 -51.405  1.00  0.00     0.238 C 
BRANCH   9  10
HETATM   10  C   UNL     1     -43.840  60.005 -51.192  1.00  0.00     0.070 C 
BRANCH  10  11
HETATM   11  C   UNL     1     -44.333  60.663 -52.496  1.00  0.00     0.222 C 
HETATM   12  O   UNL     1     -44.671  59.617 -53.391  1.00  0.00    -0.334 OA
HETATM   13  C   UNL     1     -43.872  59.494 -54.491  1.00  0.00     0.099 A 
HETATM   14  C   UNL     1     -42.888  60.418 -54.853  1.00  0.00     0.068 A 
HETATM   15  C   UNL     1     -44.092  58.363 -55.274  1.00  0.00     0.075 A 
HETATM   16  N   UNL     1     -42.657  61.542 -54.060  1.00  0.00    -0.323 N 
HETATM   17  C   UNL     1     -42.122  60.219 -56.002  1.00  0.00     0.035 A 
HETATM   18  C   UNL     1     -43.320  61.748 -52.889  1.00  0.00     0.251 C 
HETATM   19  H   UNL     1     -41.969  62.237 -54.332  1.00  0.00     0.169 HD
HETATM   20  O   UNL     1     -43.077  62.697 -52.148  1.00  0.00    -0.270 OA
HETATM   21  C   UNL     1     -42.324  59.078 -56.786  1.00  0.00     0.038 A 
HETATM   22  C   UNL     1     -43.307  58.151 -56.415  1.00  0.00     0.105 A 
BRANCH  22  23
HETATM   23  N   UNL     1     -43.502  56.929 -57.202  1.00  0.00    -0.116 N 
HETATM   24  O   UNL     1     -44.187  57.024 -58.232  1.00  0.00    -0.532 OA
HETATM   25  O   UNL     1     -42.996  55.885 -56.777  1.00  0.00    -0.532 OA
ENDBRANCH  22  23
ENDBRANCH  10  11
ENDBRANCH   9  10
ENDBRANCH   5   9
BRANCH   1  26
HETATM   26  C   UNL     1     -40.990  54.842 -52.504  1.00  0.00     0.273 C 
BRANCH  26  27
HETATM   27  C   UNL     1     -40.615  53.418 -52.794  1.00  0.00    -0.030 A 
HETATM   28  C   UNL     1     -40.674  52.922 -54.120  1.00  0.00     0.012 A 
HETATM   29  C   UNL     1     -40.307  51.605 -54.414  1.00  0.00     0.040 A 
HETATM   30  C   UNL     1     -39.895  50.805 -53.373  1.00  0.00     0.105 A 
HETATM   31  C   UNL     1     -39.845  51.272 -52.083  1.00  0.00     0.105 A 
HETATM   32  O   UNL     1     -39.510  49.508 -53.471  1.00  0.00    -0.323 OA
HETATM   33  C   UNL     1     -40.196  52.565 -51.758  1.00  0.00     0.048 A 
HETATM   34  O   UNL     1     -39.419  50.326 -51.207  1.00  0.00    -0.323 OA
HETATM   35  C   UNL     1     -39.263  49.185 -52.084  1.00  0.00     0.352 A 
ENDBRANCH  26  27
ENDBRANCH   1  26
TORSDOF 6
ENDMDL
