MODEL 1
REMARK VINA RESULT:      -8.7      0.000      0.000
REMARK  6 active torsions:
REMARK  status: ('A' for Active; 'I' for Inactive)
REMARK    1  A    between atoms: C_3  and  O_4 
REMARK    2  A    between atoms: O_4  and  C_5 
REMARK    3  A    between atoms: C_5  and  C_6 
REMARK       I    between atoms: C_6  and  N_7 
REMARK    4  A    between atoms: N_7  and  C_8 
REMARK    5  A    between atoms: C_8  and  C_9 
REMARK       I    between atoms: C_9  and  N_10 
REMARK    6  A    between atoms: N_10  and  N_11 
ROOT
HETATM    1  C   UNL     1     -41.162  58.418 -52.894  1.00  0.00     0.255 C 
HETATM    2  N   UNL     1     -42.129  57.870 -53.717  1.00  0.00    -0.245 N 
HETATM    3  O   UNL     1     -40.227  59.123 -53.275  1.00  0.00    -0.270 OA
HETATM    4  H   UNL     1     -42.843  57.252 -53.321  1.00  0.00     0.192 HD
ENDROOT
BRANCH   1   5
HETATM    5  C   UNL     1     -41.290  58.019 -51.423  1.00  0.00     0.227 C 
BRANCH   5   6
HETATM    6  N   UNL     1     -42.349  57.057 -51.136  1.00  0.00    -0.350 N 
HETATM    7  C   UNL     1     -42.208  55.736 -50.804  1.00  0.00     0.242 C 
HETATM    8  O   UNL     1     -43.190  55.125 -50.380  1.00  0.00    -0.271 OA
HETATM    9  H   UNL     1     -43.283  57.412 -50.962  1.00  0.00     0.163 HD
BRANCH   7  10
HETATM   10  C   UNL     1     -40.837  55.079 -50.921  1.00  0.00     0.278 C 
BRANCH  10  11
HETATM   11  O   UNL     1     -40.733  54.465 -52.199  1.00  0.00    -0.342 OA
BRANCH  11  12
HETATM   12  C   UNL     1     -40.353  53.149 -52.220  1.00  0.00     0.075 A 
HETATM   13  C   UNL     1     -40.109  52.592 -53.488  1.00  0.00    -0.029 A 
HETATM   14  C   UNL     1     -40.335  53.370 -54.756  1.00  0.00     0.051 C 
HETATM   15  C   UNL     1     -39.713  51.248 -53.583  1.00  0.00     0.009 A 
HETATM   16  C   UNL     1     -39.526  50.479 -52.436  1.00  0.00     0.001 A 
HETATM   17  C   UNL     1     -39.742  51.042 -51.183  1.00  0.00     0.003 A 
HETATM   18  C   UNL     1     -40.154  52.372 -51.074  1.00  0.00     0.037 A 
ENDBRANCH  11  12
ENDBRANCH  10  11
ENDBRANCH   7  10
ENDBRANCH   5   6
ENDBRANCH   1   5
BRANCH   2  19
HETATM   19  N   UNL     1     -42.122  58.142 -55.054  1.00  0.00    -0.166 NA
HETATM   20  C   UNL     1     -42.518  57.200 -55.846  1.00  0.00     0.157 A 
HETATM   21  C   UNL     1     -43.026  55.802 -55.491  1.00  0.00     0.277 A 
HETATM   22  C   UNL     1     -42.578  57.289 -57.300  1.00  0.00     0.028 A 
HETATM   23  O   UNL     1     -43.120  55.368 -54.362  1.00  0.00    -0.266 OA
HETATM   24  N   UNL     1     -43.336  55.204 -56.692  1.00  0.00    -0.321 N 
HETATM   25  C   UNL     1     -43.077  56.068 -57.753  1.00  0.00     0.048 A 
HETATM   26  H   UNL     1     -43.704  54.266 -56.765  1.00  0.00     0.169 HD
HETATM   27  C   UNL     1     -43.261  55.826 -59.097  1.00  0.00     0.032 A 
HETATM   28  C   UNL     1     -42.925  56.856 -59.986  1.00  0.00     0.021 A 
HETATM   29  C   UNL     1     -42.420  58.086 -59.514  1.00  0.00     0.012 A 
HETATM   30 BR   UNL     1     -41.978  59.442 -60.757  1.00  0.00    -0.051 Br
HETATM   31  C   UNL     1     -42.238  58.321 -58.151  1.00  0.00     0.035 A 
ENDBRANCH   2  19
TORSDOF 6
ENDMDL
MODEL 2
REMARK VINA RESULT:      -8.5      1.282      1.484
REMARK  6 active torsions:
REMARK  status: ('A' for Active; 'I' for Inactive)
REMARK    1  A    between atoms: C_3  and  O_4 
REMARK    2  A    between atoms: O_4  and  C_5 
REMARK    3  A    between atoms: C_5  and  C_6 
REMARK       I    between atoms: C_6  and  N_7 
REMARK    4  A    between atoms: N_7  and  C_8 
REMARK    5  A    between atoms: C_8  and  C_9 
REMARK       I    between atoms: C_9  and  N_10 
REMARK    6  A    between atoms: N_10  and  N_11 
ROOT
HETATM    1  C   UNL     1     -42.146  57.062 -51.909  1.00  0.00     0.255 C 
HETATM    2  N   UNL     1     -43.011  56.756 -52.944  1.00  0.00    -0.245 N 
HETATM    3  O   UNL     1     -41.166  57.801 -52.003  1.00  0.00    -0.270 OA
HETATM    4  H   UNL     1     -43.773  56.090 -52.790  1.00  0.00     0.192 HD
ENDROOT
BRANCH   1   5
HETATM    5  C   UNL     1     -42.455  56.337 -50.599  1.00  0.00     0.227 C 
BRANCH   5   6
HETATM    6  N   UNL     1     -41.285  55.910 -49.839  1.00  0.00    -0.350 N 
HETATM    7  C   UNL     1     -40.581  54.745 -49.977  1.00  0.00     0.242 C 
HETATM    8  O   UNL     1     -39.493  54.641 -49.409  1.00  0.00    -0.271 OA
HETATM    9  H   UNL     1     -40.799  56.604 -49.280  1.00  0.00     0.163 HD
BRANCH   7  10
HETATM   10  C   UNL     1     -41.137  53.636 -50.864  1.00  0.00     0.278 C 
BRANCH  10  11
HETATM   11  O   UNL     1     -40.248  53.436 -51.956  1.00  0.00    -0.342 OA
BRANCH  11  12
HETATM   12  C   UNL     1     -40.023  52.140 -52.337  1.00  0.00     0.075 A 
HETATM   13  C   UNL     1     -40.024  51.889 -53.720  1.00  0.00    -0.029 A 
HETATM   14  C   UNL     1     -40.338  52.964 -54.724  1.00  0.00     0.051 C 
HETATM   15  C   UNL     1     -39.796  50.581 -54.181  1.00  0.00     0.009 A 
HETATM   16  C   UNL     1     -39.537  49.547 -53.284  1.00  0.00     0.001 A 
HETATM   17  C   UNL     1     -39.511  49.805 -51.919  1.00  0.00     0.003 A 
HETATM   18  C   UNL     1     -39.753  51.097 -51.445  1.00  0.00     0.037 A 
ENDBRANCH  11  12
ENDBRANCH  10  11
ENDBRANCH   7  10
ENDBRANCH   5   6
ENDBRANCH   1   5
BRANCH   2  19
HETATM   19  N   UNL     1     -42.840  57.330 -54.170  1.00  0.00    -0.166 NA
HETATM   20  C   UNL     1     -42.968  56.561 -55.201  1.00  0.00     0.157 A 
HETATM   21  C   UNL     1     -43.316  55.073 -55.247  1.00  0.00     0.277 A 
HETATM   22  C   UNL     1     -42.818  56.980 -56.590  1.00  0.00     0.028 A 
HETATM   23  O   UNL     1     -43.517  54.381 -54.271  1.00  0.00    -0.266 OA
HETATM   24  N   UNL     1     -43.349  54.741 -56.583  1.00  0.00    -0.321 N 
HETATM   25  C   UNL     1     -43.059  55.851 -57.373  1.00  0.00     0.048 A 
HETATM   26  H   UNL     1     -43.561  53.812 -56.918  1.00  0.00     0.169 HD
HETATM   27  C   UNL     1     -42.999  55.910 -58.749  1.00  0.00     0.032 A 
HETATM   28  C   UNL     1     -42.685  57.148 -59.325  1.00  0.00     0.021 A 
HETATM   29  C   UNL     1     -42.442  58.281 -58.519  1.00  0.00     0.012 A 
HETATM   30 BR   UNL     1     -42.018  59.929 -59.347  1.00  0.00    -0.051 Br
HETATM   31  C   UNL     1     -42.507  58.211 -57.128  1.00  0.00     0.035 A 
ENDBRANCH   2  19
TORSDOF 6
ENDMDL
MODEL 3
REMARK VINA RESULT:      -8.5      1.767      2.815
REMARK  6 active torsions:
REMARK  status: ('A' for Active; 'I' for Inactive)
REMARK    1  A    between atoms: C_3  and  O_4 
REMARK    2  A    between atoms: O_4  and  C_5 
REMARK    3  A    between atoms: C_5  and  C_6 
REMARK       I    between atoms: C_6  and  N_7 
REMARK    4  A    between atoms: N_7  and  C_8 
REMARK    5  A    between atoms: C_8  and  C_9 
REMARK       I    between atoms: C_9  and  N_10 
REMARK    6  A    between atoms: N_10  and  N_11 
ROOT
HETATM    1  C   UNL     1     -41.945  56.429 -52.070  1.00  0.00     0.255 C 
HETATM    2  N   UNL     1     -41.201  56.584 -53.226  1.00  0.00    -0.245 N 
HETATM    3  O   UNL     1     -43.130  56.098 -52.033  1.00  0.00    -0.270 OA
HETATM    4  H   UNL     1     -40.233  56.913 -53.168  1.00  0.00     0.192 HD
ENDROOT
BRANCH   1   5
HETATM    5  C   UNL     1     -41.190  56.779 -50.787  1.00  0.00     0.227 C 
BRANCH   5   6
HETATM    6  N   UNL     1     -41.513  55.944 -49.635  1.00  0.00    -0.350 N 
HETATM    7  C   UNL     1     -40.881  54.798 -49.232  1.00  0.00     0.242 C 
HETATM    8  O   UNL     1     -41.141  54.341 -48.119  1.00  0.00    -0.271 OA
HETATM    9  H   UNL     1     -42.134  56.325 -48.928  1.00  0.00     0.163 HD
BRANCH   7  10
HETATM   10  C   UNL     1     -39.846  54.154 -50.148  1.00  0.00     0.278 C 
BRANCH  10  11
HETATM   11  O   UNL     1     -40.229  52.807 -50.394  1.00  0.00    -0.342 OA
BRANCH  11  12
HETATM   12  C   UNL     1     -40.131  52.365 -51.686  1.00  0.00     0.075 A 
HETATM   13  C   UNL     1     -39.853  50.998 -51.857  1.00  0.00    -0.029 A 
HETATM   14  C   UNL     1     -39.593  50.086 -50.688  1.00  0.00     0.051 C 
HETATM   15  C   UNL     1     -39.742  50.476 -53.156  1.00  0.00     0.009 A 
HETATM   16  C   UNL     1     -39.939  51.292 -54.269  1.00  0.00     0.001 A 
HETATM   17  C   UNL     1     -40.240  52.637 -54.095  1.00  0.00     0.003 A 
HETATM   18  C   UNL     1     -40.336  53.174 -52.809  1.00  0.00     0.037 A 
ENDBRANCH  11  12
ENDBRANCH  10  11
ENDBRANCH   7  10
ENDBRANCH   5   6
ENDBRANCH   1   5
BRANCH   2  19
HETATM   19  N   UNL     1     -41.760  56.312 -54.440  1.00  0.00    -0.166 NA
HETATM   20  C   UNL     1     -41.990  57.319 -55.219  1.00  0.00     0.157 A 
HETATM   21  C   UNL     1     -41.695  58.800 -54.979  1.00  0.00     0.277 A 
HETATM   22  C   UNL     1     -42.586  57.239 -56.548  1.00  0.00     0.028 A 
HETATM   23  O   UNL     1     -41.192  59.249 -53.971  1.00  0.00    -0.266 OA
HETATM   24  N   UNL     1     -42.110  59.450 -56.120  1.00  0.00    -0.321 N 
HETATM   25  C   UNL     1     -42.631  58.544 -57.041  1.00  0.00     0.048 A 
HETATM   26  H   UNL     1     -42.032  60.449 -56.248  1.00  0.00     0.169 HD
HETATM   27  C   UNL     1     -43.142  58.817 -58.291  1.00  0.00     0.032 A 
HETATM   28  C   UNL     1     -43.613  57.732 -59.043  1.00  0.00     0.021 A 
HETATM   29  C   UNL     1     -43.562  56.418 -58.530  1.00  0.00     0.012 A 
HETATM   30 BR   UNL     1     -44.216  54.989 -59.584  1.00  0.00    -0.051 Br
HETATM   31  C   UNL     1     -43.042  56.152 -57.264  1.00  0.00     0.035 A 
ENDBRANCH   2  19
TORSDOF 6
ENDMDL
MODEL 4
REMARK VINA RESULT:      -8.3      3.206      6.840
REMARK  6 active torsions:
REMARK  status: ('A' for Active; 'I' for Inactive)
REMARK    1  A    between atoms: C_3  and  O_4 
REMARK    2  A    between atoms: O_4  and  C_5 
REMARK    3  A    between atoms: C_5  and  C_6 
REMARK       I    between atoms: C_6  and  N_7 
REMARK    4  A    between atoms: N_7  and  C_8 
REMARK    5  A    between atoms: C_8  and  C_9 
REMARK       I    between atoms: C_9  and  N_10 
REMARK    6  A    between atoms: N_10  and  N_11 
ROOT
HETATM    1  C   UNL     1     -43.583  56.796 -55.843  1.00  0.00     0.255 C 
HETATM    2  N   UNL     1     -43.960  55.738 -55.036  1.00  0.00    -0.245 N 
HETATM    3  O   UNL     1     -42.499  56.893 -56.419  1.00  0.00    -0.270 OA
HETATM    4  H   UNL     1     -44.863  55.762 -54.553  1.00  0.00     0.192 HD
ENDROOT
BRANCH   1   5
HETATM    5  C   UNL     1     -44.614  57.922 -55.922  1.00  0.00     0.227 C 
BRANCH   5   6
HETATM    6  N   UNL     1     -45.181  58.331 -54.641  1.00  0.00    -0.350 N 
HETATM    7  C   UNL     1     -44.982  59.514 -53.981  1.00  0.00     0.242 C 
HETATM    8  O   UNL     1     -45.706  59.784 -53.022  1.00  0.00    -0.271 OA
HETATM    9  H   UNL     1     -45.957  57.794 -54.269  1.00  0.00     0.163 HD
BRANCH   7  10
HETATM   10  C   UNL     1     -43.910  60.477 -54.480  1.00  0.00     0.278 C 
BRANCH  10  11
HETATM   11  O   UNL     1     -43.206  60.996 -53.359  1.00  0.00    -0.342 OA
BRANCH  11  12
HETATM   12  C   UNL     1     -42.199  60.219 -52.852  1.00  0.00     0.075 A 
HETATM   13  C   UNL     1     -42.104  60.160 -51.451  1.00  0.00    -0.029 A 
HETATM   14  C   UNL     1     -43.002  60.971 -50.557  1.00  0.00     0.051 C 
HETATM   15  C   UNL     1     -41.095  59.379 -50.863  1.00  0.00     0.009 A 
HETATM   16  C   UNL     1     -40.217  58.640 -51.653  1.00  0.00     0.001 A 
HETATM   17  C   UNL     1     -40.332  58.680 -53.037  1.00  0.00     0.003 A 
HETATM   18  C   UNL     1     -41.318  59.467 -53.637  1.00  0.00     0.037 A 
ENDBRANCH  11  12
ENDBRANCH  10  11
ENDBRANCH   7  10
ENDBRANCH   5   6
ENDBRANCH   1   5
BRANCH   2  19
HETATM   19  N   UNL     1     -43.126  54.671 -54.874  1.00  0.00    -0.166 NA
HETATM   20  C   UNL     1     -42.436  54.627 -53.781  1.00  0.00     0.157 A 
HETATM   21  C   UNL     1     -42.439  55.607 -52.607  1.00  0.00     0.277 A 
HETATM   22  C   UNL     1     -41.487  53.578 -53.423  1.00  0.00     0.028 A 
HETATM   23  O   UNL     1     -43.116  56.612 -52.550  1.00  0.00    -0.266 OA
HETATM   24  N   UNL     1     -41.548  55.093 -51.692  1.00  0.00    -0.321 N 
HETATM   25  C   UNL     1     -40.988  53.908 -52.163  1.00  0.00     0.048 A 
HETATM   26  H   UNL     1     -41.347  55.534 -50.806  1.00  0.00     0.169 HD
HETATM   27  C   UNL     1     -40.060  53.108 -51.531  1.00  0.00     0.032 A 
HETATM   28  C   UNL     1     -39.641  51.954 -52.207  1.00  0.00     0.021 A 
HETATM   29  C   UNL     1     -40.154  51.635 -53.482  1.00  0.00     0.012 A 
HETATM   30 BR   UNL     1     -39.551  50.068 -54.354  1.00  0.00    -0.051 Br
HETATM   31  C   UNL     1     -41.093  52.450 -54.113  1.00  0.00     0.035 A 
ENDBRANCH   2  19
TORSDOF 6
ENDMDL
MODEL 5
REMARK VINA RESULT:      -8.2      3.488      7.724
REMARK  6 active torsions:
REMARK  status: ('A' for Active; 'I' for Inactive)
REMARK    1  A    between atoms: C_3  and  O_4 
REMARK    2  A    between atoms: O_4  and  C_5 
REMARK    3  A    between atoms: C_5  and  C_6 
REMARK       I    between atoms: C_6  and  N_7 
REMARK    4  A    between atoms: N_7  and  C_8 
REMARK    5  A    between atoms: C_8  and  C_9 
REMARK       I    between atoms: C_9  and  N_10 
REMARK    6  A    between atoms: N_10  and  N_11 
ROOT
HETATM    1  C   UNL     1     -43.544  57.059 -55.463  1.00  0.00     0.255 C 
HETATM    2  N   UNL     1     -43.910  55.999 -54.653  1.00  0.00    -0.245 N 
HETATM    3  O   UNL     1     -42.517  57.109 -56.141  1.00  0.00    -0.270 OA
HETATM    4  H   UNL     1     -44.757  56.063 -54.082  1.00  0.00     0.192 HD
ENDROOT
BRANCH   1   5
HETATM    5  C   UNL     1     -44.502  58.250 -55.408  1.00  0.00     0.227 C 
BRANCH   5   6
HETATM    6  N   UNL     1     -45.858  57.972 -55.870  1.00  0.00    -0.350 N 
HETATM    7  C   UNL     1     -46.377  58.203 -57.116  1.00  0.00     0.242 C 
HETATM    8  O   UNL     1     -47.469  57.710 -57.402  1.00  0.00    -0.271 OA
HETATM    9  H   UNL     1     -46.443  57.368 -55.302  1.00  0.00     0.163 HD
BRANCH   7  10
HETATM   10  C   UNL     1     -45.571  59.018 -58.122  1.00  0.00     0.278 C 
BRANCH  10  11
HETATM   11  O   UNL     1     -45.717  58.428 -59.408  1.00  0.00    -0.342 OA
BRANCH  11  12
HETATM   12  C   UNL     1     -45.102  57.220 -59.604  1.00  0.00     0.075 A 
HETATM   13  C   UNL     1     -45.862  56.234 -60.256  1.00  0.00    -0.029 A 
HETATM   14  C   UNL     1     -47.299  56.460 -60.641  1.00  0.00     0.051 C 
HETATM   15  C   UNL     1     -45.292  54.972 -60.493  1.00  0.00     0.009 A 
HETATM   16  C   UNL     1     -43.976  54.705 -60.121  1.00  0.00     0.001 A 
HETATM   17  C   UNL     1     -43.219  55.693 -59.501  1.00  0.00     0.003 A 
HETATM   18  C   UNL     1     -43.779  56.947 -59.243  1.00  0.00     0.037 A 
ENDBRANCH  11  12
ENDBRANCH  10  11
ENDBRANCH   7  10
ENDBRANCH   5   6
ENDBRANCH   1   5
BRANCH   2  19
HETATM   19  N   UNL     1     -43.134  54.878 -54.604  1.00  0.00    -0.166 NA
HETATM   20  C   UNL     1     -42.373  54.735 -53.569  1.00  0.00     0.157 A 
HETATM   21  C   UNL     1     -42.232  55.650 -52.352  1.00  0.00     0.277 A 
HETATM   22  C   UNL     1     -41.470  53.614 -53.334  1.00  0.00     0.028 A 
HETATM   23  O   UNL     1     -42.838  56.689 -52.196  1.00  0.00    -0.266 OA
HETATM   24  N   UNL     1     -41.312  55.036 -51.532  1.00  0.00    -0.321 N 
HETATM   25  C   UNL     1     -40.863  53.846 -52.099  1.00  0.00     0.048 A 
HETATM   26  H   UNL     1     -41.022  55.417 -50.642  1.00  0.00     0.169 HD
HETATM   27  C   UNL     1     -39.945  52.960 -51.577  1.00  0.00     0.032 A 
HETATM   28  C   UNL     1     -39.648  51.821 -52.338  1.00  0.00     0.021 A 
HETATM   29  C   UNL     1     -40.269  51.601 -53.585  1.00  0.00     0.012 A 
HETATM   30 BR   UNL     1     -39.830  50.049 -54.574  1.00  0.00    -0.051 Br
HETATM   31  C   UNL     1     -41.197  52.503 -54.104  1.00  0.00     0.035 A 
ENDBRANCH   2  19
TORSDOF 6
ENDMDL
MODEL 6
REMARK VINA RESULT:      -8.0      2.656      3.728
REMARK  6 active torsions:
REMARK  status: ('A' for Active; 'I' for Inactive)
REMARK    1  A    between atoms: C_3  and  O_4 
REMARK    2  A    between atoms: O_4  and  C_5 
REMARK    3  A    between atoms: C_5  and  C_6 
REMARK       I    between atoms: C_6  and  N_7 
REMARK    4  A    between atoms: N_7  and  C_8 
REMARK    5  A    between atoms: C_8  and  C_9 
REMARK       I    between atoms: C_9  and  N_10 
REMARK    6  A    between atoms: N_10  and  N_11 
ROOT
HETATM    1  C   UNL     1     -41.663  58.798 -54.265  1.00  0.00     0.255 C 
HETATM    2  N   UNL     1     -42.180  59.070 -55.519  1.00  0.00    -0.245 N 
HETATM    3  O   UNL     1     -40.668  59.337 -53.780  1.00  0.00    -0.270 OA
HETATM    4  H   UNL     1     -42.983  58.537 -55.865  1.00  0.00     0.192 HD
ENDROOT
BRANCH   1   5
HETATM    5  C   UNL     1     -42.396  57.687 -53.513  1.00  0.00     0.227 C 
BRANCH   5   6
HETATM    6  N   UNL     1     -42.980  56.651 -54.358  1.00  0.00    -0.350 N 
HETATM    7  C   UNL     1     -42.422  55.452 -54.712  1.00  0.00     0.242 C 
HETATM    8  O   UNL     1     -43.136  54.604 -55.249  1.00  0.00    -0.271 OA
HETATM    9  H   UNL     1     -43.973  56.702 -54.560  1.00  0.00     0.163 HD
BRANCH   7  10
HETATM   10  C   UNL     1     -40.955  55.185 -54.389  1.00  0.00     0.278 C 
BRANCH  10  11
HETATM   11  O   UNL     1     -40.878  54.525 -53.132  1.00  0.00    -0.342 OA
BRANCH  11  12
HETATM   12  C   UNL     1     -40.466  53.219 -53.148  1.00  0.00     0.075 A 
HETATM   13  C   UNL     1     -39.980  52.705 -51.933  1.00  0.00    -0.029 A 
HETATM   14  C   UNL     1     -39.839  53.563 -50.705  1.00  0.00     0.051 C 
HETATM   15  C   UNL     1     -39.544  51.371 -51.877  1.00  0.00     0.009 A 
HETATM   16  C   UNL     1     -39.622  50.549 -53.000  1.00  0.00     0.001 A 
HETATM   17  C   UNL     1     -40.128  51.054 -54.192  1.00  0.00     0.003 A 
HETATM   18  C   UNL     1     -40.549  52.384 -54.268  1.00  0.00     0.037 A 
ENDBRANCH  11  12
ENDBRANCH  10  11
ENDBRANCH   7  10
ENDBRANCH   5   6
ENDBRANCH   1   5
BRANCH   2  19
HETATM   19  N   UNL     1     -41.612  60.035 -56.298  1.00  0.00    -0.166 NA
HETATM   20  C   UNL     1     -41.875  59.999 -57.564  1.00  0.00     0.157 A 
HETATM   21  C   UNL     1     -42.770  59.021 -58.326  1.00  0.00     0.277 A 
HETATM   22  C   UNL     1     -41.363  60.933 -58.559  1.00  0.00     0.028 A 
HETATM   23  O   UNL     1     -43.374  58.099 -57.820  1.00  0.00    -0.266 OA
HETATM   24  N   UNL     1     -42.728  59.429 -59.641  1.00  0.00    -0.321 N 
HETATM   25  C   UNL     1     -41.907  60.545 -59.784  1.00  0.00     0.048 A 
HETATM   26  H   UNL     1     -43.236  58.966 -60.381  1.00  0.00     0.169 HD
HETATM   27  C   UNL     1     -41.620  61.234 -60.943  1.00  0.00     0.032 A 
HETATM   28  C   UNL     1     -40.760  62.335 -60.838  1.00  0.00     0.021 A 
HETATM   29  C   UNL     1     -40.215  62.714 -59.593  1.00  0.00     0.012 A 
HETATM   30 BR   UNL     1     -39.055  64.206 -59.507  1.00  0.00    -0.051 Br
HETATM   31  C   UNL     1     -40.513  62.011 -58.426  1.00  0.00     0.035 A 
ENDBRANCH   2  19
TORSDOF 6
ENDMDL
MODEL 7
REMARK VINA RESULT:      -7.9      3.346      7.647
REMARK  6 active torsions:
REMARK  status: ('A' for Active; 'I' for Inactive)
REMARK    1  A    between atoms: C_3  and  O_4 
REMARK    2  A    between atoms: O_4  and  C_5 
REMARK    3  A    between atoms: C_5  and  C_6 
REMARK       I    between atoms: C_6  and  N_7 
REMARK    4  A    between atoms: N_7  and  C_8 
REMARK    5  A    between atoms: C_8  and  C_9 
REMARK       I    between atoms: C_9  and  N_10 
REMARK    6  A    between atoms: N_10  and  N_11 
ROOT
HETATM    1  C   UNL     1     -44.015  56.690 -55.161  1.00  0.00     0.255 C 
HETATM    2  N   UNL     1     -44.241  55.592 -54.350  1.00  0.00    -0.245 N 
HETATM    3  O   UNL     1     -43.021  56.850 -55.870  1.00  0.00    -0.270 OA
HETATM    4  H   UNL     1     -45.072  55.564 -53.752  1.00  0.00     0.192 HD
ENDROOT
BRANCH   1   5
HETATM    5  C   UNL     1     -45.089  57.773 -55.064  1.00  0.00     0.227 C 
BRANCH   5   6
HETATM    6  N   UNL     1     -44.689  59.086 -55.560  1.00  0.00    -0.350 N 
HETATM    7  C   UNL     1     -45.092  59.698 -56.717  1.00  0.00     0.242 C 
HETATM    8  O   UNL     1     -44.830  60.891 -56.875  1.00  0.00    -0.271 OA
HETATM    9  H   UNL     1     -44.222  59.717 -54.918  1.00  0.00     0.163 HD
BRANCH   7  10
HETATM   10  C   UNL     1     -45.890  58.902 -57.744  1.00  0.00     0.278 C 
BRANCH  10  11
HETATM   11  O   UNL     1     -45.105  58.761 -58.921  1.00  0.00    -0.342 OA
BRANCH  11  12
HETATM   12  C   UNL     1     -44.839  57.483 -59.334  1.00  0.00     0.075 A 
HETATM   13  C   UNL     1     -43.487  57.097 -59.333  1.00  0.00    -0.029 A 
HETATM   14  C   UNL     1     -42.385  58.058 -58.981  1.00  0.00     0.051 C 
HETATM   15  C   UNL     1     -43.143  55.797 -59.741  1.00  0.00     0.009 A 
HETATM   16  C   UNL     1     -44.129  54.884 -60.110  1.00  0.00     0.001 A 
HETATM   17  C   UNL     1     -45.466  55.262 -60.084  1.00  0.00     0.003 A 
HETATM   18  C   UNL     1     -45.822  56.556 -59.697  1.00  0.00     0.037 A 
ENDBRANCH  11  12
ENDBRANCH  10  11
ENDBRANCH   7  10
ENDBRANCH   5   6
ENDBRANCH   1   5
BRANCH   2  19
HETATM   19  N   UNL     1     -43.352  54.557 -54.336  1.00  0.00    -0.166 NA
HETATM   20  C   UNL     1     -42.554  54.483 -53.322  1.00  0.00     0.157 A 
HETATM   21  C   UNL     1     -42.477  55.394 -52.097  1.00  0.00     0.277 A 
HETATM   22  C   UNL     1     -41.533  53.461 -53.125  1.00  0.00     0.028 A 
HETATM   23  O   UNL     1     -43.184  56.362 -51.911  1.00  0.00    -0.266 OA
HETATM   24  N   UNL     1     -41.477  54.871 -51.307  1.00  0.00    -0.321 N 
HETATM   25  C   UNL     1     -40.921  53.741 -51.903  1.00  0.00     0.048 A 
HETATM   26  H   UNL     1     -41.205  55.270 -50.420  1.00  0.00     0.169 HD
HETATM   27  C   UNL     1     -39.903  52.950 -51.416  1.00  0.00     0.032 A 
HETATM   28  C   UNL     1     -39.509  51.857 -52.200  1.00  0.00     0.021 A 
HETATM   29  C   UNL     1     -40.136  51.587 -53.434  1.00  0.00     0.012 A 
HETATM   30 BR   UNL     1     -39.563  50.101 -54.456  1.00  0.00    -0.051 Br
HETATM   31  C   UNL     1     -41.166  52.393 -53.918  1.00  0.00     0.035 A 
ENDBRANCH   2  19
TORSDOF 6
ENDMDL
MODEL 8
REMARK VINA RESULT:      -7.8      3.134      6.777
REMARK  6 active torsions:
REMARK  status: ('A' for Active; 'I' for Inactive)
REMARK    1  A    between atoms: C_3  and  O_4 
REMARK    2  A    between atoms: O_4  and  C_5 
REMARK    3  A    between atoms: C_5  and  C_6 
REMARK       I    between atoms: C_6  and  N_7 
REMARK    4  A    between atoms: N_7  and  C_8 
REMARK    5  A    between atoms: C_8  and  C_9 
REMARK       I    between atoms: C_9  and  N_10 
REMARK    6  A    between atoms: N_10  and  N_11 
ROOT
HETATM    1  C   UNL     1     -41.280  57.364 -52.229  1.00  0.00     0.255 C 
HETATM    2  N   UNL     1     -41.406  56.200 -51.492  1.00  0.00    -0.245 N 
HETATM    3  O   UNL     1     -40.800  57.435 -53.361  1.00  0.00    -0.270 OA
HETATM    4  H   UNL     1     -41.770  56.240 -50.536  1.00  0.00     0.192 HD
ENDROOT
BRANCH   1   5
HETATM    5  C   UNL     1     -41.729  58.625 -51.490  1.00  0.00     0.227 C 
BRANCH   5   6
HETATM    6  N   UNL     1     -43.125  58.628 -51.067  1.00  0.00    -0.350 N 
HETATM    7  C   UNL     1     -44.237  58.693 -51.863  1.00  0.00     0.242 C 
HETATM    8  O   UNL     1     -45.338  58.464 -51.360  1.00  0.00    -0.271 OA
HETATM    9  H   UNL     1     -43.335  58.358 -50.111  1.00  0.00     0.163 HD
BRANCH   7  10
HETATM   10  C   UNL     1     -44.076  58.996 -53.348  1.00  0.00     0.278 C 
BRANCH  10  11
HETATM   11  O   UNL     1     -44.876  58.083 -54.090  1.00  0.00    -0.342 OA
BRANCH  11  12
HETATM   12  C   UNL     1     -44.222  57.043 -54.695  1.00  0.00     0.075 A 
HETATM   13  C   UNL     1     -43.769  57.272 -56.006  1.00  0.00    -0.029 A 
HETATM   14  C   UNL     1     -44.058  58.555 -56.736  1.00  0.00     0.051 C 
HETATM   15  C   UNL     1     -43.087  56.249 -56.686  1.00  0.00     0.009 A 
HETATM   16  C   UNL     1     -42.828  55.030 -56.061  1.00  0.00     0.001 A 
HETATM   17  C   UNL     1     -43.255  54.818 -54.755  1.00  0.00     0.003 A 
HETATM   18  C   UNL     1     -43.950  55.820 -54.073  1.00  0.00     0.037 A 
ENDBRANCH  11  12
ENDBRANCH  10  11
ENDBRANCH   7  10
ENDBRANCH   5   6
ENDBRANCH   1   5
BRANCH   2  19
HETATM   19  N   UNL     1     -41.033  55.005 -52.034  1.00  0.00    -0.166 NA
HETATM   20  C   UNL     1     -40.801  54.034 -51.211  1.00  0.00     0.157 A 
HETATM   21  C   UNL     1     -40.912  54.027 -49.686  1.00  0.00     0.277 A 
HETATM   22  C   UNL     1     -40.387  52.688 -51.589  1.00  0.00     0.028 A 
HETATM   23  O   UNL     1     -41.237  54.981 -49.013  1.00  0.00    -0.266 OA
HETATM   24  N   UNL     1     -40.579  52.748 -49.297  1.00  0.00    -0.321 N 
HETATM   25  C   UNL     1     -40.271  51.961 -50.404  1.00  0.00     0.048 A 
HETATM   26  H   UNL     1     -40.570  52.447 -48.333  1.00  0.00     0.169 HD
HETATM   27  C   UNL     1     -39.896  50.635 -50.414  1.00  0.00     0.032 A 
HETATM   28  C   UNL     1     -39.634  50.052 -51.661  1.00  0.00     0.021 A 
HETATM   29  C   UNL     1     -39.754  50.800 -52.851  1.00  0.00     0.012 A 
HETATM   30 BR   UNL     1     -39.385  49.965 -54.509  1.00  0.00    -0.051 Br
HETATM   31  C   UNL     1     -40.136  52.141 -52.830  1.00  0.00     0.035 A 
ENDBRANCH   2  19
TORSDOF 6
ENDMDL
MODEL 9
REMARK VINA RESULT:      -7.7      3.860      7.753
REMARK  6 active torsions:
REMARK  status: ('A' for Active; 'I' for Inactive)
REMARK    1  A    between atoms: C_3  and  O_4 
REMARK    2  A    between atoms: O_4  and  C_5 
REMARK    3  A    between atoms: C_5  and  C_6 
REMARK       I    between atoms: C_6  and  N_7 
REMARK    4  A    between atoms: N_7  and  C_8 
REMARK    5  A    between atoms: C_8  and  C_9 
REMARK       I    between atoms: C_9  and  N_10 
REMARK    6  A    between atoms: N_10  and  N_11 
ROOT
HETATM    1  C   UNL     1     -44.565  57.500 -54.278  1.00  0.00     0.255 C 
HETATM    2  N   UNL     1     -44.430  56.148 -54.021  1.00  0.00    -0.245 N 
HETATM    3  O   UNL     1     -44.036  58.399 -53.625  1.00  0.00    -0.270 OA
HETATM    4  H   UNL     1     -44.948  55.468 -54.584  1.00  0.00     0.192 HD
ENDROOT
BRANCH   1   5
HETATM    5  C   UNL     1     -45.513  57.827 -55.433  1.00  0.00     0.227 C 
BRANCH   5   6
HETATM    6  N   UNL     1     -45.567  59.236 -55.806  1.00  0.00    -0.350 N 
HETATM    7  C   UNL     1     -46.062  59.773 -56.965  1.00  0.00     0.242 C 
HETATM    8  O   UNL     1     -46.231  60.991 -57.026  1.00  0.00    -0.271 OA
HETATM    9  H   UNL     1     -45.413  59.929 -55.081  1.00  0.00     0.163 HD
BRANCH   7  10
HETATM   10  C   UNL     1     -46.433  58.847 -58.118  1.00  0.00     0.278 C 
BRANCH  10  11
HETATM   11  O   UNL     1     -45.269  58.603 -58.899  1.00  0.00    -0.342 OA
BRANCH  11  12
HETATM   12  C   UNL     1     -45.018  57.299 -59.237  1.00  0.00     0.075 A 
HETATM   13  C   UNL     1     -43.835  56.740 -58.724  1.00  0.00    -0.029 A 
HETATM   14  C   UNL     1     -42.855  57.550 -57.919  1.00  0.00     0.051 C 
HETATM   15  C   UNL     1     -43.517  55.406 -59.029  1.00  0.00     0.009 A 
HETATM   16  C   UNL     1     -44.378  54.629 -59.801  1.00  0.00     0.001 A 
HETATM   17  C   UNL     1     -45.560  55.178 -60.284  1.00  0.00     0.003 A 
HETATM   18  C   UNL     1     -45.881  56.509 -60.004  1.00  0.00     0.037 A 
ENDBRANCH  11  12
ENDBRANCH  10  11
ENDBRANCH   7  10
ENDBRANCH   5   6
ENDBRANCH   1   5
BRANCH   2  19
HETATM   19  N   UNL     1     -43.619  55.722 -53.010  1.00  0.00    -0.166 NA
HETATM   20  C   UNL     1     -42.776  54.782 -53.289  1.00  0.00     0.157 A 
HETATM   21  C   UNL     1     -42.537  54.079 -54.625  1.00  0.00     0.277 A 
HETATM   22  C   UNL     1     -41.832  54.188 -52.349  1.00  0.00     0.028 A 
HETATM   23  O   UNL     1     -43.143  54.316 -55.648  1.00  0.00    -0.266 OA
HETATM   24  N   UNL     1     -41.523  53.176 -54.393  1.00  0.00    -0.321 N 
HETATM   25  C   UNL     1     -41.107  53.235 -53.065  1.00  0.00     0.048 A 
HETATM   26  H   UNL     1     -41.148  52.568 -55.107  1.00  0.00     0.169 HD
HETATM   27  C   UNL     1     -40.118  52.488 -52.460  1.00  0.00     0.032 A 
HETATM   28  C   UNL     1     -39.876  52.726 -51.101  1.00  0.00     0.021 A 
HETATM   29  C   UNL     1     -40.619  53.692 -50.390  1.00  0.00     0.012 A 
HETATM   30 BR   UNL     1     -40.255  53.970 -48.554  1.00  0.00    -0.051 Br
HETATM   31  C   UNL     1     -41.616  54.443 -51.011  1.00  0.00     0.035 A 
ENDBRANCH   2  19
TORSDOF 6
ENDMDL
MODEL 10
REMARK VINA RESULT:      -7.6      3.419      7.465
REMARK  6 active torsions:
REMARK  status: ('A' for Active; 'I' for Inactive)
REMARK    1  A    between atoms: C_3  and  O_4 
REMARK    2  A    between atoms: O_4  and  C_5 
REMARK    3  A    between atoms: C_5  and  C_6 
REMARK       I    between atoms: C_6  and  N_7 
REMARK    4  A    between atoms: N_7  and  C_8 
REMARK    5  A    between atoms: C_8  and  C_9 
REMARK       I    between atoms: C_9  and  N_10 
REMARK    6  A    between atoms: N_10  and  N_11 
ROOT
HETATM    1  C   UNL     1     -41.992  59.413 -54.271  1.00  0.00     0.255 C 
HETATM    2  N   UNL     1     -42.750  58.260 -54.169  1.00  0.00    -0.245 N 
HETATM    3  O   UNL     1     -40.901  59.591 -53.728  1.00  0.00    -0.270 OA
HETATM    4  H   UNL     1     -43.672  58.216 -54.612  1.00  0.00     0.192 HD
ENDROOT
BRANCH   1   5
HETATM    5  C   UNL     1     -42.655  60.529 -55.078  1.00  0.00     0.227 C 
BRANCH   5   6
HETATM    6  N   UNL     1     -41.977  60.877 -56.323  1.00  0.00    -0.350 N 
HETATM    7  C   UNL     1     -42.416  60.655 -57.600  1.00  0.00     0.242 C 
HETATM    8  O   UNL     1     -41.826  61.205 -58.531  1.00  0.00    -0.271 OA
HETATM    9  H   UNL     1     -41.195  61.522 -56.277  1.00  0.00     0.163 HD
BRANCH   7  10
HETATM   10  C   UNL     1     -43.644  59.779 -57.827  1.00  0.00     0.278 C 
BRANCH  10  11
HETATM   11  O   UNL     1     -43.659  59.359 -59.186  1.00  0.00    -0.342 OA
BRANCH  11  12
HETATM   12  C   UNL     1     -44.326  58.195 -59.462  1.00  0.00     0.075 A 
HETATM   13  C   UNL     1     -43.538  57.112 -59.887  1.00  0.00    -0.029 A 
HETATM   14  C   UNL     1     -42.056  57.245 -60.110  1.00  0.00     0.051 C 
HETATM   15  C   UNL     1     -44.157  55.887 -60.184  1.00  0.00     0.009 A 
HETATM   16  C   UNL     1     -45.533  55.729 -60.028  1.00  0.00     0.001 A 
HETATM   17  C   UNL     1     -46.305  56.795 -59.581  1.00  0.00     0.003 A 
HETATM   18  C   UNL     1     -45.706  58.025 -59.299  1.00  0.00     0.037 A 
ENDBRANCH  11  12
ENDBRANCH  10  11
ENDBRANCH   7  10
ENDBRANCH   5   6
ENDBRANCH   1   5
BRANCH   2  19
HETATM   19  N   UNL     1     -42.276  57.190 -53.468  1.00  0.00    -0.166 NA
HETATM   20  C   UNL     1     -41.858  56.177 -54.154  1.00  0.00     0.157 A 
HETATM   21  C   UNL     1     -41.796  56.011 -55.673  1.00  0.00     0.277 A 
HETATM   22  C   UNL     1     -41.323  54.941 -53.595  1.00  0.00     0.028 A 
HETATM   23  O   UNL     1     -42.158  56.847 -56.474  1.00  0.00    -0.266 OA
HETATM   24  N   UNL     1     -41.254  54.763 -55.888  1.00  0.00    -0.321 N 
HETATM   25  C   UNL     1     -40.976  54.133 -54.678  1.00  0.00     0.048 A 
HETATM   26  H   UNL     1     -41.089  54.382 -56.809  1.00  0.00     0.169 HD
HETATM   27  C   UNL     1     -40.431  52.881 -54.488  1.00  0.00     0.032 A 
HETATM   28  C   UNL     1     -40.242  52.457 -53.166  1.00  0.00     0.021 A 
HETATM   29  C   UNL     1     -40.600  53.285 -52.081  1.00  0.00     0.012 A 
HETATM   30 BR   UNL     1     -40.329  52.662 -50.315  1.00  0.00    -0.051 Br
HETATM   31  C   UNL     1     -41.150  54.550 -52.283  1.00  0.00     0.035 A 
ENDBRANCH   2  19
TORSDOF 6
ENDMDL
