MODEL 1
REMARK VINA RESULT:      -7.9      0.000      0.000
REMARK  7 active torsions:
REMARK  status: ('A' for Active; 'I' for Inactive)
REMARK    1  A    between atoms: O_2  and  C_3 
REMARK    2  A    between atoms: C_6  and  C_7 
REMARK    3  A    between atoms: N_8  and  N_9 
REMARK       I    between atoms: N_9  and  C_10 
REMARK    4  A    between atoms: C_10  and  C_11 
REMARK       I    between atoms: C_11  and  N_12 
REMARK    5  A    between atoms: N_12  and  C_13 
REMARK    6  A    between atoms: C_14  and  C_15 
REMARK       I    between atoms: C_15  and  N_16 
REMARK    7  A    between atoms: N_16  and  C_17 
ROOT
HETATM    1  C   UNL     1     -43.754  57.823 -51.945  1.00  0.00     0.315 C 
HETATM    2  N   UNL     1     -44.134  56.601 -52.463  1.00  0.00    -0.318 N 
HETATM    3  O   UNL     1     -42.697  58.422 -52.072  1.00  0.00    -0.262 OA
HETATM    4  H   UNL     1     -44.952  56.214 -51.991  1.00  0.00     0.169 HD
ENDROOT
BRANCH   2   5
HETATM    5  C   UNL     1     -43.332  55.720 -53.215  1.00  0.00     0.051 A 
HETATM    6  C   UNL     1     -43.127  55.752 -54.606  1.00  0.00     0.058 A 
HETATM    7  C   UNL     1     -42.203  54.862 -55.190  1.00  0.00     0.019 A 
HETATM    8  C   UNL     1     -41.528  53.916 -54.420  1.00  0.00     0.001 A 
HETATM    9  C   UNL     1     -41.779  53.839 -53.056  1.00  0.00     0.002 A 
HETATM   10  C   UNL     1     -42.677  54.729 -52.461  1.00  0.00     0.030 A 
BRANCH   6  11
HETATM   11  C   UNL     1     -43.943  56.513 -55.591  1.00  0.00     0.254 C 
HETATM   12  N   UNL     1     -43.610  56.324 -56.920  1.00  0.00    -0.352 N 
HETATM   13  H   UNL     1     -42.844  55.698 -57.129  1.00  0.00     0.163 HD
HETATM   14  O   UNL     1     -44.735  57.365 -55.202  1.00  0.00    -0.268 OA
BRANCH  12  15
HETATM   15  C   UNL     1     -44.047  57.264 -57.947  1.00  0.00     0.084 C 
HETATM   16  C   UNL     1     -43.147  58.509 -57.964  1.00  0.00     0.025 C 
HETATM   17  C   UNL     1     -41.779  58.241 -58.589  1.00  0.00     0.002 C 
HETATM   18  C   UNL     1     -41.912  57.645 -59.986  1.00  0.00     0.000 C 
HETATM   19  C   UNL     1     -42.760  56.378 -59.970  1.00  0.00     0.002 C 
HETATM   20  C   UNL     1     -44.130  56.624 -59.341  1.00  0.00     0.025 C 
ENDBRANCH  12  15
ENDBRANCH   6  11
ENDBRANCH   2   5
BRANCH   1  21
HETATM   21  C   UNL     1     -44.835  58.399 -51.016  1.00  0.00     0.329 C 
HETATM   22  N   UNL     1     -44.517  59.654 -50.536  1.00  0.00    -0.239 N 
HETATM   23  H   UNL     1     -43.628  60.066 -50.812  1.00  0.00     0.192 HD
HETATM   24  O   UNL     1     -45.827  57.718 -50.779  1.00  0.00    -0.261 OA
BRANCH  22  25
HETATM   25  N   UNL     1     -45.348  60.281 -49.658  1.00  0.00    -0.183 NA
HETATM   26  C   UNL     1     -44.816  61.239 -48.969  1.00  0.00     0.150 C 
BRANCH  26  27
HETATM   27  C   UNL     1     -45.595  61.996 -47.966  1.00  0.00    -0.017 A 
HETATM   28  C   UNL     1     -45.178  62.062 -46.635  1.00  0.00     0.016 A 
HETATM   29  C   UNL     1     -45.927  62.795 -45.711  1.00  0.00     0.037 A 
HETATM   30  C   UNL     1     -47.083  63.472 -46.108  1.00  0.00     0.068 A 
HETATM   31  C   UNL     1     -47.503  63.391 -47.437  1.00  0.00     0.037 A 
HETATM   32  C   UNL     1     -46.760  62.654 -48.368  1.00  0.00     0.016 A 
BRANCH  30  33
HETATM   33  O   UNL     1     -47.719  64.158 -45.109  1.00  0.00    -0.356 OA
HETATM   34  C   UNL     1     -46.899  64.663 -44.062  1.00  0.00     0.210 C 
ENDBRANCH  30  33
ENDBRANCH  26  27
ENDBRANCH  22  25
ENDBRANCH   1  21
TORSDOF 7
ENDMDL
MODEL 2
REMARK VINA RESULT:      -7.9      5.065      9.639
REMARK  7 active torsions:
REMARK  status: ('A' for Active; 'I' for Inactive)
REMARK    1  A    between atoms: O_2  and  C_3 
REMARK    2  A    between atoms: C_6  and  C_7 
REMARK    3  A    between atoms: N_8  and  N_9 
REMARK       I    between atoms: N_9  and  C_10 
REMARK    4  A    between atoms: C_10  and  C_11 
REMARK       I    between atoms: C_11  and  N_12 
REMARK    5  A    between atoms: N_12  and  C_13 
REMARK    6  A    between atoms: C_14  and  C_15 
REMARK       I    between atoms: C_15  and  N_16 
REMARK    7  A    between atoms: N_16  and  C_17 
ROOT
HETATM    1  C   UNL     1     -41.517  55.257 -54.911  1.00  0.00     0.315 C 
HETATM    2  N   UNL     1     -41.857  54.070 -54.294  1.00  0.00    -0.318 N 
HETATM    3  O   UNL     1     -40.464  55.875 -54.872  1.00  0.00    -0.262 OA
HETATM    4  H   UNL     1     -42.867  53.917 -54.272  1.00  0.00     0.169 HD
ENDROOT
BRANCH   2   5
HETATM    5  C   UNL     1     -41.061  53.329 -53.398  1.00  0.00     0.051 A 
HETATM    6  C   UNL     1     -41.050  53.439 -51.997  1.00  0.00     0.058 A 
HETATM    7  C   UNL     1     -40.271  52.543 -51.238  1.00  0.00     0.019 A 
HETATM    8  C   UNL     1     -39.472  51.582 -51.855  1.00  0.00     0.001 A 
HETATM    9  C   UNL     1     -39.431  51.515 -53.242  1.00  0.00     0.002 A 
HETATM   10  C   UNL     1     -40.213  52.384 -54.006  1.00  0.00     0.030 A 
BRANCH   6  11
HETATM   11  C   UNL     1     -41.636  54.556 -51.205  1.00  0.00     0.254 C 
HETATM   12  N   UNL     1     -41.469  55.821 -51.737  1.00  0.00    -0.352 N 
HETATM   13  H   UNL     1     -40.964  55.903 -52.609  1.00  0.00     0.163 HD
HETATM   14  O   UNL     1     -42.081  54.342 -50.082  1.00  0.00    -0.268 OA
BRANCH  12  15
HETATM   15  C   UNL     1     -41.641  57.014 -50.913  1.00  0.00     0.084 C 
HETATM   16  C   UNL     1     -40.409  57.925 -51.012  1.00  0.00     0.025 C 
HETATM   17  C   UNL     1     -40.336  58.679 -52.340  1.00  0.00     0.002 C 
HETATM   18  C   UNL     1     -41.618  59.461 -52.607  1.00  0.00     0.000 C 
HETATM   19  C   UNL     1     -42.841  58.553 -52.564  1.00  0.00     0.002 C 
HETATM   20  C   UNL     1     -42.927  57.785 -51.246  1.00  0.00     0.025 C 
ENDBRANCH  12  15
ENDBRANCH   6  11
ENDBRANCH   2   5
BRANCH   1  21
HETATM   21  C   UNL     1     -42.716  55.866 -55.657  1.00  0.00     0.329 C 
HETATM   22  N   UNL     1     -42.410  56.237 -56.951  1.00  0.00    -0.239 N 
HETATM   23  H   UNL     1     -41.458  56.098 -57.282  1.00  0.00     0.192 HD
HETATM   24  O   UNL     1     -43.780  55.980 -55.059  1.00  0.00    -0.261 OA
BRANCH  22  25
HETATM   25  N   UNL     1     -43.350  56.840 -57.729  1.00  0.00    -0.183 NA
HETATM   26  C   UNL     1     -44.071  56.048 -58.457  1.00  0.00     0.150 C 
BRANCH  26  27
HETATM   27  C   UNL     1     -45.118  56.566 -59.362  1.00  0.00    -0.017 A 
HETATM   28  C   UNL     1     -45.854  55.701 -60.175  1.00  0.00     0.016 A 
HETATM   29  C   UNL     1     -46.846  56.217 -61.013  1.00  0.00     0.037 A 
HETATM   30  C   UNL     1     -47.117  57.587 -61.037  1.00  0.00     0.068 A 
HETATM   31  C   UNL     1     -46.368  58.449 -60.232  1.00  0.00     0.037 A 
HETATM   32  C   UNL     1     -45.369  57.939 -59.394  1.00  0.00     0.016 A 
BRANCH  30  33
HETATM   33  O   UNL     1     -48.117  57.960 -61.893  1.00  0.00    -0.356 OA
HETATM   34  C   UNL     1     -48.902  56.913 -62.450  1.00  0.00     0.210 C 
ENDBRANCH  30  33
ENDBRANCH  26  27
ENDBRANCH  22  25
ENDBRANCH   1  21
TORSDOF 7
ENDMDL
MODEL 3
REMARK VINA RESULT:      -7.8      2.937      5.480
REMARK  7 active torsions:
REMARK  status: ('A' for Active; 'I' for Inactive)
REMARK    1  A    between atoms: O_2  and  C_3 
REMARK    2  A    between atoms: C_6  and  C_7 
REMARK    3  A    between atoms: N_8  and  N_9 
REMARK       I    between atoms: N_9  and  C_10 
REMARK    4  A    between atoms: C_10  and  C_11 
REMARK       I    between atoms: C_11  and  N_12 
REMARK    5  A    between atoms: N_12  and  C_13 
REMARK    6  A    between atoms: C_14  and  C_15 
REMARK       I    between atoms: C_15  and  N_16 
REMARK    7  A    between atoms: N_16  and  C_17 
ROOT
HETATM    1  C   UNL     1     -45.527  60.018 -50.736  1.00  0.00     0.315 C 
HETATM    2  N   UNL     1     -44.413  59.810 -51.526  1.00  0.00    -0.318 N 
HETATM    3  O   UNL     1     -46.622  59.482 -50.788  1.00  0.00    -0.262 OA
HETATM    4  H   UNL     1     -43.732  60.567 -51.447  1.00  0.00     0.169 HD
ENDROOT
BRANCH   2   5
HETATM    5  C   UNL     1     -44.322  58.959 -52.644  1.00  0.00     0.051 A 
HETATM    6  C   UNL     1     -44.264  57.554 -52.627  1.00  0.00     0.058 A 
HETATM    7  C   UNL     1     -44.286  56.845 -53.846  1.00  0.00     0.019 A 
HETATM    8  C   UNL     1     -44.314  57.515 -55.068  1.00  0.00     0.001 A 
HETATM    9  C   UNL     1     -44.305  58.903 -55.088  1.00  0.00     0.002 A 
HETATM   10  C   UNL     1     -44.303  59.618 -53.888  1.00  0.00     0.030 A 
BRANCH   6  11
HETATM   11  C   UNL     1     -43.977  56.707 -51.437  1.00  0.00     0.254 C 
HETATM   12  N   UNL     1     -42.884  55.867 -51.548  1.00  0.00    -0.352 N 
HETATM   13  H   UNL     1     -42.366  55.880 -52.416  1.00  0.00     0.163 HD
HETATM   14  O   UNL     1     -44.776  56.665 -50.508  1.00  0.00    -0.268 OA
BRANCH  12  15
HETATM   15  C   UNL     1     -42.710  54.734 -50.645  1.00  0.00     0.084 C 
HETATM   16  C   UNL     1     -42.271  53.483 -51.422  1.00  0.00     0.025 C 
HETATM   17  C   UNL     1     -40.808  53.542 -51.859  1.00  0.00     0.002 C 
HETATM   18  C   UNL     1     -39.883  53.803 -50.676  1.00  0.00     0.000 C 
HETATM   19  C   UNL     1     -40.279  55.073 -49.931  1.00  0.00     0.002 C 
HETATM   20  C   UNL     1     -41.742  55.036 -49.491  1.00  0.00     0.025 C 
ENDBRANCH  12  15
ENDBRANCH   6  11
ENDBRANCH   2   5
BRANCH   1  21
HETATM   21  C   UNL     1     -45.299  61.164 -49.737  1.00  0.00     0.329 C 
HETATM   22  N   UNL     1     -44.791  60.731 -48.529  1.00  0.00    -0.239 N 
HETATM   23  H   UNL     1     -44.632  59.733 -48.401  1.00  0.00     0.192 HD
HETATM   24  O   UNL     1     -45.593  62.305 -50.078  1.00  0.00    -0.261 OA
BRANCH  22  25
HETATM   25  N   UNL     1     -44.583  61.617 -47.517  1.00  0.00    -0.183 NA
HETATM   26  C   UNL     1     -44.973  61.232 -46.344  1.00  0.00     0.150 C 
BRANCH  26  27
HETATM   27  C   UNL     1     -44.824  62.099 -45.156  1.00  0.00    -0.017 A 
HETATM   28  C   UNL     1     -45.522  63.305 -45.056  1.00  0.00     0.016 A 
HETATM   29  C   UNL     1     -45.372  64.099 -43.917  1.00  0.00     0.037 A 
HETATM   30  C   UNL     1     -44.541  63.692 -42.870  1.00  0.00     0.068 A 
HETATM   31  C   UNL     1     -43.835  62.492 -42.980  1.00  0.00     0.037 A 
HETATM   32  C   UNL     1     -43.977  61.694 -44.122  1.00  0.00     0.016 A 
BRANCH  30  33
HETATM   33  O   UNL     1     -44.489  64.555 -41.810  1.00  0.00    -0.356 OA
HETATM   34  C   UNL     1     -43.992  64.030 -40.585  1.00  0.00     0.210 C 
ENDBRANCH  30  33
ENDBRANCH  26  27
ENDBRANCH  22  25
ENDBRANCH   1  21
TORSDOF 7
ENDMDL
MODEL 4
REMARK VINA RESULT:      -7.7      3.585     10.599
REMARK  7 active torsions:
REMARK  status: ('A' for Active; 'I' for Inactive)
REMARK    1  A    between atoms: O_2  and  C_3 
REMARK    2  A    between atoms: C_6  and  C_7 
REMARK    3  A    between atoms: N_8  and  N_9 
REMARK       I    between atoms: N_9  and  C_10 
REMARK    4  A    between atoms: C_10  and  C_11 
REMARK       I    between atoms: C_11  and  N_12 
REMARK    5  A    between atoms: N_12  and  C_13 
REMARK    6  A    between atoms: C_14  and  C_15 
REMARK       I    between atoms: C_15  and  N_16 
REMARK    7  A    between atoms: N_16  and  C_17 
ROOT
HETATM    1  C   UNL     1     -45.271  58.595 -51.054  1.00  0.00     0.315 C 
HETATM    2  N   UNL     1     -44.811  59.432 -52.050  1.00  0.00    -0.318 N 
HETATM    3  O   UNL     1     -46.148  58.787 -50.226  1.00  0.00    -0.262 OA
HETATM    4  H   UNL     1     -43.905  59.138 -52.419  1.00  0.00     0.169 HD
ENDROOT
BRANCH   2   5
HETATM    5  C   UNL     1     -45.218  60.759 -52.288  1.00  0.00     0.051 A 
HETATM    6  C   UNL     1     -44.847  61.896 -51.549  1.00  0.00     0.058 A 
HETATM    7  C   UNL     1     -45.257  63.171 -51.987  1.00  0.00     0.019 A 
HETATM    8  C   UNL     1     -46.064  63.321 -53.113  1.00  0.00     0.001 A 
HETATM    9  C   UNL     1     -46.486  62.194 -53.808  1.00  0.00     0.002 A 
HETATM   10  C   UNL     1     -46.071  60.926 -53.395  1.00  0.00     0.030 A 
BRANCH   6  11
HETATM   11  C   UNL     1     -44.213  61.892 -50.202  1.00  0.00     0.254 C 
HETATM   12  N   UNL     1     -45.064  61.653 -49.138  1.00  0.00    -0.352 N 
HETATM   13  H   UNL     1     -46.044  61.507 -49.342  1.00  0.00     0.163 HD
HETATM   14  O   UNL     1     -43.045  62.245 -50.073  1.00  0.00    -0.268 OA
BRANCH  12  15
HETATM   15  C   UNL     1     -44.676  61.991 -47.772  1.00  0.00     0.084 C 
HETATM   16  C   UNL     1     -45.099  63.426 -47.426  1.00  0.00     0.025 C 
HETATM   17  C   UNL     1     -46.602  63.558 -47.184  1.00  0.00     0.002 C 
HETATM   18  C   UNL     1     -47.083  62.576 -46.122  1.00  0.00     0.000 C 
HETATM   19  C   UNL     1     -46.715  61.142 -46.485  1.00  0.00     0.002 C 
HETATM   20  C   UNL     1     -45.216  60.991 -46.738  1.00  0.00     0.025 C 
ENDBRANCH  12  15
ENDBRANCH   6  11
ENDBRANCH   2   5
BRANCH   1  21
HETATM   21  C   UNL     1     -44.449  57.297 -50.988  1.00  0.00     0.329 C 
HETATM   22  N   UNL     1     -43.210  57.416 -51.583  1.00  0.00    -0.239 N 
HETATM   23  H   UNL     1     -42.961  58.306 -52.010  1.00  0.00     0.192 HD
HETATM   24  O   UNL     1     -44.951  56.313 -50.455  1.00  0.00    -0.261 OA
BRANCH  22  25
HETATM   25  N   UNL     1     -42.380  56.339 -51.655  1.00  0.00    -0.183 NA
HETATM   26  C   UNL     1     -42.482  55.622 -52.728  1.00  0.00     0.150 C 
BRANCH  26  27
HETATM   27  C   UNL     1     -41.655  54.414 -52.934  1.00  0.00    -0.017 A 
HETATM   28  C   UNL     1     -40.948  53.840 -51.875  1.00  0.00     0.016 A 
HETATM   29  C   UNL     1     -40.183  52.692 -52.096  1.00  0.00     0.037 A 
HETATM   30  C   UNL     1     -40.129  52.105 -53.362  1.00  0.00     0.068 A 
HETATM   31  C   UNL     1     -40.826  52.691 -54.421  1.00  0.00     0.037 A 
HETATM   32  C   UNL     1     -41.591  53.845 -54.208  1.00  0.00     0.016 A 
BRANCH  30  33
HETATM   33  O   UNL     1     -39.352  50.981 -53.442  1.00  0.00    -0.356 OA
HETATM   34  C   UNL     1     -39.733  50.011 -54.409  1.00  0.00     0.210 C 
ENDBRANCH  30  33
ENDBRANCH  26  27
ENDBRANCH  22  25
ENDBRANCH   1  21
TORSDOF 7
ENDMDL
MODEL 5
REMARK VINA RESULT:      -7.6      4.869      8.686
REMARK  7 active torsions:
REMARK  status: ('A' for Active; 'I' for Inactive)
REMARK    1  A    between atoms: O_2  and  C_3 
REMARK    2  A    between atoms: C_6  and  C_7 
REMARK    3  A    between atoms: N_8  and  N_9 
REMARK       I    between atoms: N_9  and  C_10 
REMARK    4  A    between atoms: C_10  and  C_11 
REMARK       I    between atoms: C_11  and  N_12 
REMARK    5  A    between atoms: N_12  and  C_13 
REMARK    6  A    between atoms: C_14  and  C_15 
REMARK       I    between atoms: C_15  and  N_16 
REMARK    7  A    between atoms: N_16  and  C_17 
ROOT
HETATM    1  C   UNL     1     -42.593  59.485 -53.303  1.00  0.00     0.315 C 
HETATM    2  N   UNL     1     -43.772  59.380 -54.014  1.00  0.00    -0.318 N 
HETATM    3  O   UNL     1     -41.812  60.421 -53.234  1.00  0.00    -0.262 OA
HETATM    4  H   UNL     1     -44.084  58.413 -54.112  1.00  0.00     0.169 HD
ENDROOT
BRANCH   2   5
HETATM    5  C   UNL     1     -44.307  60.335 -54.900  1.00  0.00     0.051 A 
HETATM    6  C   UNL     1     -43.998  60.482 -56.263  1.00  0.00     0.058 A 
HETATM    7  C   UNL     1     -44.707  61.422 -57.037  1.00  0.00     0.019 A 
HETATM    8  C   UNL     1     -45.676  62.244 -56.463  1.00  0.00     0.001 A 
HETATM    9  C   UNL     1     -45.937  62.146 -55.103  1.00  0.00     0.002 A 
HETATM   10  C   UNL     1     -45.254  61.205 -54.328  1.00  0.00     0.030 A 
BRANCH   6  11
HETATM   11  C   UNL     1     -42.833  59.874 -56.964  1.00  0.00     0.254 C 
HETATM   12  N   UNL     1     -43.139  58.992 -57.984  1.00  0.00    -0.352 N 
HETATM   13  H   UNL     1     -44.116  58.817 -58.178  1.00  0.00     0.163 HD
HETATM   14  O   UNL     1     -41.699  60.042 -56.527  1.00  0.00    -0.268 OA
BRANCH  12  15
HETATM   15  C   UNL     1     -42.146  58.050 -58.490  1.00  0.00     0.084 C 
HETATM   16  C   UNL     1     -42.213  56.723 -57.721  1.00  0.00     0.025 C 
HETATM   17  C   UNL     1     -43.423  55.875 -58.110  1.00  0.00     0.002 C 
HETATM   18  C   UNL     1     -43.476  55.637 -59.614  1.00  0.00     0.000 C 
HETATM   19  C   UNL     1     -43.465  56.953 -60.385  1.00  0.00     0.002 C 
HETATM   20  C   UNL     1     -42.265  57.818 -60.004  1.00  0.00     0.025 C 
ENDBRANCH  12  15
ENDBRANCH   6  11
ENDBRANCH   2   5
BRANCH   1  21
HETATM   21  C   UNL     1     -42.242  58.163 -52.601  1.00  0.00     0.329 C 
HETATM   22  N   UNL     1     -41.942  57.148 -53.487  1.00  0.00    -0.239 N 
HETATM   23  H   UNL     1     -41.992  57.346 -54.485  1.00  0.00     0.192 HD
HETATM   24  O   UNL     1     -42.276  58.123 -51.376  1.00  0.00    -0.261 OA
BRANCH  22  25
HETATM   25  N   UNL     1     -41.661  55.898 -53.026  1.00  0.00    -0.183 NA
HETATM   26  C   UNL     1     -40.872  55.190 -53.769  1.00  0.00     0.150 C 
BRANCH  26  27
HETATM   27  C   UNL     1     -40.494  53.809 -53.400  1.00  0.00    -0.017 A 
HETATM   28  C   UNL     1     -40.293  53.453 -52.065  1.00  0.00     0.016 A 
HETATM   29  C   UNL     1     -39.948  52.138 -51.744  1.00  0.00     0.037 A 
HETATM   30  C   UNL     1     -39.814  51.172 -52.745  1.00  0.00     0.068 A 
HETATM   31  C   UNL     1     -40.002  51.537 -54.080  1.00  0.00     0.037 A 
HETATM   32  C   UNL     1     -40.343  52.855 -54.409  1.00  0.00     0.016 A 
BRANCH  30  33
HETATM   33  O   UNL     1     -39.482  49.923 -52.297  1.00  0.00    -0.356 OA
HETATM   34  C   UNL     1     -39.530  49.717 -50.891  1.00  0.00     0.210 C 
ENDBRANCH  30  33
ENDBRANCH  26  27
ENDBRANCH  22  25
ENDBRANCH   1  21
TORSDOF 7
ENDMDL
MODEL 6
REMARK VINA RESULT:      -7.6      6.112      9.103
REMARK  7 active torsions:
REMARK  status: ('A' for Active; 'I' for Inactive)
REMARK    1  A    between atoms: O_2  and  C_3 
REMARK    2  A    between atoms: C_6  and  C_7 
REMARK    3  A    between atoms: N_8  and  N_9 
REMARK       I    between atoms: N_9  and  C_10 
REMARK    4  A    between atoms: C_10  and  C_11 
REMARK       I    between atoms: C_11  and  N_12 
REMARK    5  A    between atoms: N_12  and  C_13 
REMARK    6  A    between atoms: C_14  and  C_15 
REMARK       I    between atoms: C_15  and  N_16 
REMARK    7  A    between atoms: N_16  and  C_17 
ROOT
HETATM    1  C   UNL     1     -44.747  57.829 -55.748  1.00  0.00     0.315 C 
HETATM    2  N   UNL     1     -44.674  57.316 -57.028  1.00  0.00    -0.318 N 
HETATM    3  O   UNL     1     -45.265  58.863 -55.358  1.00  0.00    -0.262 OA
HETATM    4  H   UNL     1     -43.964  56.588 -57.117  1.00  0.00     0.169 HD
ENDROOT
BRANCH   2   5
HETATM    5  C   UNL     1     -45.134  57.932 -58.209  1.00  0.00     0.051 A 
HETATM    6  C   UNL     1     -44.371  58.694 -59.110  1.00  0.00     0.058 A 
HETATM    7  C   UNL     1     -44.962  59.150 -60.305  1.00  0.00     0.019 A 
HETATM    8  C   UNL     1     -46.305  58.901 -60.585  1.00  0.00     0.001 A 
HETATM    9  C   UNL     1     -47.078  58.205 -59.665  1.00  0.00     0.002 A 
HETATM   10  C   UNL     1     -46.499  57.731 -58.486  1.00  0.00     0.030 A 
BRANCH   6  11
HETATM   11  C   UNL     1     -43.018  59.258 -58.848  1.00  0.00     0.254 C 
HETATM   12  N   UNL     1     -42.782  60.518 -59.368  1.00  0.00    -0.352 N 
HETATM   13  H   UNL     1     -43.528  60.960 -59.888  1.00  0.00     0.163 HD
HETATM   14  O   UNL     1     -42.148  58.554 -58.347  1.00  0.00    -0.268 OA
BRANCH  12  15
HETATM   15  C   UNL     1     -41.423  61.026 -59.524  1.00  0.00     0.084 C 
HETATM   16  C   UNL     1     -41.293  61.840 -60.820  1.00  0.00     0.025 C 
HETATM   17  C   UNL     1     -41.949  63.217 -60.722  1.00  0.00     0.002 C 
HETATM   18  C   UNL     1     -41.419  64.002 -59.527  1.00  0.00     0.000 C 
HETATM   19  C   UNL     1     -41.594  63.223 -58.229  1.00  0.00     0.002 C 
HETATM   20  C   UNL     1     -40.950  61.840 -58.310  1.00  0.00     0.025 C 
ENDBRANCH  12  15
ENDBRANCH   6  11
ENDBRANCH   2   5
BRANCH   1  21
HETATM   21  C   UNL     1     -43.962  56.961 -54.751  1.00  0.00     0.329 C 
HETATM   22  N   UNL     1     -43.857  55.645 -55.152  1.00  0.00    -0.239 N 
HETATM   23  H   UNL     1     -44.301  55.368 -56.025  1.00  0.00     0.192 HD
HETATM   24  O   UNL     1     -43.535  57.485 -53.728  1.00  0.00    -0.261 OA
BRANCH  22  25
HETATM   25  N   UNL     1     -43.236  54.734 -54.353  1.00  0.00    -0.183 NA
HETATM   26  C   UNL     1     -41.981  54.534 -54.599  1.00  0.00     0.150 C 
BRANCH  26  27
HETATM   27  C   UNL     1     -41.184  53.561 -53.822  1.00  0.00    -0.017 A 
HETATM   28  C   UNL     1     -41.035  53.698 -52.440  1.00  0.00     0.016 A 
HETATM   29  C   UNL     1     -40.286  52.757 -51.729  1.00  0.00     0.037 A 
HETATM   30  C   UNL     1     -39.696  51.673 -52.384  1.00  0.00     0.068 A 
HETATM   31  C   UNL     1     -39.837  51.549 -53.768  1.00  0.00     0.037 A 
HETATM   32  C   UNL     1     -40.582  52.492 -54.488  1.00  0.00     0.016 A 
BRANCH  30  33
HETATM   33  O   UNL     1     -38.998  50.822 -51.572  1.00  0.00    -0.356 OA
HETATM   34  C   UNL     1     -39.725  49.730 -51.021  1.00  0.00     0.210 C 
ENDBRANCH  30  33
ENDBRANCH  26  27
ENDBRANCH  22  25
ENDBRANCH   1  21
TORSDOF 7
ENDMDL
MODEL 7
REMARK VINA RESULT:      -7.6      4.532      9.712
REMARK  7 active torsions:
REMARK  status: ('A' for Active; 'I' for Inactive)
REMARK    1  A    between atoms: O_2  and  C_3 
REMARK    2  A    between atoms: C_6  and  C_7 
REMARK    3  A    between atoms: N_8  and  N_9 
REMARK       I    between atoms: N_9  and  C_10 
REMARK    4  A    between atoms: C_10  and  C_11 
REMARK       I    between atoms: C_11  and  N_12 
REMARK    5  A    between atoms: N_12  and  C_13 
REMARK    6  A    between atoms: C_14  and  C_15 
REMARK       I    between atoms: C_15  and  N_16 
REMARK    7  A    between atoms: N_16  and  C_17 
ROOT
HETATM    1  C   UNL     1     -43.212  57.435 -57.332  1.00  0.00     0.315 C 
HETATM    2  N   UNL     1     -42.205  58.363 -57.158  1.00  0.00    -0.318 N 
HETATM    3  O   UNL     1     -44.364  57.603 -57.700  1.00  0.00    -0.262 OA
HETATM    4  H   UNL     1     -41.435  58.002 -56.593  1.00  0.00     0.169 HD
ENDROOT
BRANCH   2   5
HETATM    5  C   UNL     1     -42.316  59.761 -57.301  1.00  0.00     0.051 A 
HETATM    6  C   UNL     1     -42.778  60.670 -56.334  1.00  0.00     0.058 A 
HETATM    7  C   UNL     1     -42.722  62.053 -56.600  1.00  0.00     0.019 A 
HETATM    8  C   UNL     1     -42.263  62.532 -57.826  1.00  0.00     0.001 A 
HETATM    9  C   UNL     1     -41.868  61.633 -58.808  1.00  0.00     0.002 A 
HETATM   10  C   UNL     1     -41.900  60.260 -58.550  1.00  0.00     0.030 A 
BRANCH   6  11
HETATM   11  C   UNL     1     -43.524  60.320 -55.094  1.00  0.00     0.254 C 
HETATM   12  N   UNL     1     -42.749  60.072 -53.976  1.00  0.00    -0.352 N 
HETATM   13  H   UNL     1     -41.745  60.137 -54.075  1.00  0.00     0.163 HD
HETATM   14  O   UNL     1     -44.732  60.113 -55.145  1.00  0.00    -0.268 OA
BRANCH  12  15
HETATM   15  C   UNL     1     -43.294  59.362 -52.823  1.00  0.00     0.084 C 
HETATM   16  C   UNL     1     -42.779  57.916 -52.782  1.00  0.00     0.025 C 
HETATM   17  C   UNL     1     -41.322  57.820 -52.331  1.00  0.00     0.002 C 
HETATM   18  C   UNL     1     -41.107  58.516 -50.991  1.00  0.00     0.000 C 
HETATM   19  C   UNL     1     -41.567  59.968 -51.040  1.00  0.00     0.002 C 
HETATM   20  C   UNL     1     -43.020  60.085 -51.496  1.00  0.00     0.025 C 
ENDBRANCH  12  15
ENDBRANCH   6  11
ENDBRANCH   2   5
BRANCH   1  21
HETATM   21  C   UNL     1     -42.763  56.031 -56.893  1.00  0.00     0.329 C 
HETATM   22  N   UNL     1     -41.753  56.062 -55.952  1.00  0.00    -0.239 N 
HETATM   23  H   UNL     1     -41.397  56.967 -55.654  1.00  0.00     0.192 HD
HETATM   24  O   UNL     1     -43.301  55.057 -57.406  1.00  0.00    -0.261 OA
BRANCH  22  25
HETATM   25  N   UNL     1     -41.207  54.900 -55.498  1.00  0.00    -0.183 NA
HETATM   26  C   UNL     1     -41.323  54.684 -54.226  1.00  0.00     0.150 C 
BRANCH  26  27
HETATM   27  C   UNL     1     -40.763  53.473 -53.592  1.00  0.00    -0.017 A 
HETATM   28  C   UNL     1     -40.448  52.345 -54.354  1.00  0.00     0.016 A 
HETATM   29  C   UNL     1     -39.909  51.217 -53.731  1.00  0.00     0.037 A 
HETATM   30  C   UNL     1     -39.669  51.210 -52.354  1.00  0.00     0.068 A 
HETATM   31  C   UNL     1     -39.998  52.335 -51.595  1.00  0.00     0.037 A 
HETATM   32  C   UNL     1     -40.544  53.468 -52.213  1.00  0.00     0.016 A 
BRANCH  30  33
HETATM   33  O   UNL     1     -39.131  50.049 -51.871  1.00  0.00    -0.356 OA
HETATM   34  C   UNL     1     -39.549  49.647 -50.571  1.00  0.00     0.210 C 
ENDBRANCH  30  33
ENDBRANCH  26  27
ENDBRANCH  22  25
ENDBRANCH   1  21
TORSDOF 7
ENDMDL
MODEL 8
REMARK VINA RESULT:      -7.5      3.632     10.883
REMARK  7 active torsions:
REMARK  status: ('A' for Active; 'I' for Inactive)
REMARK    1  A    between atoms: O_2  and  C_3 
REMARK    2  A    between atoms: C_6  and  C_7 
REMARK    3  A    between atoms: N_8  and  N_9 
REMARK       I    between atoms: N_9  and  C_10 
REMARK    4  A    between atoms: C_10  and  C_11 
REMARK       I    between atoms: C_11  and  N_12 
REMARK    5  A    between atoms: N_12  and  C_13 
REMARK    6  A    between atoms: C_14  and  C_15 
REMARK       I    between atoms: C_15  and  N_16 
REMARK    7  A    between atoms: N_16  and  C_17 
ROOT
HETATM    1  C   UNL     1     -42.402  60.000 -52.944  1.00  0.00     0.315 C 
HETATM    2  N   UNL     1     -43.566  59.682 -52.274  1.00  0.00    -0.318 N 
HETATM    3  O   UNL     1     -42.093  61.039 -53.506  1.00  0.00    -0.262 OA
HETATM    4  H   UNL     1     -43.674  58.676 -52.135  1.00  0.00     0.169 HD
ENDROOT
BRANCH   2   5
HETATM    5  C   UNL     1     -44.715  60.489 -52.155  1.00  0.00     0.051 A 
HETATM    6  C   UNL     1     -45.092  61.253 -51.036  1.00  0.00     0.058 A 
HETATM    7  C   UNL     1     -46.219  62.094 -51.120  1.00  0.00     0.019 A 
HETATM    8  C   UNL     1     -46.997  62.144 -52.276  1.00  0.00     0.001 A 
HETATM    9  C   UNL     1     -46.664  61.341 -53.359  1.00  0.00     0.002 A 
HETATM   10  C   UNL     1     -45.538  60.517 -53.296  1.00  0.00     0.030 A 
BRANCH   6  11
HETATM   11  C   UNL     1     -44.531  61.124 -49.663  1.00  0.00     0.254 C 
HETATM   12  N   UNL     1     -45.450  61.184 -48.631  1.00  0.00    -0.352 N 
HETATM   13  H   UNL     1     -46.423  61.315 -48.873  1.00  0.00     0.163 HD
HETATM   14  O   UNL     1     -43.316  61.134 -49.494  1.00  0.00    -0.268 OA
BRANCH  12  15
HETATM   15  C   UNL     1     -45.027  61.454 -47.260  1.00  0.00     0.084 C 
HETATM   16  C   UNL     1     -44.958  62.966 -47.001  1.00  0.00     0.025 C 
HETATM   17  C   UNL     1     -46.339  63.604 -46.852  1.00  0.00     0.002 C 
HETATM   18  C   UNL     1     -47.164  62.902 -45.779  1.00  0.00     0.000 C 
HETATM   19  C   UNL     1     -47.282  61.409 -46.059  1.00  0.00     0.002 C 
HETATM   20  C   UNL     1     -45.912  60.753 -46.217  1.00  0.00     0.025 C 
ENDBRANCH  12  15
ENDBRANCH   6  11
ENDBRANCH   2   5
BRANCH   1  21
HETATM   21  C   UNL     1     -41.453  58.793 -53.024  1.00  0.00     0.329 C 
HETATM   22  N   UNL     1     -42.056  57.612 -52.641  1.00  0.00    -0.239 N 
HETATM   23  H   UNL     1     -43.027  57.640 -52.336  1.00  0.00     0.192 HD
HETATM   24  O   UNL     1     -40.297  58.980 -53.385  1.00  0.00    -0.261 OA
BRANCH  22  25
HETATM   25  N   UNL     1     -41.335  56.457 -52.605  1.00  0.00    -0.183 NA
HETATM   26  C   UNL     1     -41.857  55.450 -53.230  1.00  0.00     0.150 C 
BRANCH  26  27
HETATM   27  C   UNL     1     -41.193  54.130 -53.261  1.00  0.00    -0.017 A 
HETATM   28  C   UNL     1     -41.170  53.366 -54.430  1.00  0.00     0.016 A 
HETATM   29  C   UNL     1     -40.525  52.126 -54.434  1.00  0.00     0.037 A 
HETATM   30  C   UNL     1     -39.893  51.649 -53.284  1.00  0.00     0.068 A 
HETATM   31  C   UNL     1     -39.931  52.410 -52.113  1.00  0.00     0.037 A 
HETATM   32  C   UNL     1     -40.580  53.651 -52.101  1.00  0.00     0.016 A 
BRANCH  30  33
HETATM   33  O   UNL     1     -39.292  50.428 -53.423  1.00  0.00    -0.356 OA
HETATM   34  C   UNL     1     -39.570  49.463 -52.416  1.00  0.00     0.210 C 
ENDBRANCH  30  33
ENDBRANCH  26  27
ENDBRANCH  22  25
ENDBRANCH   1  21
TORSDOF 7
ENDMDL
MODEL 9
REMARK VINA RESULT:      -7.5      3.762     10.211
REMARK  7 active torsions:
REMARK  status: ('A' for Active; 'I' for Inactive)
REMARK    1  A    between atoms: O_2  and  C_3 
REMARK    2  A    between atoms: C_6  and  C_7 
REMARK    3  A    between atoms: N_8  and  N_9 
REMARK       I    between atoms: N_9  and  C_10 
REMARK    4  A    between atoms: C_10  and  C_11 
REMARK       I    between atoms: C_11  and  N_12 
REMARK    5  A    between atoms: N_12  and  C_13 
REMARK    6  A    between atoms: C_14  and  C_15 
REMARK       I    between atoms: C_15  and  N_16 
REMARK    7  A    between atoms: N_16  and  C_17 
ROOT
HETATM    1  C   UNL     1     -45.082  59.010 -50.929  1.00  0.00     0.315 C 
HETATM    2  N   UNL     1     -44.766  60.354 -50.970  1.00  0.00    -0.318 N 
HETATM    3  O   UNL     1     -45.978  58.445 -50.323  1.00  0.00    -0.262 OA
HETATM    4  H   UNL     1     -43.824  60.522 -51.327  1.00  0.00     0.169 HD
ENDROOT
BRANCH   2   5
HETATM    5  C   UNL     1     -45.386  61.386 -50.238  1.00  0.00     0.051 A 
HETATM    6  C   UNL     1     -46.484  62.162 -50.648  1.00  0.00     0.058 A 
HETATM    7  C   UNL     1     -47.055  63.084 -49.748  1.00  0.00     0.019 A 
HETATM    8  C   UNL     1     -46.518  63.277 -48.477  1.00  0.00     0.001 A 
HETATM    9  C   UNL     1     -45.392  62.558 -48.093  1.00  0.00     0.002 A 
HETATM   10  C   UNL     1     -44.829  61.627 -48.969  1.00  0.00     0.030 A 
BRANCH   6  11
HETATM   11  C   UNL     1     -47.010  62.264 -52.037  1.00  0.00     0.254 C 
HETATM   12  N   UNL     1     -48.336  62.642 -52.151  1.00  0.00    -0.352 N 
HETATM   13  H   UNL     1     -48.851  62.815 -51.298  1.00  0.00     0.163 HD
HETATM   14  O   UNL     1     -46.332  61.869 -52.980  1.00  0.00    -0.268 OA
BRANCH  12  15
HETATM   15  C   UNL     1     -49.081  62.417 -53.386  1.00  0.00     0.084 C 
HETATM   16  C   UNL     1     -50.472  61.842 -53.084  1.00  0.00     0.025 C 
HETATM   17  C   UNL     1     -51.436  62.888 -52.525  1.00  0.00     0.002 C 
HETATM   18  C   UNL     1     -51.534  64.101 -53.442  1.00  0.00     0.000 C 
HETATM   19  C   UNL     1     -50.162  64.712 -53.703  1.00  0.00     0.002 C 
HETATM   20  C   UNL     1     -49.181  63.679 -54.257  1.00  0.00     0.025 C 
ENDBRANCH  12  15
ENDBRANCH   6  11
ENDBRANCH   2   5
BRANCH   1  21
HETATM   21  C   UNL     1     -44.057  58.170 -51.709  1.00  0.00     0.329 C 
HETATM   22  N   UNL     1     -44.443  56.852 -51.853  1.00  0.00    -0.239 N 
HETATM   23  H   UNL     1     -45.323  56.557 -51.436  1.00  0.00     0.192 HD
HETATM   24  O   UNL     1     -43.030  58.713 -52.100  1.00  0.00    -0.261 OA
BRANCH  22  25
HETATM   25  N   UNL     1     -43.620  55.963 -52.474  1.00  0.00    -0.183 NA
HETATM   26  C   UNL     1     -42.956  55.172 -51.694  1.00  0.00     0.150 C 
BRANCH  26  27
HETATM   27  C   UNL     1     -42.013  54.168 -52.231  1.00  0.00    -0.017 A 
HETATM   28  C   UNL     1     -42.022  53.827 -53.586  1.00  0.00     0.016 A 
HETATM   29  C   UNL     1     -41.112  52.884 -54.068  1.00  0.00     0.037 A 
HETATM   30  C   UNL     1     -40.184  52.286 -53.211  1.00  0.00     0.068 A 
HETATM   31  C   UNL     1     -40.188  52.620 -51.855  1.00  0.00     0.037 A 
HETATM   32  C   UNL     1     -41.101  53.561 -51.363  1.00  0.00     0.016 A 
BRANCH  30  33
HETATM   33  O   UNL     1     -39.345  51.387 -53.810  1.00  0.00    -0.356 OA
HETATM   34  C   UNL     1     -39.917  50.145 -54.201  1.00  0.00     0.210 C 
ENDBRANCH  30  33
ENDBRANCH  26  27
ENDBRANCH  22  25
ENDBRANCH   1  21
TORSDOF 7
ENDMDL
MODEL 10
REMARK VINA RESULT:      -7.4      4.244      5.556
REMARK  7 active torsions:
REMARK  status: ('A' for Active; 'I' for Inactive)
REMARK    1  A    between atoms: O_2  and  C_3 
REMARK    2  A    between atoms: C_6  and  C_7 
REMARK    3  A    between atoms: N_8  and  N_9 
REMARK       I    between atoms: N_9  and  C_10 
REMARK    4  A    between atoms: C_10  and  C_11 
REMARK       I    between atoms: C_11  and  N_12 
REMARK    5  A    between atoms: N_12  and  C_13 
REMARK    6  A    between atoms: C_14  and  C_15 
REMARK       I    between atoms: C_15  and  N_16 
REMARK    7  A    between atoms: N_16  and  C_17 
ROOT
HETATM    1  C   UNL     1     -40.477  53.590 -49.866  1.00  0.00     0.315 C 
HETATM    2  N   UNL     1     -40.298  53.451 -51.228  1.00  0.00    -0.318 N 
HETATM    3  O   UNL     1     -40.431  52.741 -48.990  1.00  0.00    -0.262 OA
HETATM    4  H   UNL     1     -40.652  54.253 -51.751  1.00  0.00     0.169 HD
ENDROOT
BRANCH   2   5
HETATM    5  C   UNL     1     -40.089  52.248 -51.931  1.00  0.00     0.051 A 
HETATM    6  C   UNL     1     -40.075  52.084 -53.327  1.00  0.00     0.058 A 
HETATM    7  C   UNL     1     -39.742  50.828 -53.872  1.00  0.00     0.019 A 
HETATM    8  C   UNL     1     -39.475  49.733 -53.051  1.00  0.00     0.001 A 
HETATM    9  C   UNL     1     -39.553  49.878 -51.672  1.00  0.00     0.002 A 
HETATM   10  C   UNL     1     -39.863  51.122 -51.118  1.00  0.00     0.030 A 
BRANCH   6  11
HETATM   11  C   UNL     1     -40.578  53.066 -54.326  1.00  0.00     0.254 C 
HETATM   12  N   UNL     1     -41.862  53.535 -54.114  1.00  0.00    -0.352 N 
HETATM   13  H   UNL     1     -42.367  53.180 -53.313  1.00  0.00     0.163 HD
HETATM   14  O   UNL     1     -39.931  53.291 -55.343  1.00  0.00    -0.268 OA
BRANCH  12  15
HETATM   15  C   UNL     1     -42.613  54.184 -55.184  1.00  0.00     0.084 C 
HETATM   16  C   UNL     1     -44.001  54.616 -54.688  1.00  0.00     0.025 C 
HETATM   17  C   UNL     1     -43.948  55.848 -53.784  1.00  0.00     0.002 C 
HETATM   18  C   UNL     1     -43.225  57.005 -54.462  1.00  0.00     0.000 C 
HETATM   19  C   UNL     1     -41.825  56.599 -54.910  1.00  0.00     0.002 C 
HETATM   20  C   UNL     1     -41.856  55.365 -55.809  1.00  0.00     0.025 C 
ENDBRANCH  12  15
ENDBRANCH   6  11
ENDBRANCH   2   5
BRANCH   1  21
HETATM   21  C   UNL     1     -40.876  55.028 -49.496  1.00  0.00     0.329 C 
HETATM   22  N   UNL     1     -40.988  55.853 -50.597  1.00  0.00    -0.239 N 
HETATM   23  H   UNL     1     -40.791  55.463 -51.516  1.00  0.00     0.192 HD
HETATM   24  O   UNL     1     -41.034  55.306 -48.312  1.00  0.00    -0.261 OA
BRANCH  22  25
HETATM   25  N   UNL     1     -41.284  57.173 -50.435  1.00  0.00    -0.183 NA
HETATM   26  C   UNL     1     -42.242  57.629 -51.178  1.00  0.00     0.150 C 
BRANCH  26  27
HETATM   27  C   UNL     1     -42.659  59.045 -51.120  1.00  0.00    -0.017 A 
HETATM   28  C   UNL     1     -43.862  59.463 -51.694  1.00  0.00     0.016 A 
HETATM   29  C   UNL     1     -44.237  60.806 -51.614  1.00  0.00     0.037 A 
HETATM   30  C   UNL     1     -43.426  61.735 -50.956  1.00  0.00     0.068 A 
HETATM   31  C   UNL     1     -42.217  61.315 -50.397  1.00  0.00     0.037 A 
HETATM   32  C   UNL     1     -41.833  59.970 -50.477  1.00  0.00     0.016 A 
BRANCH  30  33
HETATM   33  O   UNL     1     -43.911  63.013 -50.942  1.00  0.00    -0.356 OA
HETATM   34  C   UNL     1     -43.033  64.022 -50.457  1.00  0.00     0.210 C 
ENDBRANCH  30  33
ENDBRANCH  26  27
ENDBRANCH  22  25
ENDBRANCH   1  21
TORSDOF 7
ENDMDL
