MODEL 1
REMARK VINA RESULT:      -7.6      0.000      0.000
REMARK  4 active torsions:
REMARK  status: ('A' for Active; 'I' for Inactive)
REMARK    1  A    between atoms: C_4  and  N_5 
REMARK       I    between atoms: N_5  and  C_6 
REMARK    2  A    between atoms: C_6  and  C_7 
REMARK    3  A    between atoms: C_7  and  O_8 
REMARK    4  A    between atoms: O_8  and  C_9 
ROOT
HETATM    1  N   UNL     1     -41.534  54.895 -54.538  1.00  0.00    -0.309 N 
HETATM    2  C   UNL     1     -42.885  55.180 -54.655  1.00  0.00     0.252 C 
HETATM    3  O   UNL     1     -43.814  54.608 -54.096  1.00  0.00    -0.270 OA
HETATM    4  H   UNL     1     -40.907  55.427 -55.123  1.00  0.00     0.170 HD
ENDROOT
BRANCH   2   5
HETATM    5  C   UNL     1     -43.110  56.446 -55.511  1.00  0.00     0.217 C 
HETATM    6  C   UNL     1     -44.384  57.176 -55.113  1.00  0.00     0.050 C 
BRANCH   5   7
HETATM    7  O   UNL     1     -43.224  56.064 -56.886  1.00  0.00    -0.335 OA
BRANCH   7   8
HETATM    8  C   UNL     1     -42.861  56.946 -57.865  1.00  0.00     0.091 A 
HETATM    9  C   UNL     1     -43.160  56.579 -59.190  1.00  0.00     0.069 A 
HETATM   10 CL   UNL     1     -43.915  55.064 -59.546  1.00  0.00    -0.081 Cl
HETATM   11  C   UNL     1     -42.825  57.410 -60.260  1.00  0.00     0.050 A 
HETATM   12  C   UNL     1     -42.192  58.620 -60.009  1.00  0.00     0.035 A 
HETATM   13 CL   UNL     1     -41.756  59.644 -61.320  1.00  0.00    -0.084 Cl
HETATM   14  C   UNL     1     -41.909  59.012 -58.701  1.00  0.00     0.026 A 
HETATM   15  C   UNL     1     -42.254  58.182 -57.628  1.00  0.00     0.040 A 
ENDBRANCH   7   8
ENDBRANCH   5   7
ENDBRANCH   2   5
BRANCH   1  16
HETATM   16  C   UNL     1     -40.959  53.903 -53.739  1.00  0.00     0.130 A 
HETATM   17  C   UNL     1     -40.657  52.693 -54.359  1.00  0.00     0.057 A 
HETATM   18  C   UNL     1     -40.051  51.675 -53.620  1.00  0.00    -0.057 A 
HETATM   19  C   UNL     1     -39.664  50.375 -54.257  1.00  0.00     0.048 C 
HETATM   20  C   UNL     1     -39.783  51.907 -52.272  1.00  0.00     0.033 A 
HETATM   21  C   UNL     1     -40.126  53.137 -51.720  1.00  0.00     0.033 A 
HETATM   22  N   UNL     1     -40.694  54.127 -52.444  1.00  0.00    -0.236 NA
HETATM   23  C   UNL     1     -39.864  53.413 -50.271  1.00  0.00     0.070 C 
ENDBRANCH   1  16
TORSDOF 4
ENDMDL
MODEL 2
REMARK VINA RESULT:      -7.6      3.663      7.505
REMARK  4 active torsions:
REMARK  status: ('A' for Active; 'I' for Inactive)
REMARK    1  A    between atoms: C_4  and  N_5 
REMARK       I    between atoms: N_5  and  C_6 
REMARK    2  A    between atoms: C_6  and  C_7 
REMARK    3  A    between atoms: C_7  and  O_8 
REMARK    4  A    between atoms: O_8  and  C_9 
ROOT
HETATM    1  N   UNL     1     -42.325  55.822 -55.167  1.00  0.00    -0.309 N 
HETATM    2  C   UNL     1     -43.206  55.927 -54.103  1.00  0.00     0.252 C 
HETATM    3  O   UNL     1     -44.287  56.506 -54.090  1.00  0.00    -0.270 OA
HETATM    4  H   UNL     1     -41.446  55.361 -54.982  1.00  0.00     0.170 HD
ENDROOT
BRANCH   2   5
HETATM    5  C   UNL     1     -42.724  55.084 -52.902  1.00  0.00     0.217 C 
HETATM    6  C   UNL     1     -42.972  55.795 -51.579  1.00  0.00     0.050 C 
BRANCH   5   7
HETATM    7  O   UNL     1     -41.317  54.854 -53.030  1.00  0.00    -0.335 OA
BRANCH   7   8
HETATM    8  C   UNL     1     -40.846  53.573 -53.116  1.00  0.00     0.091 A 
HETATM    9  C   UNL     1     -40.228  53.049 -51.965  1.00  0.00     0.069 A 
HETATM   10 CL   UNL     1     -40.046  54.005 -50.536  1.00  0.00    -0.081 Cl
HETATM   11  C   UNL     1     -39.710  51.753 -51.955  1.00  0.00     0.050 A 
HETATM   12  C   UNL     1     -39.814  50.970 -53.098  1.00  0.00     0.035 A 
HETATM   13 CL   UNL     1     -39.163  49.378 -53.105  1.00  0.00    -0.084 Cl
HETATM   14  C   UNL     1     -40.444  51.465 -54.239  1.00  0.00     0.026 A 
HETATM   15  C   UNL     1     -40.972  52.761 -54.245  1.00  0.00     0.040 A 
ENDBRANCH   7   8
ENDBRANCH   5   7
ENDBRANCH   2   5
BRANCH   1  16
HETATM   16  C   UNL     1     -42.504  56.345 -56.450  1.00  0.00     0.130 A 
HETATM   17  C   UNL     1     -43.063  55.497 -57.404  1.00  0.00     0.057 A 
HETATM   18  C   UNL     1     -43.297  55.974 -58.694  1.00  0.00    -0.057 A 
HETATM   19  C   UNL     1     -43.940  55.111 -59.738  1.00  0.00     0.048 C 
HETATM   20  C   UNL     1     -42.944  57.290 -58.986  1.00  0.00     0.033 A 
HETATM   21  C   UNL     1     -42.379  58.073 -57.986  1.00  0.00     0.033 A 
HETATM   22  N   UNL     1     -42.172  57.614 -56.731  1.00  0.00    -0.236 NA
HETATM   23  C   UNL     1     -41.976  59.488 -58.271  1.00  0.00     0.070 C 
ENDBRANCH   1  16
TORSDOF 4
ENDMDL
MODEL 3
REMARK VINA RESULT:      -7.6      4.070      7.586
REMARK  4 active torsions:
REMARK  status: ('A' for Active; 'I' for Inactive)
REMARK    1  A    between atoms: C_4  and  N_5 
REMARK       I    between atoms: N_5  and  C_6 
REMARK    2  A    between atoms: C_6  and  C_7 
REMARK    3  A    between atoms: C_7  and  O_8 
REMARK    4  A    between atoms: O_8  and  C_9 
ROOT
HETATM    1  N   UNL     1     -42.309  56.415 -51.210  1.00  0.00    -0.309 N 
HETATM    2  C   UNL     1     -42.771  55.276 -50.570  1.00  0.00     0.252 C 
HETATM    3  O   UNL     1     -43.939  54.935 -50.414  1.00  0.00    -0.270 OA
HETATM    4  H   UNL     1     -41.313  56.572 -51.190  1.00  0.00     0.170 HD
ENDROOT
BRANCH   2   5
HETATM    5  C   UNL     1     -41.598  54.359 -50.159  1.00  0.00     0.217 C 
HETATM    6  C   UNL     1     -40.980  54.793 -48.838  1.00  0.00     0.050 C 
BRANCH   5   7
HETATM    7  O   UNL     1     -40.584  54.421 -51.169  1.00  0.00    -0.335 OA
BRANCH   7   8
HETATM    8  C   UNL     1     -40.311  53.313 -51.921  1.00  0.00     0.091 A 
HETATM    9  C   UNL     1     -40.451  53.445 -53.315  1.00  0.00     0.069 A 
HETATM   10 CL   UNL     1     -40.982  54.931 -54.021  1.00  0.00    -0.081 Cl
HETATM   11  C   UNL     1     -40.199  52.369 -54.168  1.00  0.00     0.050 A 
HETATM   12  C   UNL     1     -39.799  51.153 -53.629  1.00  0.00     0.035 A 
HETATM   13 CL   UNL     1     -39.505  49.814 -54.667  1.00  0.00    -0.084 Cl
HETATM   14  C   UNL     1     -39.632  51.011 -52.252  1.00  0.00     0.026 A 
HETATM   15  C   UNL     1     -39.875  52.093 -51.399  1.00  0.00     0.040 A 
ENDBRANCH   7   8
ENDBRANCH   5   7
ENDBRANCH   2   5
BRANCH   1  16
HETATM   16  C   UNL     1     -43.090  57.398 -51.825  1.00  0.00     0.130 A 
HETATM   17  C   UNL     1     -43.687  57.061 -53.037  1.00  0.00     0.057 A 
HETATM   18  C   UNL     1     -44.505  57.990 -53.681  1.00  0.00    -0.057 A 
HETATM   19  C   UNL     1     -45.206  57.654 -54.962  1.00  0.00     0.048 C 
HETATM   20  C   UNL     1     -44.682  59.239 -53.087  1.00  0.00     0.033 A 
HETATM   21  C   UNL     1     -44.043  59.507 -51.882  1.00  0.00     0.033 A 
HETATM   22  N   UNL     1     -43.267  58.597 -51.250  1.00  0.00    -0.236 NA
HETATM   23  C   UNL     1     -44.201  60.844 -51.225  1.00  0.00     0.070 C 
ENDBRANCH   1  16
TORSDOF 4
ENDMDL
MODEL 4
REMARK VINA RESULT:      -7.4      3.734      8.093
REMARK  4 active torsions:
REMARK  status: ('A' for Active; 'I' for Inactive)
REMARK    1  A    between atoms: C_4  and  N_5 
REMARK       I    between atoms: N_5  and  C_6 
REMARK    2  A    between atoms: C_6  and  C_7 
REMARK    3  A    between atoms: C_7  and  O_8 
REMARK    4  A    between atoms: O_8  and  C_9 
ROOT
HETATM    1  N   UNL     1     -42.053  55.887 -56.365  1.00  0.00    -0.309 N 
HETATM    2  C   UNL     1     -42.391  55.638 -55.045  1.00  0.00     0.252 C 
HETATM    3  O   UNL     1     -43.490  55.788 -54.520  1.00  0.00    -0.270 OA
HETATM    4  H   UNL     1     -41.082  55.769 -56.613  1.00  0.00     0.170 HD
ENDROOT
BRANCH   2   5
HETATM    5  C   UNL     1     -41.212  54.992 -54.285  1.00  0.00     0.217 C 
HETATM    6  C   UNL     1     -40.209  54.356 -55.238  1.00  0.00     0.050 C 
BRANCH   5   7
HETATM    7  O   UNL     1     -41.718  53.969 -53.421  1.00  0.00    -0.335 OA
BRANCH   7   8
HETATM    8  C   UNL     1     -41.432  54.009 -52.085  1.00  0.00     0.091 A 
HETATM    9  C   UNL     1     -40.511  53.058 -51.607  1.00  0.00     0.069 A 
HETATM   10 CL   UNL     1     -39.818  51.878 -52.665  1.00  0.00    -0.081 Cl
HETATM   11  C   UNL     1     -40.158  53.015 -50.258  1.00  0.00     0.050 A 
HETATM   12  C   UNL     1     -40.720  53.930 -49.377  1.00  0.00     0.035 A 
HETATM   13 CL   UNL     1     -40.308  53.875 -47.709  1.00  0.00    -0.084 Cl
HETATM   14  C   UNL     1     -41.616  54.895 -49.838  1.00  0.00     0.026 A 
HETATM   15  C   UNL     1     -41.962  54.944 -51.192  1.00  0.00     0.040 A 
ENDBRANCH   7   8
ENDBRANCH   5   7
ENDBRANCH   2   5
BRANCH   1  16
HETATM   16  C   UNL     1     -42.908  56.347 -57.371  1.00  0.00     0.130 A 
HETATM   17  C   UNL     1     -43.276  55.429 -58.351  1.00  0.00     0.057 A 
HETATM   18  C   UNL     1     -44.155  55.820 -59.363  1.00  0.00    -0.057 A 
HETATM   19  C   UNL     1     -44.616  54.852 -60.410  1.00  0.00     0.048 C 
HETATM   20  C   UNL     1     -44.622  57.133 -59.361  1.00  0.00     0.033 A 
HETATM   21  C   UNL     1     -44.199  57.996 -58.355  1.00  0.00     0.033 A 
HETATM   22  N   UNL     1     -43.364  57.608 -57.365  1.00  0.00    -0.236 NA
HETATM   23  C   UNL     1     -44.672  59.418 -58.333  1.00  0.00     0.070 C 
ENDBRANCH   1  16
TORSDOF 4
ENDMDL
MODEL 5
REMARK VINA RESULT:      -7.4      3.606      7.613
REMARK  4 active torsions:
REMARK  status: ('A' for Active; 'I' for Inactive)
REMARK    1  A    between atoms: C_4  and  N_5 
REMARK       I    between atoms: N_5  and  C_6 
REMARK    2  A    between atoms: C_6  and  C_7 
REMARK    3  A    between atoms: C_7  and  O_8 
REMARK    4  A    between atoms: O_8  and  C_9 
ROOT
HETATM    1  N   UNL     1     -42.161  56.289 -55.209  1.00  0.00    -0.309 N 
HETATM    2  C   UNL     1     -43.045  55.969 -54.191  1.00  0.00     0.252 C 
HETATM    3  O   UNL     1     -44.265  55.877 -54.271  1.00  0.00    -0.270 OA
HETATM    4  H   UNL     1     -41.190  56.384 -54.952  1.00  0.00     0.170 HD
ENDROOT
BRANCH   2   5
HETATM    5  C   UNL     1     -42.286  55.591 -52.900  1.00  0.00     0.217 C 
HETATM    6  C   UNL     1     -42.203  56.763 -51.933  1.00  0.00     0.050 C 
BRANCH   5   7
HETATM    7  O   UNL     1     -40.953  55.198 -53.243  1.00  0.00    -0.335 OA
BRANCH   7   8
HETATM    8  C   UNL     1     -40.623  53.871 -53.264  1.00  0.00     0.091 A 
HETATM    9  C   UNL     1     -40.211  53.303 -52.044  1.00  0.00     0.069 A 
HETATM   10 CL   UNL     1     -40.095  54.260 -50.608  1.00  0.00    -0.081 Cl
HETATM   11  C   UNL     1     -39.849  51.957 -51.964  1.00  0.00     0.050 A 
HETATM   12  C   UNL     1     -39.903  51.169 -53.107  1.00  0.00     0.035 A 
HETATM   13 CL   UNL     1     -39.441  49.515 -53.025  1.00  0.00    -0.084 Cl
HETATM   14  C   UNL     1     -40.332  51.710 -54.318  1.00  0.00     0.026 A 
HETATM   15  C   UNL     1     -40.704  53.056 -54.395  1.00  0.00     0.040 A 
ENDBRANCH   7   8
ENDBRANCH   5   7
ENDBRANCH   2   5
BRANCH   1  16
HETATM   16  C   UNL     1     -42.488  56.556 -56.542  1.00  0.00     0.130 A 
HETATM   17  C   UNL     1     -42.182  57.826 -57.023  1.00  0.00     0.057 A 
HETATM   18  C   UNL     1     -42.455  58.141 -58.355  1.00  0.00    -0.057 A 
HETATM   19  C   UNL     1     -42.098  59.479 -58.928  1.00  0.00     0.048 C 
HETATM   20  C   UNL     1     -43.044  57.164 -59.157  1.00  0.00     0.033 A 
HETATM   21  C   UNL     1     -43.332  55.922 -58.602  1.00  0.00     0.033 A 
HETATM   22  N   UNL     1     -43.048  55.615 -57.316  1.00  0.00    -0.236 NA
HETATM   23  C   UNL     1     -43.978  54.856 -59.434  1.00  0.00     0.070 C 
ENDBRANCH   1  16
TORSDOF 4
ENDMDL
MODEL 6
REMARK VINA RESULT:      -7.4      3.064      7.619
REMARK  4 active torsions:
REMARK  status: ('A' for Active; 'I' for Inactive)
REMARK    1  A    between atoms: C_4  and  N_5 
REMARK       I    between atoms: N_5  and  C_6 
REMARK    2  A    between atoms: C_6  and  C_7 
REMARK    3  A    between atoms: C_7  and  O_8 
REMARK    4  A    between atoms: O_8  and  C_9 
ROOT
HETATM    1  N   UNL     1     -42.323  56.401 -55.046  1.00  0.00    -0.309 N 
HETATM    2  C   UNL     1     -43.248  56.366 -54.016  1.00  0.00     0.252 C 
HETATM    3  O   UNL     1     -44.450  56.596 -54.091  1.00  0.00    -0.270 OA
HETATM    4  H   UNL     1     -41.358  56.247 -54.794  1.00  0.00     0.170 HD
ENDROOT
BRANCH   2   5
HETATM    5  C   UNL     1     -42.601  55.853 -52.710  1.00  0.00     0.217 C 
HETATM    6  C   UNL     1     -42.529  56.943 -51.651  1.00  0.00     0.050 C 
BRANCH   5   7
HETATM    7  O   UNL     1     -41.268  55.415 -52.993  1.00  0.00    -0.335 OA
BRANCH   7   8
HETATM    8  C   UNL     1     -40.836  54.209 -52.516  1.00  0.00     0.091 A 
HETATM    9  C   UNL     1     -40.299  53.312 -53.458  1.00  0.00     0.069 A 
HETATM   10 CL   UNL     1     -40.233  53.716 -55.138  1.00  0.00    -0.081 Cl
HETATM   11  C   UNL     1     -39.836  52.054 -53.069  1.00  0.00     0.050 A 
HETATM   12  C   UNL     1     -39.903  51.688 -51.731  1.00  0.00     0.035 A 
HETATM   13 CL   UNL     1     -39.354  50.133 -51.242  1.00  0.00    -0.084 Cl
HETATM   14  C   UNL     1     -40.410  52.573 -50.780  1.00  0.00     0.026 A 
HETATM   15  C   UNL     1     -40.864  53.838 -51.169  1.00  0.00     0.040 A 
ENDBRANCH   7   8
ENDBRANCH   5   7
ENDBRANCH   2   5
BRANCH   1  16
HETATM   16  C   UNL     1     -42.583  56.692 -56.389  1.00  0.00     0.130 A 
HETATM   17  C   UNL     1     -42.247  57.968 -56.833  1.00  0.00     0.057 A 
HETATM   18  C   UNL     1     -42.453  58.306 -58.172  1.00  0.00    -0.057 A 
HETATM   19  C   UNL     1     -42.061  59.651 -58.704  1.00  0.00     0.048 C 
HETATM   20  C   UNL     1     -43.006  57.346 -59.017  1.00  0.00     0.033 A 
HETATM   21  C   UNL     1     -43.328  56.097 -58.498  1.00  0.00     0.033 A 
HETATM   22  N   UNL     1     -43.109  55.767 -57.205  1.00  0.00    -0.236 NA
HETATM   23  C   UNL     1     -43.938  55.048 -59.378  1.00  0.00     0.070 C 
ENDBRANCH   1  16
TORSDOF 4
ENDMDL
MODEL 7
REMARK VINA RESULT:      -7.1      4.611      5.864
REMARK  4 active torsions:
REMARK  status: ('A' for Active; 'I' for Inactive)
REMARK    1  A    between atoms: C_4  and  N_5 
REMARK       I    between atoms: N_5  and  C_6 
REMARK    2  A    between atoms: C_6  and  C_7 
REMARK    3  A    between atoms: C_7  and  O_8 
REMARK    4  A    between atoms: O_8  and  C_9 
ROOT
HETATM    1  N   UNL     1     -40.751  54.347 -52.797  1.00  0.00    -0.309 N 
HETATM    2  C   UNL     1     -42.014  54.887 -52.972  1.00  0.00     0.252 C 
HETATM    3  O   UNL     1     -43.083  54.286 -52.980  1.00  0.00    -0.270 OA
HETATM    4  H   UNL     1     -39.971  54.982 -52.883  1.00  0.00     0.170 HD
ENDROOT
BRANCH   2   5
HETATM    5  C   UNL     1     -41.952  56.430 -53.029  1.00  0.00     0.217 C 
HETATM    6  C   UNL     1     -40.813  56.914 -53.916  1.00  0.00     0.050 C 
BRANCH   5   7
HETATM    7  O   UNL     1     -41.737  56.936 -51.708  1.00  0.00    -0.335 OA
BRANCH   7   8
HETATM    8  C   UNL     1     -42.287  58.134 -51.345  1.00  0.00     0.091 A 
HETATM    9  C   UNL     1     -41.395  59.136 -50.918  1.00  0.00     0.069 A 
HETATM   10 CL   UNL     1     -39.695  58.835 -50.824  1.00  0.00    -0.081 Cl
HETATM   11  C   UNL     1     -41.860  60.390 -50.522  1.00  0.00     0.050 A 
HETATM   12  C   UNL     1     -43.224  60.653 -50.557  1.00  0.00     0.035 A 
HETATM   13 CL   UNL     1     -43.811  62.189 -50.054  1.00  0.00    -0.084 Cl
HETATM   14  C   UNL     1     -44.119  59.681 -51.001  1.00  0.00     0.026 A 
HETATM   15  C   UNL     1     -43.651  58.426 -51.407  1.00  0.00     0.040 A 
ENDBRANCH   7   8
ENDBRANCH   5   7
ENDBRANCH   2   5
BRANCH   1  16
HETATM   16  C   UNL     1     -40.444  53.001 -52.577  1.00  0.00     0.130 A 
HETATM   17  C   UNL     1     -40.137  52.234 -53.699  1.00  0.00     0.057 A 
HETATM   18  C   UNL     1     -39.791  50.892 -53.539  1.00  0.00    -0.057 A 
HETATM   19  C   UNL     1     -39.406  50.043 -54.713  1.00  0.00     0.048 C 
HETATM   20  C   UNL     1     -39.781  50.361 -52.251  1.00  0.00     0.033 A 
HETATM   21  C   UNL     1     -40.112  51.185 -51.181  1.00  0.00     0.033 A 
HETATM   22  N   UNL     1     -40.427  52.490 -51.337  1.00  0.00    -0.236 NA
HETATM   23  C   UNL     1     -40.124  50.641 -49.785  1.00  0.00     0.070 C 
ENDBRANCH   1  16
TORSDOF 4
ENDMDL
MODEL 8
REMARK VINA RESULT:      -7.0      3.619      7.921
REMARK  4 active torsions:
REMARK  status: ('A' for Active; 'I' for Inactive)
REMARK    1  A    between atoms: C_4  and  N_5 
REMARK       I    between atoms: N_5  and  C_6 
REMARK    2  A    between atoms: C_6  and  C_7 
REMARK    3  A    between atoms: C_7  and  O_8 
REMARK    4  A    between atoms: O_8  and  C_9 
ROOT
HETATM    1  N   UNL     1     -42.234  56.880 -56.021  1.00  0.00    -0.309 N 
HETATM    2  C   UNL     1     -43.087  57.126 -54.956  1.00  0.00     0.252 C 
HETATM    3  O   UNL     1     -44.298  57.308 -55.004  1.00  0.00    -0.270 OA
HETATM    4  H   UNL     1     -41.250  56.818 -55.807  1.00  0.00     0.170 HD
ENDROOT
BRANCH   2   5
HETATM    5  C   UNL     1     -42.336  57.014 -53.611  1.00  0.00     0.217 C 
HETATM    6  C   UNL     1     -40.907  57.528 -53.720  1.00  0.00     0.050 C 
BRANCH   5   7
HETATM    7  O   UNL     1     -42.288  55.639 -53.218  1.00  0.00    -0.335 OA
BRANCH   7   8
HETATM    8  C   UNL     1     -41.808  55.305 -51.982  1.00  0.00     0.091 A 
HETATM    9  C   UNL     1     -40.900  54.231 -51.925  1.00  0.00     0.069 A 
HETATM   10 CL   UNL     1     -40.454  53.363 -53.353  1.00  0.00    -0.081 Cl
HETATM   11  C   UNL     1     -40.359  53.812 -50.709  1.00  0.00     0.050 A 
HETATM   12  C   UNL     1     -40.719  54.470 -49.540  1.00  0.00     0.035 A 
HETATM   13 CL   UNL     1     -40.074  53.951 -48.033  1.00  0.00    -0.084 Cl
HETATM   14  C   UNL     1     -41.600  55.551 -49.581  1.00  0.00     0.026 A 
HETATM   15  C   UNL     1     -42.134  55.977 -50.802  1.00  0.00     0.040 A 
ENDBRANCH   7   8
ENDBRANCH   5   7
ENDBRANCH   2   5
BRANCH   1  16
HETATM   16  C   UNL     1     -42.594  56.773 -57.367  1.00  0.00     0.130 A 
HETATM   17  C   UNL     1     -42.196  57.809 -58.209  1.00  0.00     0.057 A 
HETATM   18  C   UNL     1     -42.497  57.741 -59.570  1.00  0.00    -0.057 A 
HETATM   19  C   UNL     1     -42.047  58.809 -60.521  1.00  0.00     0.048 C 
HETATM   20  C   UNL     1     -43.206  56.636 -60.036  1.00  0.00     0.033 A 
HETATM   21  C   UNL     1     -43.581  55.647 -59.133  1.00  0.00     0.033 A 
HETATM   22  N   UNL     1     -43.270  55.706 -57.818  1.00  0.00    -0.236 NA
HETATM   23  C   UNL     1     -44.356  54.453 -59.599  1.00  0.00     0.070 C 
ENDBRANCH   1  16
TORSDOF 4
ENDMDL
MODEL 9
REMARK VINA RESULT:      -7.0     14.814     17.271
REMARK  4 active torsions:
REMARK  status: ('A' for Active; 'I' for Inactive)
REMARK    1  A    between atoms: C_4  and  N_5 
REMARK       I    between atoms: N_5  and  C_6 
REMARK    2  A    between atoms: C_6  and  C_7 
REMARK    3  A    between atoms: C_7  and  O_8 
REMARK    4  A    between atoms: O_8  and  C_9 
ROOT
HETATM    1  N   UNL     1     -36.839  40.725 -56.358  1.00  0.00    -0.309 N 
HETATM    2  C   UNL     1     -37.790  40.990 -55.385  1.00  0.00     0.252 C 
HETATM    3  O   UNL     1     -38.979  41.232 -55.558  1.00  0.00    -0.270 OA
HETATM    4  H   UNL     1     -35.888  40.610 -56.041  1.00  0.00     0.170 HD
ENDROOT
BRANCH   2   5
HETATM    5  C   UNL     1     -37.196  40.812 -53.970  1.00  0.00     0.217 C 
HETATM    6  C   UNL     1     -38.189  41.212 -52.888  1.00  0.00     0.050 C 
BRANCH   5   7
HETATM    7  O   UNL     1     -36.038  41.644 -53.844  1.00  0.00    -0.335 OA
BRANCH   7   8
HETATM    8  C   UNL     1     -35.041  41.290 -52.978  1.00  0.00     0.091 A 
HETATM    9  C   UNL     1     -33.958  40.573 -53.520  1.00  0.00     0.069 A 
HETATM   10 CL   UNL     1     -33.925  40.136 -55.193  1.00  0.00    -0.081 Cl
HETATM   11  C   UNL     1     -32.894  40.161 -52.716  1.00  0.00     0.050 A 
HETATM   12  C   UNL     1     -32.905  40.472 -51.361  1.00  0.00     0.035 A 
HETATM   13 CL   UNL     1     -31.610  39.953 -50.356  1.00  0.00    -0.084 Cl
HETATM   14  C   UNL     1     -33.958  41.202 -50.812  1.00  0.00     0.026 A 
HETATM   15  C   UNL     1     -35.019  41.623 -51.621  1.00  0.00     0.040 A 
ENDBRANCH   7   8
ENDBRANCH   5   7
ENDBRANCH   2   5
BRANCH   1  16
HETATM   16  C   UNL     1     -37.055  40.665 -57.737  1.00  0.00     0.130 A 
HETATM   17  C   UNL     1     -37.136  41.879 -58.415  1.00  0.00     0.057 A 
HETATM   18  C   UNL     1     -37.317  41.882 -59.799  1.00  0.00    -0.057 A 
HETATM   19  C   UNL     1     -37.362  43.163 -60.575  1.00  0.00     0.048 C 
HETATM   20  C   UNL     1     -37.427  40.656 -60.454  1.00  0.00     0.033 A 
HETATM   21  C   UNL     1     -37.349  39.486 -59.707  1.00  0.00     0.033 A 
HETATM   22  N   UNL     1     -37.153  39.486 -58.370  1.00  0.00    -0.236 NA
HETATM   23  C   UNL     1     -37.476  38.152 -60.379  1.00  0.00     0.070 C 
ENDBRANCH   1  16
TORSDOF 4
ENDMDL
MODEL 10
REMARK VINA RESULT:      -6.9      2.907      3.993
REMARK  4 active torsions:
REMARK  status: ('A' for Active; 'I' for Inactive)
REMARK    1  A    between atoms: C_4  and  N_5 
REMARK       I    between atoms: N_5  and  C_6 
REMARK    2  A    between atoms: C_6  and  C_7 
REMARK    3  A    between atoms: C_7  and  O_8 
REMARK    4  A    between atoms: O_8  and  C_9 
ROOT
HETATM    1  N   UNL     1     -43.321  54.924 -56.402  1.00  0.00    -0.309 N 
HETATM    2  C   UNL     1     -43.044  56.112 -57.059  1.00  0.00     0.252 C 
HETATM    3  O   UNL     1     -42.327  57.026 -56.667  1.00  0.00    -0.270 OA
HETATM    4  H   UNL     1     -43.987  54.308 -56.843  1.00  0.00     0.170 HD
ENDROOT
BRANCH   2   5
HETATM    5  C   UNL     1     -43.664  56.117 -58.474  1.00  0.00     0.217 C 
HETATM    6  C   UNL     1     -42.596  56.055 -59.556  1.00  0.00     0.050 C 
BRANCH   5   7
HETATM    7  O   UNL     1     -44.410  57.326 -58.651  1.00  0.00    -0.335 OA
BRANCH   7   8
HETATM    8  C   UNL     1     -45.476  57.344 -59.507  1.00  0.00     0.091 A 
HETATM    9  C   UNL     1     -45.909  58.608 -59.951  1.00  0.00     0.069 A 
HETATM   10 CL   UNL     1     -45.145  60.057 -59.398  1.00  0.00    -0.081 Cl
HETATM   11  C   UNL     1     -46.992  58.731 -60.823  1.00  0.00     0.050 A 
HETATM   12  C   UNL     1     -47.645  57.587 -61.262  1.00  0.00     0.035 A 
HETATM   13 CL   UNL     1     -48.993  57.726 -62.321  1.00  0.00    -0.084 Cl
HETATM   14  C   UNL     1     -47.215  56.325 -60.852  1.00  0.00     0.026 A 
HETATM   15  C   UNL     1     -46.123  56.202 -59.986  1.00  0.00     0.040 A 
ENDBRANCH   7   8
ENDBRANCH   5   7
ENDBRANCH   2   5
BRANCH   1  16
HETATM   16  C   UNL     1     -42.817  54.523 -55.161  1.00  0.00     0.130 A 
HETATM   17  C   UNL     1     -41.750  53.628 -55.175  1.00  0.00     0.057 A 
HETATM   18  C   UNL     1     -41.183  53.217 -53.968  1.00  0.00    -0.057 A 
HETATM   19  C   UNL     1     -40.003  52.294 -53.937  1.00  0.00     0.048 C 
HETATM   20  C   UNL     1     -41.723  53.712 -52.782  1.00  0.00     0.033 A 
HETATM   21  C   UNL     1     -42.797  54.592 -52.848  1.00  0.00     0.033 A 
HETATM   22  N   UNL     1     -43.331  55.004 -54.020  1.00  0.00    -0.236 NA
HETATM   23  C   UNL     1     -43.410  55.131 -51.591  1.00  0.00     0.070 C 
ENDBRANCH   1  16
TORSDOF 4
ENDMDL
