MODEL 1
REMARK VINA RESULT:      -9.1      0.000      0.000
REMARK  7 active torsions:
REMARK  status: ('A' for Active; 'I' for Inactive)
REMARK    1  A    between atoms: C_5  and  N_6 
REMARK    2  A    between atoms: C_7  and  S_8 
REMARK    3  A    between atoms: S_8  and  C_9 
REMARK    4  A    between atoms: C_9  and  C_10 
REMARK       I    between atoms: C_10  and  N_11 
REMARK    5  A    between atoms: C_13  and  C_14 
REMARK    6  A    between atoms: C_14  and  N_15 
REMARK       I    between atoms: N_15  and  C_16 
REMARK       I    between atoms: C_16  and  N_17 
REMARK    7  A    between atoms: N_17  and  C_18 
ROOT
HETATM    1  C   UNL     1     -42.410  57.149 -54.655  1.00  0.00     0.229 C 
HETATM    2  N   UNL     1     -42.080  57.954 -53.564  1.00  0.00    -0.351 N 
HETATM    3  C   UNL     1     -42.988  58.273 -52.463  1.00  0.00     0.132 C 
HETATM    4  C   UNL     1     -42.247  58.329 -51.120  1.00  0.00     0.021 C 
HETATM    5  C   UNL     1     -41.072  59.315 -51.218  1.00  0.00     0.009 C 
HETATM    6  C   UNL     1     -40.151  58.998 -52.397  1.00  0.00     0.020 C 
HETATM    7  C   UNL     1     -40.927  58.844 -53.702  1.00  0.00     0.126 C 
HETATM    8  O   UNL     1     -41.568  56.859 -55.514  1.00  0.00    -0.273 OA
ENDROOT
BRANCH   1   9
HETATM    9  C   UNL     1     -43.807  56.549 -54.749  1.00  0.00     0.185 C 
BRANCH   9  10
HETATM   10  S   UNL     1     -45.042  57.736 -55.359  1.00  0.00    -0.082 SA
BRANCH  10  11
HETATM   11  C   UNL     1     -44.051  58.703 -56.407  1.00  0.00     0.173 A 
HETATM   12  N   UNL     1     -43.650  58.324 -57.679  1.00  0.00    -0.299 N 
HETATM   13  C   UNL     1     -42.707  59.263 -58.056  1.00  0.00     0.118 A 
HETATM   14  C   UNL     1     -42.637  60.168 -57.026  1.00  0.00     0.137 A 
HETATM   15  N   UNL     1     -43.484  59.821 -56.012  1.00  0.00    -0.235 NA
BRANCH  12  16
HETATM   16  C   UNL     1     -44.147  57.283 -58.513  1.00  0.00     0.047 A 
HETATM   17  C   UNL     1     -45.371  57.404 -59.217  1.00  0.00    -0.029 A 
HETATM   18  C   UNL     1     -45.874  56.267 -59.897  1.00  0.00    -0.054 A 
HETATM   19  C   UNL     1     -46.127  58.708 -59.299  1.00  0.00     0.051 C 
HETATM   20  C   UNL     1     -47.180  56.297 -60.648  1.00  0.00     0.049 C 
HETATM   21  C   UNL     1     -45.123  55.080 -59.926  1.00  0.00     0.007 A 
HETATM   22  C   UNL     1     -43.902  54.991 -59.268  1.00  0.00     0.003 A 
HETATM   23  C   UNL     1     -43.417  56.083 -58.556  1.00  0.00     0.030 A 
ENDBRANCH  12  16
ENDBRANCH  10  11
ENDBRANCH   9  10
ENDBRANCH   1   9
BRANCH   4  24
HETATM   24  C   UNL     1     -41.760  56.939 -50.662  1.00  0.00     0.130 C 
BRANCH  24  25
HETATM   25  N   UNL     1     -42.656  55.874 -51.084  1.00  0.00    -0.342 N 
HETATM   26  C   UNL     1     -42.416  54.639 -51.609  1.00  0.00     0.320 C 
HETATM   27  N   UNL     1     -41.108  54.258 -51.703  1.00  0.00    -0.309 N 
HETATM   28  O   UNL     1     -43.391  53.982 -51.959  1.00  0.00    -0.247 OA
HETATM   29  H   UNL     1     -40.430  54.850 -51.252  1.00  0.00     0.170 HD
HETATM   30  H   UNL     1     -43.652  56.051 -51.017  1.00  0.00     0.164 HD
BRANCH  27  31
HETATM   31  C   UNL     1     -40.595  53.055 -52.234  1.00  0.00     0.039 A 
HETATM   32  C   UNL     1     -40.019  52.043 -51.465  1.00  0.00     0.071 A 
HETATM   33  C   UNL     1     -39.535  50.892 -52.085  1.00  0.00     0.118 A 
HETATM   34  F   UNL     1     -38.984  49.925 -51.338  1.00  0.00    -0.206 F 
HETATM   35  C   UNL     1     -39.609  50.727 -53.462  1.00  0.00     0.042 A 
HETATM   36  C   UNL     1     -40.188  51.726 -54.238  1.00  0.00     0.005 A 
HETATM   37  C   UNL     1     -40.683  52.882 -53.624  1.00  0.00     0.030 A 
ENDBRANCH  27  31
ENDBRANCH  24  25
ENDBRANCH   4  24
TORSDOF 7
ENDMDL
MODEL 2
REMARK VINA RESULT:      -9.0      1.999      2.547
REMARK  7 active torsions:
REMARK  status: ('A' for Active; 'I' for Inactive)
REMARK    1  A    between atoms: C_5  and  N_6 
REMARK    2  A    between atoms: C_7  and  S_8 
REMARK    3  A    between atoms: S_8  and  C_9 
REMARK    4  A    between atoms: C_9  and  C_10 
REMARK       I    between atoms: C_10  and  N_11 
REMARK    5  A    between atoms: C_13  and  C_14 
REMARK    6  A    between atoms: C_14  and  N_15 
REMARK       I    between atoms: N_15  and  C_16 
REMARK       I    between atoms: C_16  and  N_17 
REMARK    7  A    between atoms: N_17  and  C_18 
ROOT
HETATM    1  C   UNL     1     -44.353  58.529 -54.861  1.00  0.00     0.229 C 
HETATM    2  N   UNL     1     -44.241  57.788 -53.682  1.00  0.00    -0.351 N 
HETATM    3  C   UNL     1     -43.985  56.349 -53.629  1.00  0.00     0.132 C 
HETATM    4  C   UNL     1     -43.065  55.985 -52.455  1.00  0.00     0.021 C 
HETATM    5  C   UNL     1     -43.659  56.527 -51.145  1.00  0.00     0.009 C 
HETATM    6  C   UNL     1     -43.961  58.024 -51.226  1.00  0.00     0.020 C 
HETATM    7  C   UNL     1     -44.788  58.374 -52.459  1.00  0.00     0.126 C 
HETATM    8  O   UNL     1     -44.494  59.757 -54.833  1.00  0.00    -0.273 OA
ENDROOT
BRANCH   1   9
HETATM    9  C   UNL     1     -44.215  57.825 -56.205  1.00  0.00     0.185 C 
BRANCH   9  10
HETATM   10  S   UNL     1     -42.482  57.606 -56.709  1.00  0.00    -0.082 SA
BRANCH  10  11
HETATM   11  C   UNL     1     -42.432  58.639 -58.104  1.00  0.00     0.173 A 
HETATM   12  N   UNL     1     -42.888  58.280 -59.363  1.00  0.00    -0.299 N 
HETATM   13  C   UNL     1     -42.455  59.287 -60.206  1.00  0.00     0.118 A 
HETATM   14  C   UNL     1     -41.818  60.206 -59.408  1.00  0.00     0.137 A 
HETATM   15  N   UNL     1     -41.820  59.802 -58.102  1.00  0.00    -0.235 NA
BRANCH  12  16
HETATM   16  C   UNL     1     -43.724  57.194 -59.749  1.00  0.00     0.047 A 
HETATM   17  C   UNL     1     -45.095  57.376 -60.059  1.00  0.00    -0.029 A 
HETATM   18  C   UNL     1     -45.896  56.227 -60.278  1.00  0.00    -0.054 A 
HETATM   19  C   UNL     1     -45.714  58.746 -60.205  1.00  0.00     0.051 C 
HETATM   20  C   UNL     1     -47.368  56.325 -60.587  1.00  0.00     0.049 C 
HETATM   21  C   UNL     1     -45.309  54.951 -60.261  1.00  0.00     0.007 A 
HETATM   22  C   UNL     1     -43.952  54.793 -59.999  1.00  0.00     0.003 A 
HETATM   23  C   UNL     1     -43.163  55.907 -59.735  1.00  0.00     0.030 A 
ENDBRANCH  12  16
ENDBRANCH  10  11
ENDBRANCH   9  10
ENDBRANCH   1   9
BRANCH   4  24
HETATM   24  C   UNL     1     -41.626  56.497 -52.659  1.00  0.00     0.130 C 
BRANCH  24  25
HETATM   25  N   UNL     1     -40.986  55.900 -53.821  1.00  0.00    -0.342 N 
HETATM   26  C   UNL     1     -40.512  54.643 -54.051  1.00  0.00     0.320 C 
HETATM   27  N   UNL     1     -40.724  53.720 -53.066  1.00  0.00    -0.309 N 
HETATM   28  O   UNL     1     -39.931  54.451 -55.113  1.00  0.00    -0.247 OA
HETATM   29  H   UNL     1     -41.331  53.992 -52.312  1.00  0.00     0.170 HD
HETATM   30  H   UNL     1     -40.819  56.501 -54.619  1.00  0.00     0.164 HD
BRANCH  27  31
HETATM   31  C   UNL     1     -40.308  52.370 -53.044  1.00  0.00     0.039 A 
HETATM   32  C   UNL     1     -40.290  51.539 -54.164  1.00  0.00     0.071 A 
HETATM   33  C   UNL     1     -39.868  50.217 -54.039  1.00  0.00     0.118 A 
HETATM   34  F   UNL     1     -39.852  49.426 -55.121  1.00  0.00    -0.206 F 
HETATM   35  C   UNL     1     -39.463  49.700 -52.815  1.00  0.00     0.042 A 
HETATM   36  C   UNL     1     -39.470  50.522 -51.693  1.00  0.00     0.005 A 
HETATM   37  C   UNL     1     -39.886  51.853 -51.810  1.00  0.00     0.030 A 
ENDBRANCH  27  31
ENDBRANCH  24  25
ENDBRANCH   4  24
TORSDOF 7
ENDMDL
MODEL 3
REMARK VINA RESULT:      -8.9      1.969      6.020
REMARK  7 active torsions:
REMARK  status: ('A' for Active; 'I' for Inactive)
REMARK    1  A    between atoms: C_5  and  N_6 
REMARK    2  A    between atoms: C_7  and  S_8 
REMARK    3  A    between atoms: S_8  and  C_9 
REMARK    4  A    between atoms: C_9  and  C_10 
REMARK       I    between atoms: C_10  and  N_11 
REMARK    5  A    between atoms: C_13  and  C_14 
REMARK    6  A    between atoms: C_14  and  N_15 
REMARK       I    between atoms: N_15  and  C_16 
REMARK       I    between atoms: C_16  and  N_17 
REMARK    7  A    between atoms: N_17  and  C_18 
ROOT
HETATM    1  C   UNL     1     -43.764  59.762 -56.556  1.00  0.00     0.229 C 
HETATM    2  N   UNL     1     -43.763  58.710 -57.473  1.00  0.00    -0.351 N 
HETATM    3  C   UNL     1     -42.558  58.070 -58.000  1.00  0.00     0.132 C 
HETATM    4  C   UNL     1     -42.756  56.558 -58.180  1.00  0.00     0.021 C 
HETATM    5  C   UNL     1     -43.992  56.299 -59.057  1.00  0.00     0.009 C 
HETATM    6  C   UNL     1     -45.237  57.006 -58.519  1.00  0.00     0.020 C 
HETATM    7  C   UNL     1     -44.982  58.487 -58.250  1.00  0.00     0.126 C 
HETATM    8  O   UNL     1     -44.822  60.207 -56.094  1.00  0.00    -0.273 OA
ENDROOT
BRANCH   1   9
HETATM    9  C   UNL     1     -42.439  60.319 -56.052  1.00  0.00     0.185 C 
BRANCH   9  10
HETATM   10  S   UNL     1     -41.760  59.365 -54.661  1.00  0.00    -0.082 SA
BRANCH  10  11
HETATM   11  C   UNL     1     -42.403  60.265 -53.323  1.00  0.00     0.173 A 
HETATM   12  N   UNL     1     -42.721  59.718 -52.089  1.00  0.00    -0.299 N 
HETATM   13  C   UNL     1     -43.403  60.715 -51.416  1.00  0.00     0.118 A 
HETATM   14  C   UNL     1     -43.409  61.805 -52.251  1.00  0.00     0.137 A 
HETATM   15  N   UNL     1     -42.775  61.521 -53.428  1.00  0.00    -0.235 NA
BRANCH  12  16
HETATM   16  C   UNL     1     -42.352  58.461 -51.533  1.00  0.00     0.047 A 
HETATM   17  C   UNL     1     -43.216  57.338 -51.575  1.00  0.00    -0.029 A 
HETATM   18  C   UNL     1     -42.842  56.172 -50.861  1.00  0.00    -0.054 A 
HETATM   19  C   UNL     1     -44.491  57.332 -52.384  1.00  0.00     0.051 C 
HETATM   20  C   UNL     1     -43.712  54.941 -50.827  1.00  0.00     0.049 C 
HETATM   21  C   UNL     1     -41.604  56.123 -50.200  1.00  0.00     0.007 A 
HETATM   22  C   UNL     1     -40.747  57.218 -50.206  1.00  0.00     0.003 A 
HETATM   23  C   UNL     1     -41.120  58.386 -50.862  1.00  0.00     0.030 A 
ENDBRANCH  12  16
ENDBRANCH  10  11
ENDBRANCH   9  10
ENDBRANCH   1   9
BRANCH   4  24
HETATM   24  C   UNL     1     -42.875  55.819 -56.832  1.00  0.00     0.130 C 
BRANCH  24  25
HETATM   25  N   UNL     1     -41.838  56.216 -55.892  1.00  0.00    -0.342 N 
HETATM   26  C   UNL     1     -41.129  55.506 -54.968  1.00  0.00     0.320 C 
HETATM   27  N   UNL     1     -41.344  54.157 -54.938  1.00  0.00    -0.309 N 
HETATM   28  O   UNL     1     -40.370  56.138 -54.242  1.00  0.00    -0.247 OA
HETATM   29  H   UNL     1     -41.896  53.768 -55.683  1.00  0.00     0.170 HD
HETATM   30  H   UNL     1     -41.584  57.196 -55.867  1.00  0.00     0.164 HD
BRANCH  27  31
HETATM   31  C   UNL     1     -40.766  53.211 -54.063  1.00  0.00     0.039 A 
HETATM   32  C   UNL     1     -40.193  52.009 -54.480  1.00  0.00     0.071 A 
HETATM   33  C   UNL     1     -39.652  51.136 -53.538  1.00  0.00     0.118 A 
HETATM   34  F   UNL     1     -39.103  49.985 -53.947  1.00  0.00    -0.206 F 
HETATM   35  C   UNL     1     -39.673  51.434 -52.181  1.00  0.00     0.042 A 
HETATM   36  C   UNL     1     -40.236  52.632 -51.755  1.00  0.00     0.005 A 
HETATM   37  C   UNL     1     -40.774  53.519 -52.694  1.00  0.00     0.030 A 
ENDBRANCH  27  31
ENDBRANCH  24  25
ENDBRANCH   4  24
TORSDOF 7
ENDMDL
MODEL 4
REMARK VINA RESULT:      -8.8      1.569      2.395
REMARK  7 active torsions:
REMARK  status: ('A' for Active; 'I' for Inactive)
REMARK    1  A    between atoms: C_5  and  N_6 
REMARK    2  A    between atoms: C_7  and  S_8 
REMARK    3  A    between atoms: S_8  and  C_9 
REMARK    4  A    between atoms: C_9  and  C_10 
REMARK       I    between atoms: C_10  and  N_11 
REMARK    5  A    between atoms: C_13  and  C_14 
REMARK    6  A    between atoms: C_14  and  N_15 
REMARK       I    between atoms: N_15  and  C_16 
REMARK       I    between atoms: C_16  and  N_17 
REMARK    7  A    between atoms: N_17  and  C_18 
ROOT
HETATM    1  C   UNL     1     -42.350  59.954 -55.131  1.00  0.00     0.229 C 
HETATM    2  N   UNL     1     -42.322  59.411 -53.844  1.00  0.00    -0.351 N 
HETATM    3  C   UNL     1     -43.472  59.355 -52.942  1.00  0.00     0.132 C 
HETATM    4  C   UNL     1     -43.483  58.056 -52.125  1.00  0.00     0.021 C 
HETATM    5  C   UNL     1     -42.145  57.900 -51.384  1.00  0.00     0.009 C 
HETATM    6  C   UNL     1     -40.948  58.001 -52.330  1.00  0.00     0.020 C 
HETATM    7  C   UNL     1     -41.016  59.249 -53.206  1.00  0.00     0.126 C 
HETATM    8  O   UNL     1     -41.359  59.900 -55.869  1.00  0.00    -0.273 OA
ENDROOT
BRANCH   1   9
HETATM    9  C   UNL     1     -43.647  60.548 -55.665  1.00  0.00     0.185 C 
BRANCH   9  10
HETATM   10  S   UNL     1     -44.567  59.389 -56.722  1.00  0.00    -0.082 SA
BRANCH  10  11
HETATM   11  C   UNL     1     -43.978  59.860 -58.286  1.00  0.00     0.173 A 
HETATM   12  N   UNL     1     -44.077  59.082 -59.429  1.00  0.00    -0.299 N 
HETATM   13  C   UNL     1     -43.293  59.721 -60.372  1.00  0.00     0.118 A 
HETATM   14  C   UNL     1     -42.817  60.858 -59.766  1.00  0.00     0.137 A 
HETATM   15  N   UNL     1     -43.258  60.943 -58.475  1.00  0.00    -0.235 NA
BRANCH  12  16
HETATM   16  C   UNL     1     -44.885  57.936 -59.679  1.00  0.00     0.047 A 
HETATM   17  C   UNL     1     -44.382  56.619 -59.543  1.00  0.00    -0.029 A 
HETATM   18  C   UNL     1     -45.198  55.538 -59.962  1.00  0.00    -0.054 A 
HETATM   19  C   UNL     1     -43.032  56.330 -58.932  1.00  0.00     0.051 C 
HETATM   20  C   UNL     1     -44.734  54.106 -59.881  1.00  0.00     0.049 C 
HETATM   21  C   UNL     1     -46.502  55.784 -60.424  1.00  0.00     0.007 A 
HETATM   22  C   UNL     1     -46.997  57.080 -60.509  1.00  0.00     0.003 A 
HETATM   23  C   UNL     1     -46.192  58.155 -60.146  1.00  0.00     0.030 A 
ENDBRANCH  12  16
ENDBRANCH  10  11
ENDBRANCH   9  10
ENDBRANCH   1   9
BRANCH   4  24
HETATM   24  C   UNL     1     -43.775  56.819 -52.997  1.00  0.00     0.130 C 
BRANCH  24  25
HETATM   25  N   UNL     1     -43.984  55.619 -52.201  1.00  0.00    -0.342 N 
HETATM   26  C   UNL     1     -43.264  54.467 -52.087  1.00  0.00     0.320 C 
HETATM   27  N   UNL     1     -42.081  54.416 -52.768  1.00  0.00    -0.309 N 
HETATM   28  O   UNL     1     -43.743  53.576 -51.394  1.00  0.00    -0.247 OA
HETATM   29  H   UNL     1     -41.760  55.273 -53.185  1.00  0.00     0.170 HD
HETATM   30  H   UNL     1     -44.822  55.580 -51.632  1.00  0.00     0.164 HD
BRANCH  27  31
HETATM   31  C   UNL     1     -41.173  53.337 -52.841  1.00  0.00     0.039 A 
HETATM   32  C   UNL     1     -41.002  52.534 -53.969  1.00  0.00     0.071 A 
HETATM   33  C   UNL     1     -40.082  51.487 -53.940  1.00  0.00     0.118 A 
HETATM   34  F   UNL     1     -39.924  50.721 -55.028  1.00  0.00    -0.206 F 
HETATM   35  C   UNL     1     -39.326  51.219 -52.806  1.00  0.00     0.042 A 
HETATM   36  C   UNL     1     -39.484  52.018 -51.678  1.00  0.00     0.005 A 
HETATM   37  C   UNL     1     -40.399  53.076 -51.700  1.00  0.00     0.030 A 
ENDBRANCH  27  31
ENDBRANCH  24  25
ENDBRANCH   4  24
TORSDOF 7
ENDMDL
MODEL 5
REMARK VINA RESULT:      -8.7      2.255      6.257
REMARK  7 active torsions:
REMARK  status: ('A' for Active; 'I' for Inactive)
REMARK    1  A    between atoms: C_5  and  N_6 
REMARK    2  A    between atoms: C_7  and  S_8 
REMARK    3  A    between atoms: S_8  and  C_9 
REMARK    4  A    between atoms: C_9  and  C_10 
REMARK       I    between atoms: C_10  and  N_11 
REMARK    5  A    between atoms: C_13  and  C_14 
REMARK    6  A    between atoms: C_14  and  N_15 
REMARK       I    between atoms: N_15  and  C_16 
REMARK       I    between atoms: C_16  and  N_17 
REMARK    7  A    between atoms: N_17  and  C_18 
ROOT
HETATM    1  C   UNL     1     -46.000  58.235 -57.477  1.00  0.00     0.229 C 
HETATM    2  N   UNL     1     -45.133  57.565 -58.342  1.00  0.00    -0.351 N 
HETATM    3  C   UNL     1     -43.704  57.850 -58.470  1.00  0.00     0.132 C 
HETATM    4  C   UNL     1     -42.892  56.566 -58.691  1.00  0.00     0.021 C 
HETATM    5  C   UNL     1     -43.450  55.803 -59.903  1.00  0.00     0.009 C 
HETATM    6  C   UNL     1     -44.953  55.546 -59.778  1.00  0.00     0.020 C 
HETATM    7  C   UNL     1     -45.725  56.822 -59.454  1.00  0.00     0.126 C 
HETATM    8  O   UNL     1     -47.183  57.892 -57.365  1.00  0.00    -0.273 OA
ENDROOT
BRANCH   1   9
HETATM    9  C   UNL     1     -45.462  59.354 -56.595  1.00  0.00     0.185 C 
BRANCH   9  10
HETATM   10  S   UNL     1     -44.517  58.733 -55.171  1.00  0.00    -0.082 SA
BRANCH  10  11
HETATM   11  C   UNL     1     -45.120  59.776 -53.919  1.00  0.00     0.173 A 
HETATM   12  N   UNL     1     -45.005  59.520 -52.562  1.00  0.00    -0.299 N 
HETATM   13  C   UNL     1     -45.805  60.465 -51.946  1.00  0.00     0.118 A 
HETATM   14  C   UNL     1     -46.306  61.255 -52.952  1.00  0.00     0.137 A 
HETATM   15  N   UNL     1     -45.865  60.828 -54.173  1.00  0.00    -0.235 NA
BRANCH  12  16
HETATM   16  C   UNL     1     -44.171  58.587 -51.882  1.00  0.00     0.047 A 
HETATM   17  C   UNL     1     -42.797  58.840 -51.650  1.00  0.00    -0.029 A 
HETATM   18  C   UNL     1     -42.000  57.798 -51.111  1.00  0.00    -0.054 A 
HETATM   19  C   UNL     1     -42.168  60.187 -51.915  1.00  0.00     0.051 C 
HETATM   20  C   UNL     1     -40.525  57.969 -50.856  1.00  0.00     0.049 C 
HETATM   21  C   UNL     1     -42.595  56.578 -50.750  1.00  0.00     0.007 A 
HETATM   22  C   UNL     1     -43.955  56.362 -50.944  1.00  0.00     0.003 A 
HETATM   23  C   UNL     1     -44.740  57.357 -51.515  1.00  0.00     0.030 A 
ENDBRANCH  12  16
ENDBRANCH  10  11
ENDBRANCH   9  10
ENDBRANCH   1   9
BRANCH   4  24
HETATM   24  C   UNL     1     -42.867  55.666 -57.439  1.00  0.00     0.130 C 
BRANCH  24  25
HETATM   25  N   UNL     1     -42.169  56.288 -56.325  1.00  0.00    -0.342 N 
HETATM   26  C   UNL     1     -41.564  55.761 -55.223  1.00  0.00     0.320 C 
HETATM   27  N   UNL     1     -41.512  54.398 -55.147  1.00  0.00    -0.309 N 
HETATM   28  O   UNL     1     -41.128  56.552 -54.393  1.00  0.00    -0.247 OA
HETATM   29  H   UNL     1     -41.794  53.887 -55.967  1.00  0.00     0.170 HD
HETATM   30  H   UNL     1     -42.123  57.301 -56.313  1.00  0.00     0.164 HD
BRANCH  27  31
HETATM   31  C   UNL     1     -40.975  53.611 -54.105  1.00  0.00     0.039 A 
HETATM   32  C   UNL     1     -41.147  53.886 -52.749  1.00  0.00     0.071 A 
HETATM   33  C   UNL     1     -40.570  53.050 -51.794  1.00  0.00     0.118 A 
HETATM   34  F   UNL     1     -40.742  53.321 -50.493  1.00  0.00    -0.206 F 
HETATM   35  C   UNL     1     -39.819  51.941 -52.163  1.00  0.00     0.042 A 
HETATM   36  C   UNL     1     -39.647  51.654 -53.512  1.00  0.00     0.005 A 
HETATM   37  C   UNL     1     -40.228  52.483 -54.479  1.00  0.00     0.030 A 
ENDBRANCH  27  31
ENDBRANCH  24  25
ENDBRANCH   4  24
TORSDOF 7
ENDMDL
MODEL 6
REMARK VINA RESULT:      -8.7      1.424      1.631
REMARK  7 active torsions:
REMARK  status: ('A' for Active; 'I' for Inactive)
REMARK    1  A    between atoms: C_5  and  N_6 
REMARK    2  A    between atoms: C_7  and  S_8 
REMARK    3  A    between atoms: S_8  and  C_9 
REMARK    4  A    between atoms: C_9  and  C_10 
REMARK       I    between atoms: C_10  and  N_11 
REMARK    5  A    between atoms: C_13  and  C_14 
REMARK    6  A    between atoms: C_14  and  N_15 
REMARK       I    between atoms: N_15  and  C_16 
REMARK       I    between atoms: C_16  and  N_17 
REMARK    7  A    between atoms: N_17  and  C_18 
ROOT
HETATM    1  C   UNL     1     -42.410  59.310 -54.977  1.00  0.00     0.229 C 
HETATM    2  N   UNL     1     -42.901  59.462 -53.680  1.00  0.00    -0.351 N 
HETATM    3  C   UNL     1     -44.076  58.768 -53.151  1.00  0.00     0.132 C 
HETATM    4  C   UNL     1     -43.883  58.377 -51.679  1.00  0.00     0.021 C 
HETATM    5  C   UNL     1     -43.515  59.623 -50.857  1.00  0.00     0.009 C 
HETATM    6  C   UNL     1     -42.312  60.364 -51.442  1.00  0.00     0.020 C 
HETATM    7  C   UNL     1     -42.485  60.648 -52.931  1.00  0.00     0.126 C 
HETATM    8  O   UNL     1     -41.367  59.871 -55.336  1.00  0.00    -0.273 OA
ENDROOT
BRANCH   1   9
HETATM    9  C   UNL     1     -43.123  58.373 -55.945  1.00  0.00     0.185 C 
BRANCH   9  10
HETATM   10  S   UNL     1     -44.343  59.232 -56.983  1.00  0.00    -0.082 SA
BRANCH  10  11
HETATM   11  C   UNL     1     -43.373  59.576 -58.382  1.00  0.00     0.173 A 
HETATM   12  N   UNL     1     -43.181  58.698 -59.439  1.00  0.00    -0.299 N 
HETATM   13  C   UNL     1     -42.181  59.268 -60.205  1.00  0.00     0.118 A 
HETATM   14  C   UNL     1     -41.871  60.463 -59.602  1.00  0.00     0.137 A 
HETATM   15  N   UNL     1     -42.626  60.652 -58.478  1.00  0.00    -0.235 NA
BRANCH  12  16
HETATM   16  C   UNL     1     -43.904  57.520 -59.781  1.00  0.00     0.047 A 
HETATM   17  C   UNL     1     -45.257  57.565 -60.199  1.00  0.00    -0.029 A 
HETATM   18  C   UNL     1     -45.952  56.341 -60.369  1.00  0.00    -0.054 A 
HETATM   19  C   UNL     1     -45.963  58.863 -60.509  1.00  0.00     0.051 C 
HETATM   20  C   UNL     1     -47.400  56.293 -60.784  1.00  0.00     0.049 C 
HETATM   21  C   UNL     1     -45.274  55.122 -60.198  1.00  0.00     0.007 A 
HETATM   22  C   UNL     1     -43.933  55.096 -59.831  1.00  0.00     0.003 A 
HETATM   23  C   UNL     1     -43.251  56.288 -59.614  1.00  0.00     0.030 A 
ENDBRANCH  12  16
ENDBRANCH  10  11
ENDBRANCH   9  10
ENDBRANCH   1   9
BRANCH   4  24
HETATM   24  C   UNL     1     -42.824  57.270 -51.502  1.00  0.00     0.130 C 
BRANCH  24  25
HETATM   25  N   UNL     1     -43.422  55.953 -51.355  1.00  0.00    -0.342 N 
HETATM   26  C   UNL     1     -42.958  54.706 -51.654  1.00  0.00     0.320 C 
HETATM   27  N   UNL     1     -41.671  54.624 -52.103  1.00  0.00    -0.309 N 
HETATM   28  O   UNL     1     -43.736  53.770 -51.502  1.00  0.00    -0.247 OA
HETATM   29  H   UNL     1     -41.117  55.462 -52.048  1.00  0.00     0.170 HD
HETATM   30  H   UNL     1     -44.368  55.910 -50.993  1.00  0.00     0.164 HD
BRANCH  27  31
HETATM   31  C   UNL     1     -40.969  53.467 -52.507  1.00  0.00     0.039 A 
HETATM   32  C   UNL     1     -40.264  52.636 -51.636  1.00  0.00     0.071 A 
HETATM   33  C   UNL     1     -39.597  51.518 -52.133  1.00  0.00     0.118 A 
HETATM   34  F   UNL     1     -38.922  50.725 -51.289  1.00  0.00    -0.206 F 
HETATM   35  C   UNL     1     -39.615  51.208 -53.487  1.00  0.00     0.042 A 
HETATM   36  C   UNL     1     -40.322  52.025 -54.363  1.00  0.00     0.005 A 
HETATM   37  C   UNL     1     -41.000  53.146 -53.873  1.00  0.00     0.030 A 
ENDBRANCH  27  31
ENDBRANCH  24  25
ENDBRANCH   4  24
TORSDOF 7
ENDMDL
MODEL 7
REMARK VINA RESULT:      -8.5      3.014      7.610
REMARK  7 active torsions:
REMARK  status: ('A' for Active; 'I' for Inactive)
REMARK    1  A    between atoms: C_5  and  N_6 
REMARK    2  A    between atoms: C_7  and  S_8 
REMARK    3  A    between atoms: S_8  and  C_9 
REMARK    4  A    between atoms: C_9  and  C_10 
REMARK       I    between atoms: C_10  and  N_11 
REMARK    5  A    between atoms: C_13  and  C_14 
REMARK    6  A    between atoms: C_14  and  N_15 
REMARK       I    between atoms: N_15  and  C_16 
REMARK       I    between atoms: C_16  and  N_17 
REMARK    7  A    between atoms: N_17  and  C_18 
ROOT
HETATM    1  C   UNL     1     -43.968  57.249 -51.070  1.00  0.00     0.229 C 
HETATM    2  N   UNL     1     -43.629  58.505 -51.576  1.00  0.00    -0.351 N 
HETATM    3  C   UNL     1     -42.364  58.817 -52.241  1.00  0.00     0.132 C 
HETATM    4  C   UNL     1     -42.567  59.803 -53.401  1.00  0.00     0.021 C 
HETATM    5  C   UNL     1     -43.290  61.060 -52.891  1.00  0.00     0.009 C 
HETATM    6  C   UNL     1     -44.590  60.719 -52.161  1.00  0.00     0.020 C 
HETATM    7  C   UNL     1     -44.379  59.659 -51.083  1.00  0.00     0.126 C 
HETATM    8  O   UNL     1     -45.087  57.035 -50.586  1.00  0.00    -0.273 OA
ENDROOT
BRANCH   1   9
HETATM    9  C   UNL     1     -42.976  56.099 -51.190  1.00  0.00     0.185 C 
BRANCH   9  10
HETATM   10  S   UNL     1     -43.519  54.823 -52.367  1.00  0.00    -0.082 SA
BRANCH  10  11
HETATM   11  C   UNL     1     -42.324  55.020 -53.611  1.00  0.00     0.173 A 
HETATM   12  N   UNL     1     -41.050  54.475 -53.568  1.00  0.00    -0.299 N 
HETATM   13  C   UNL     1     -40.371  55.058 -54.623  1.00  0.00     0.118 A 
HETATM   14  C   UNL     1     -41.279  55.867 -55.261  1.00  0.00     0.137 A 
HETATM   15  N   UNL     1     -42.493  55.827 -54.634  1.00  0.00    -0.235 NA
BRANCH  12  16
HETATM   16  C   UNL     1     -40.530  53.450 -52.728  1.00  0.00     0.047 A 
HETATM   17  C   UNL     1     -40.261  52.146 -53.213  1.00  0.00    -0.029 A 
HETATM   18  C   UNL     1     -39.898  51.141 -52.282  1.00  0.00    -0.054 A 
HETATM   19  C   UNL     1     -40.309  51.807 -54.684  1.00  0.00     0.051 C 
HETATM   20  C   UNL     1     -39.621  49.721 -52.705  1.00  0.00     0.049 C 
HETATM   21  C   UNL     1     -39.736  51.468 -50.926  1.00  0.00     0.007 A 
HETATM   22  C   UNL     1     -39.960  52.764 -50.473  1.00  0.00     0.003 A 
HETATM   23  C   UNL     1     -40.364  53.750 -51.366  1.00  0.00     0.030 A 
ENDBRANCH  12  16
ENDBRANCH  10  11
ENDBRANCH   9  10
ENDBRANCH   1   9
BRANCH   4  24
HETATM   24  C   UNL     1     -43.332  59.169 -54.580  1.00  0.00     0.130 C 
BRANCH  24  25
HETATM   25  N   UNL     1     -42.597  59.265 -55.831  1.00  0.00    -0.342 N 
HETATM   26  C   UNL     1     -42.753  58.630 -57.028  1.00  0.00     0.320 C 
HETATM   27  N   UNL     1     -43.832  57.801 -57.144  1.00  0.00    -0.309 N 
HETATM   28  O   UNL     1     -41.909  58.851 -57.890  1.00  0.00    -0.247 OA
HETATM   29  H   UNL     1     -44.506  57.826 -56.398  1.00  0.00     0.170 HD
HETATM   30  H   UNL     1     -41.796  59.886 -55.853  1.00  0.00     0.164 HD
BRANCH  27  31
HETATM   31  C   UNL     1     -44.198  57.011 -58.256  1.00  0.00     0.039 A 
HETATM   32  C   UNL     1     -45.276  57.293 -59.095  1.00  0.00     0.071 A 
HETATM   33  C   UNL     1     -45.560  56.447 -60.165  1.00  0.00     0.118 A 
HETATM   34  F   UNL     1     -46.597  56.726 -60.967  1.00  0.00    -0.206 F 
HETATM   35  C   UNL     1     -44.792  55.318 -60.418  1.00  0.00     0.042 A 
HETATM   36  C   UNL     1     -43.710  55.030 -59.592  1.00  0.00     0.005 A 
HETATM   37  C   UNL     1     -43.412  55.878 -58.519  1.00  0.00     0.030 A 
ENDBRANCH  27  31
ENDBRANCH  24  25
ENDBRANCH   4  24
TORSDOF 7
ENDMDL
MODEL 8
REMARK VINA RESULT:      -8.4      1.851      2.758
REMARK  7 active torsions:
REMARK  status: ('A' for Active; 'I' for Inactive)
REMARK    1  A    between atoms: C_5  and  N_6 
REMARK    2  A    between atoms: C_7  and  S_8 
REMARK    3  A    between atoms: S_8  and  C_9 
REMARK    4  A    between atoms: C_9  and  C_10 
REMARK       I    between atoms: C_10  and  N_11 
REMARK    5  A    between atoms: C_13  and  C_14 
REMARK    6  A    between atoms: C_14  and  N_15 
REMARK       I    between atoms: N_15  and  C_16 
REMARK       I    between atoms: C_16  and  N_17 
REMARK    7  A    between atoms: N_17  and  C_18 
ROOT
HETATM    1  C   UNL     1     -42.940  59.864 -53.401  1.00  0.00     0.229 C 
HETATM    2  N   UNL     1     -42.419  59.193 -52.293  1.00  0.00    -0.351 N 
HETATM    3  C   UNL     1     -42.962  57.951 -51.744  1.00  0.00     0.132 C 
HETATM    4  C   UNL     1     -41.847  57.020 -51.248  1.00  0.00     0.021 C 
HETATM    5  C   UNL     1     -40.958  57.769 -50.242  1.00  0.00     0.009 C 
HETATM    6  C   UNL     1     -40.428  59.086 -50.812  1.00  0.00     0.020 C 
HETATM    7  C   UNL     1     -41.546  59.947 -51.394  1.00  0.00     0.126 C 
HETATM    8  O   UNL     1     -42.385  60.870 -53.859  1.00  0.00    -0.273 OA
ENDROOT
BRANCH   1   9
HETATM    9  C   UNL     1     -44.166  59.301 -54.110  1.00  0.00     0.185 C 
BRANCH   9  10
HETATM   10  S   UNL     1     -44.173  59.660 -55.892  1.00  0.00    -0.082 SA
BRANCH  10  11
HETATM   11  C   UNL     1     -43.527  58.171 -56.511  1.00  0.00     0.173 A 
HETATM   12  N   UNL     1     -43.946  57.561 -57.683  1.00  0.00    -0.299 N 
HETATM   13  C   UNL     1     -43.349  56.314 -57.676  1.00  0.00     0.118 A 
HETATM   14  C   UNL     1     -42.575  56.268 -56.542  1.00  0.00     0.137 A 
HETATM   15  N   UNL     1     -42.680  57.430 -55.831  1.00  0.00    -0.235 NA
BRANCH  12  16
HETATM   16  C   UNL     1     -44.720  58.091 -58.754  1.00  0.00     0.047 A 
HETATM   17  C   UNL     1     -44.163  58.962 -59.723  1.00  0.00    -0.029 A 
HETATM   18  C   UNL     1     -45.032  59.572 -60.662  1.00  0.00    -0.054 A 
HETATM   19  C   UNL     1     -42.678  59.226 -59.811  1.00  0.00     0.051 C 
HETATM   20  C   UNL     1     -44.531  60.532 -61.710  1.00  0.00     0.049 C 
HETATM   21  C   UNL     1     -46.398  59.246 -60.665  1.00  0.00     0.007 A 
HETATM   22  C   UNL     1     -46.922  58.354 -59.736  1.00  0.00     0.003 A 
HETATM   23  C   UNL     1     -46.090  57.784 -58.778  1.00  0.00     0.030 A 
ENDBRANCH  12  16
ENDBRANCH  10  11
ENDBRANCH   9  10
ENDBRANCH   1   9
BRANCH   4  24
HETATM   24  C   UNL     1     -41.005  56.447 -52.405  1.00  0.00     0.130 C 
BRANCH  24  25
HETATM   25  N   UNL     1     -41.757  55.505 -53.220  1.00  0.00    -0.342 N 
HETATM   26  C   UNL     1     -41.597  54.170 -53.447  1.00  0.00     0.320 C 
HETATM   27  N   UNL     1     -40.610  53.544 -52.740  1.00  0.00    -0.309 N 
HETATM   28  O   UNL     1     -42.343  53.650 -54.269  1.00  0.00    -0.247 OA
HETATM   29  H   UNL     1     -40.170  54.075 -52.007  1.00  0.00     0.170 HD
HETATM   30  H   UNL     1     -42.534  55.872 -53.757  1.00  0.00     0.164 HD
BRANCH  27  31
HETATM   31  C   UNL     1     -40.222  52.188 -52.813  1.00  0.00     0.039 A 
HETATM   32  C   UNL     1     -40.182  51.449 -53.995  1.00  0.00     0.071 A 
HETATM   33  C   UNL     1     -39.791  50.111 -53.963  1.00  0.00     0.118 A 
HETATM   34  F   UNL     1     -39.754  49.409 -55.104  1.00  0.00    -0.206 F 
HETATM   35  C   UNL     1     -39.439  49.490 -52.772  1.00  0.00     0.042 A 
HETATM   36  C   UNL     1     -39.468  50.219 -51.588  1.00  0.00     0.005 A 
HETATM   37  C   UNL     1     -39.853  51.564 -51.611  1.00  0.00     0.030 A 
ENDBRANCH  27  31
ENDBRANCH  24  25
ENDBRANCH   4  24
TORSDOF 7
ENDMDL
MODEL 9
REMARK VINA RESULT:      -8.1      5.493      9.619
REMARK  7 active torsions:
REMARK  status: ('A' for Active; 'I' for Inactive)
REMARK    1  A    between atoms: C_5  and  N_6 
REMARK    2  A    between atoms: C_7  and  S_8 
REMARK    3  A    between atoms: S_8  and  C_9 
REMARK    4  A    between atoms: C_9  and  C_10 
REMARK       I    between atoms: C_10  and  N_11 
REMARK    5  A    between atoms: C_13  and  C_14 
REMARK    6  A    between atoms: C_14  and  N_15 
REMARK       I    between atoms: N_15  and  C_16 
REMARK       I    between atoms: C_16  and  N_17 
REMARK    7  A    between atoms: N_17  and  C_18 
ROOT
HETATM    1  C   UNL     1     -45.004  60.037 -50.528  1.00  0.00     0.229 C 
HETATM    2  N   UNL     1     -44.183  59.368 -51.438  1.00  0.00    -0.351 N 
HETATM    3  C   UNL     1     -42.725  59.299 -51.344  1.00  0.00     0.132 C 
HETATM    4  C   UNL     1     -42.198  57.927 -51.790  1.00  0.00     0.021 C 
HETATM    5  C   UNL     1     -42.713  57.610 -53.203  1.00  0.00     0.009 C 
HETATM    6  C   UNL     1     -44.235  57.726 -53.300  1.00  0.00     0.020 C 
HETATM    7  C   UNL     1     -44.742  59.057 -52.753  1.00  0.00     0.126 C 
HETATM    8  O   UNL     1     -46.236  59.992 -50.625  1.00  0.00    -0.273 OA
ENDROOT
BRANCH   1   9
HETATM    9  C   UNL     1     -44.376  60.766 -49.346  1.00  0.00     0.185 C 
BRANCH   9  10
HETATM   10  S   UNL     1     -45.561  61.823 -48.462  1.00  0.00    -0.082 SA
BRANCH  10  11
HETATM   11  C   UNL     1     -46.006  60.767 -47.157  1.00  0.00     0.173 A 
HETATM   12  N   UNL     1     -45.768  61.033 -45.817  1.00  0.00    -0.299 N 
HETATM   13  C   UNL     1     -46.064  59.855 -45.156  1.00  0.00     0.118 A 
HETATM   14  C   UNL     1     -46.506  58.979 -46.118  1.00  0.00     0.137 A 
HETATM   15  N   UNL     1     -46.479  59.558 -47.355  1.00  0.00    -0.235 NA
BRANCH  12  16
HETATM   16  C   UNL     1     -45.416  62.259 -45.185  1.00  0.00     0.047 A 
HETATM   17  C   UNL     1     -44.323  62.353 -44.288  1.00  0.00    -0.029 A 
HETATM   18  C   UNL     1     -44.134  63.566 -43.578  1.00  0.00    -0.054 A 
HETATM   19  C   UNL     1     -43.336  61.226 -44.098  1.00  0.00     0.051 C 
HETATM   20  C   UNL     1     -43.015  63.747 -42.585  1.00  0.00     0.049 C 
HETATM   21  C   UNL     1     -44.975  64.663 -43.832  1.00  0.00     0.007 A 
HETATM   22  C   UNL     1     -46.016  64.567 -44.748  1.00  0.00     0.003 A 
HETATM   23  C   UNL     1     -46.243  63.370 -45.417  1.00  0.00     0.030 A 
ENDBRANCH  12  16
ENDBRANCH  10  11
ENDBRANCH   9  10
ENDBRANCH   1   9
BRANCH   4  24
HETATM   24  C   UNL     1     -42.576  56.806 -50.803  1.00  0.00     0.130 C 
BRANCH  24  25
HETATM   25  N   UNL     1     -41.408  56.199 -50.183  1.00  0.00    -0.342 N 
HETATM   26  C   UNL     1     -40.709  55.066 -50.477  1.00  0.00     0.320 C 
HETATM   27  N   UNL     1     -41.091  54.385 -51.598  1.00  0.00    -0.309 N 
HETATM   28  O   UNL     1     -39.806  54.752 -49.709  1.00  0.00    -0.247 OA
HETATM   29  H   UNL     1     -41.760  54.838 -52.198  1.00  0.00     0.170 HD
HETATM   30  H   UNL     1     -41.029  56.655 -49.361  1.00  0.00     0.164 HD
BRANCH  27  31
HETATM   31  C   UNL     1     -40.556  53.179 -52.100  1.00  0.00     0.039 A 
HETATM   32  C   UNL     1     -40.037  52.161 -51.300  1.00  0.00     0.071 A 
HETATM   33  C   UNL     1     -39.525  51.007 -51.892  1.00  0.00     0.118 A 
HETATM   34  F   UNL     1     -39.030  50.034 -51.116  1.00  0.00    -0.206 F 
HETATM   35  C   UNL     1     -39.517  50.845 -53.271  1.00  0.00     0.042 A 
HETATM   36  C   UNL     1     -40.039  51.851 -54.079  1.00  0.00     0.005 A 
HETATM   37  C   UNL     1     -40.561  53.010 -53.493  1.00  0.00     0.030 A 
ENDBRANCH  27  31
ENDBRANCH  24  25
ENDBRANCH   4  24
TORSDOF 7
ENDMDL
MODEL 10
REMARK VINA RESULT:      -8.1      3.064      7.175
REMARK  7 active torsions:
REMARK  status: ('A' for Active; 'I' for Inactive)
REMARK    1  A    between atoms: C_5  and  N_6 
REMARK    2  A    between atoms: C_7  and  S_8 
REMARK    3  A    between atoms: S_8  and  C_9 
REMARK    4  A    between atoms: C_9  and  C_10 
REMARK       I    between atoms: C_10  and  N_11 
REMARK    5  A    between atoms: C_13  and  C_14 
REMARK    6  A    between atoms: C_14  and  N_15 
REMARK       I    between atoms: N_15  and  C_16 
REMARK       I    between atoms: C_16  and  N_17 
REMARK    7  A    between atoms: N_17  and  C_18 
ROOT
HETATM    1  C   UNL     1     -45.556  59.181 -50.924  1.00  0.00     0.229 C 
HETATM    2  N   UNL     1     -45.494  60.494 -51.394  1.00  0.00    -0.351 N 
HETATM    3  C   UNL     1     -44.297  61.117 -51.959  1.00  0.00     0.132 C 
HETATM    4  C   UNL     1     -44.647  62.054 -53.123  1.00  0.00     0.021 C 
HETATM    5  C   UNL     1     -45.686  63.088 -52.661  1.00  0.00     0.009 C 
HETATM    6  C   UNL     1     -46.915  62.427 -52.034  1.00  0.00     0.020 C 
HETATM    7  C   UNL     1     -46.533  61.422 -50.951  1.00  0.00     0.126 C 
HETATM    8  O   UNL     1     -46.621  58.693 -50.528  1.00  0.00    -0.273 OA
ENDROOT
BRANCH   1   9
HETATM    9  C   UNL     1     -44.310  58.305 -50.977  1.00  0.00     0.185 C 
BRANCH   9  10
HETATM   10  S   UNL     1     -44.190  57.347 -52.517  1.00  0.00    -0.082 SA
BRANCH  10  11
HETATM   11  C   UNL     1     -42.640  57.878 -53.093  1.00  0.00     0.173 A 
HETATM   12  N   UNL     1     -41.460  57.166 -52.940  1.00  0.00    -0.299 N 
HETATM   13  C   UNL     1     -40.458  58.038 -53.327  1.00  0.00     0.118 A 
HETATM   14  C   UNL     1     -41.089  59.188 -53.735  1.00  0.00     0.137 A 
HETATM   15  N   UNL     1     -42.445  59.075 -53.599  1.00  0.00    -0.235 NA
BRANCH  12  16
HETATM   16  C   UNL     1     -41.264  55.802 -52.584  1.00  0.00     0.047 A 
HETATM   17  C   UNL     1     -41.068  55.397 -51.240  1.00  0.00    -0.029 A 
HETATM   18  C   UNL     1     -40.722  54.046 -50.986  1.00  0.00    -0.054 A 
HETATM   19  C   UNL     1     -41.258  56.342 -50.078  1.00  0.00     0.051 C 
HETATM   20  C   UNL     1     -40.469  53.534 -49.591  1.00  0.00     0.049 C 
HETATM   21  C   UNL     1     -40.656  53.129 -52.047  1.00  0.00     0.007 A 
HETATM   22  C   UNL     1     -40.895  53.533 -53.356  1.00  0.00     0.003 A 
HETATM   23  C   UNL     1     -41.189  54.865 -53.628  1.00  0.00     0.030 A 
ENDBRANCH  12  16
ENDBRANCH  10  11
ENDBRANCH   9  10
ENDBRANCH   1   9
BRANCH   4  24
HETATM   24  C   UNL     1     -45.150  61.285 -54.362  1.00  0.00     0.130 C 
BRANCH  24  25
HETATM   25  N   UNL     1     -44.197  61.323 -55.460  1.00  0.00    -0.342 N 
HETATM   26  C   UNL     1     -43.745  60.352 -56.304  1.00  0.00     0.320 C 
HETATM   27  N   UNL     1     -44.323  59.120 -56.185  1.00  0.00    -0.309 N 
HETATM   28  O   UNL     1     -42.856  60.665 -57.089  1.00  0.00    -0.247 OA
HETATM   29  H   UNL     1     -45.129  59.053 -55.587  1.00  0.00     0.170 HD
HETATM   30  H   UNL     1     -43.741  62.208 -55.649  1.00  0.00     0.164 HD
BRANCH  27  31
HETATM   31  C   UNL     1     -44.015  57.948 -56.910  1.00  0.00     0.039 A 
HETATM   32  C   UNL     1     -43.211  56.917 -56.425  1.00  0.00     0.071 A 
HETATM   33  C   UNL     1     -42.961  55.800 -57.222  1.00  0.00     0.118 A 
HETATM   34  F   UNL     1     -42.189  54.814 -56.747  1.00  0.00    -0.206 F 
HETATM   35  C   UNL     1     -43.495  55.690 -58.499  1.00  0.00     0.042 A 
HETATM   36  C   UNL     1     -44.304  56.709 -58.991  1.00  0.00     0.005 A 
HETATM   37  C   UNL     1     -44.566  57.831 -58.196  1.00  0.00     0.030 A 
ENDBRANCH  27  31
ENDBRANCH  24  25
ENDBRANCH   4  24
TORSDOF 7
ENDMDL
