MODEL 1
REMARK VINA RESULT:      -8.4      0.000      0.000
REMARK  7 active torsions:
REMARK  status: ('A' for Active; 'I' for Inactive)
REMARK    1  A    between atoms: O_2  and  C_3 
REMARK    2  A    between atoms: C_3  and  C_4 
REMARK    3  A    between atoms: C_8  and  C_9 
REMARK    4  A    between atoms: C_9  and  N_10 
REMARK    5  A    between atoms: C_13  and  C_14 
REMARK    6  A    between atoms: C_14  and  N_15 
REMARK       I    between atoms: N_15  and  C_16 
REMARK       I    between atoms: C_16  and  N_17 
REMARK    7  A    between atoms: N_17  and  C_18 
ROOT
HETATM    1  N   UNL     1     -42.614  57.254 -53.930  1.00  0.00    -0.067 N 
HETATM    2  H   UNL     1     -42.612  56.223 -53.774  1.00  0.00     0.280 HD
HETATM    3  C   UNL     1     -41.743  57.842 -52.851  1.00  0.00     0.241 C 
HETATM    4  C   UNL     1     -42.354  57.681 -51.454  1.00  0.00     0.029 C 
HETATM    5  C   UNL     1     -43.767  58.282 -51.442  1.00  0.00     0.009 C 
HETATM    6  C   UNL     1     -44.648  57.676 -52.531  1.00  0.00     0.028 C 
HETATM    7  C   UNL     1     -44.020  57.786 -53.911  1.00  0.00     0.235 C 
ENDROOT
BRANCH   4   8
HETATM    8  C   UNL     1     -42.385  56.250 -50.880  1.00  0.00     0.130 C 
BRANCH   8   9
HETATM    9  N   UNL     1     -41.220  55.450 -51.192  1.00  0.00    -0.342 N 
HETATM   10  C   UNL     1     -41.391  54.167 -51.681  1.00  0.00     0.320 C 
HETATM   11  N   UNL     1     -40.194  53.501 -51.761  1.00  0.00    -0.309 N 
HETATM   12  O   UNL     1     -42.501  53.773 -52.027  1.00  0.00    -0.247 OA
HETATM   13  H   UNL     1     -39.364  54.066 -51.640  1.00  0.00     0.170 HD
HETATM   14  H   UNL     1     -40.426  55.563 -50.571  1.00  0.00     0.164 HD
BRANCH  11  15
HETATM   15  C   UNL     1     -39.978  52.157 -52.126  1.00  0.00     0.039 A 
HETATM   16  C   UNL     1     -39.955  51.708 -53.444  1.00  0.00     0.071 A 
HETATM   17  C   UNL     1     -39.719  50.361 -53.712  1.00  0.00     0.118 A 
HETATM   18  F   UNL     1     -39.661  49.948 -54.985  1.00  0.00    -0.206 F 
HETATM   19  C   UNL     1     -39.525  49.443 -52.687  1.00  0.00     0.042 A 
HETATM   20  C   UNL     1     -39.569  49.879 -51.367  1.00  0.00     0.005 A 
HETATM   21  C   UNL     1     -39.793  51.231 -51.088  1.00  0.00     0.030 A 
ENDBRANCH  11  15
ENDBRANCH   8   9
ENDBRANCH   4   8
BRANCH   1  22
HETATM   22  C   UNL     1     -42.017  57.434 -55.317  1.00  0.00     0.274 C 
BRANCH  22  23
HETATM   23  C   UNL     1     -42.625  56.578 -56.371  1.00  0.00    -0.015 A 
HETATM   24  C   UNL     1     -42.914  55.229 -56.274  1.00  0.00     0.097 A 
HETATM   25  N   UNL     1     -43.451  54.811 -57.464  1.00  0.00    -0.360 N 
HETATM   26  C   UNL     1     -43.487  55.857 -58.356  1.00  0.00     0.108 A 
HETATM   27  H   UNL     1     -43.733  53.862 -57.689  1.00  0.00     0.165 HD
HETATM   28  C   UNL     1     -43.036  56.975 -57.675  1.00  0.00     0.046 A 
BRANCH  26  29
HETATM   29  C   UNL     1     -43.905  55.757 -59.734  1.00  0.00     0.309 C 
HETATM   30  O   UNL     1     -43.257  56.154 -60.692  1.00  0.00    -0.258 OA
BRANCH  29  31
HETATM   31  O   UNL     1     -45.110  55.127 -59.802  1.00  0.00    -0.321 OA
HETATM   32  C   UNL     1     -46.181  55.977 -60.210  1.00  0.00     0.213 C 
ENDBRANCH  29  31
ENDBRANCH  26  29
ENDBRANCH  22  23
ENDBRANCH   1  22
TORSDOF 7
ENDMDL
MODEL 2
REMARK VINA RESULT:      -8.2      1.010      1.356
REMARK  7 active torsions:
REMARK  status: ('A' for Active; 'I' for Inactive)
REMARK    1  A    between atoms: O_2  and  C_3 
REMARK    2  A    between atoms: C_3  and  C_4 
REMARK    3  A    between atoms: C_8  and  C_9 
REMARK    4  A    between atoms: C_9  and  N_10 
REMARK    5  A    between atoms: C_13  and  C_14 
REMARK    6  A    between atoms: C_14  and  N_15 
REMARK       I    between atoms: N_15  and  C_16 
REMARK       I    between atoms: C_16  and  N_17 
REMARK    7  A    between atoms: N_17  and  C_18 
ROOT
HETATM    1  N   UNL     1     -42.789  57.750 -53.904  1.00  0.00    -0.067 N 
HETATM    2  H   UNL     1     -42.713  56.712 -53.841  1.00  0.00     0.280 HD
HETATM    3  C   UNL     1     -41.886  58.301 -52.833  1.00  0.00     0.241 C 
HETATM    4  C   UNL     1     -42.390  57.981 -51.420  1.00  0.00     0.029 C 
HETATM    5  C   UNL     1     -43.833  58.482 -51.268  1.00  0.00     0.009 C 
HETATM    6  C   UNL     1     -44.747  57.913 -52.351  1.00  0.00     0.028 C 
HETATM    7  C   UNL     1     -44.221  58.182 -53.751  1.00  0.00     0.235 C 
ENDROOT
BRANCH   4   8
HETATM    8  C   UNL     1     -42.294  56.507 -50.976  1.00  0.00     0.130 C 
BRANCH   8   9
HETATM    9  N   UNL     1     -41.273  55.738 -51.654  1.00  0.00    -0.342 N 
HETATM   10  C   UNL     1     -41.445  54.374 -51.810  1.00  0.00     0.320 C 
HETATM   11  N   UNL     1     -40.315  53.785 -52.320  1.00  0.00    -0.309 N 
HETATM   12  O   UNL     1     -42.522  53.846 -51.550  1.00  0.00    -0.247 OA
HETATM   13  H   UNL     1     -39.609  54.415 -52.676  1.00  0.00     0.170 HD
HETATM   14  H   UNL     1     -40.315  56.027 -51.486  1.00  0.00     0.164 HD
BRANCH  11  15
HETATM   15  C   UNL     1     -40.080  52.412 -52.532  1.00  0.00     0.039 A 
HETATM   16  C   UNL     1     -39.724  51.523 -51.521  1.00  0.00     0.071 A 
HETATM   17  C   UNL     1     -39.525  50.177 -51.821  1.00  0.00     0.118 A 
HETATM   18  F   UNL     1     -39.221  49.325 -50.833  1.00  0.00    -0.206 F 
HETATM   19  C   UNL     1     -39.656  49.698 -53.119  1.00  0.00     0.042 A 
HETATM   20  C   UNL     1     -39.990  50.584 -54.138  1.00  0.00     0.005 A 
HETATM   21  C   UNL     1     -40.202  51.935 -53.845  1.00  0.00     0.030 A 
ENDBRANCH  11  15
ENDBRANCH   8   9
ENDBRANCH   4   8
BRANCH   1  22
HETATM   22  C   UNL     1     -42.298  58.087 -55.303  1.00  0.00     0.274 C 
BRANCH  22  23
HETATM   23  C   UNL     1     -42.694  57.108 -56.352  1.00  0.00    -0.015 A 
HETATM   24  C   UNL     1     -42.991  55.771 -56.164  1.00  0.00     0.097 A 
HETATM   25  N   UNL     1     -43.291  55.215 -57.380  1.00  0.00    -0.360 N 
HETATM   26  C   UNL     1     -43.162  56.159 -58.373  1.00  0.00     0.108 A 
HETATM   27  H   UNL     1     -43.523  54.241 -57.548  1.00  0.00     0.165 HD
HETATM   28  C   UNL     1     -42.851  57.353 -57.746  1.00  0.00     0.046 A 
BRANCH  26  29
HETATM   29  C   UNL     1     -43.311  55.901 -59.785  1.00  0.00     0.309 C 
HETATM   30  O   UNL     1     -42.785  56.555 -60.674  1.00  0.00    -0.258 OA
BRANCH  29  31
HETATM   31  O   UNL     1     -44.097  54.805 -59.970  1.00  0.00    -0.321 OA
HETATM   32  C   UNL     1     -44.970  54.907 -61.094  1.00  0.00     0.213 C 
ENDBRANCH  29  31
ENDBRANCH  26  29
ENDBRANCH  22  23
ENDBRANCH   1  22
TORSDOF 7
ENDMDL
MODEL 3
REMARK VINA RESULT:      -7.7      2.558      6.083
REMARK  7 active torsions:
REMARK  status: ('A' for Active; 'I' for Inactive)
REMARK    1  A    between atoms: O_2  and  C_3 
REMARK    2  A    between atoms: C_3  and  C_4 
REMARK    3  A    between atoms: C_8  and  C_9 
REMARK    4  A    between atoms: C_9  and  N_10 
REMARK    5  A    between atoms: C_13  and  C_14 
REMARK    6  A    between atoms: C_14  and  N_15 
REMARK       I    between atoms: N_15  and  C_16 
REMARK       I    between atoms: C_16  and  N_17 
REMARK    7  A    between atoms: N_17  and  C_18 
ROOT
HETATM    1  N   UNL     1     -43.996  58.337 -55.701  1.00  0.00    -0.067 N 
HETATM    2  H   UNL     1     -43.317  57.594 -55.429  1.00  0.00     0.280 HD
HETATM    3  C   UNL     1     -44.856  57.741 -56.784  1.00  0.00     0.241 C 
HETATM    4  C   UNL     1     -44.070  57.472 -58.073  1.00  0.00     0.029 C 
HETATM    5  C   UNL     1     -43.384  58.766 -58.532  1.00  0.00     0.009 C 
HETATM    6  C   UNL     1     -42.506  59.361 -57.433  1.00  0.00     0.028 C 
HETATM    7  C   UNL     1     -43.269  59.578 -56.137  1.00  0.00     0.235 C 
ENDROOT
BRANCH   4   8
HETATM    8  C   UNL     1     -43.045  56.321 -58.024  1.00  0.00     0.130 C 
BRANCH   8   9
HETATM    9  N   UNL     1     -43.296  55.334 -56.995  1.00  0.00    -0.342 N 
HETATM   10  C   UNL     1     -42.485  55.303 -55.875  1.00  0.00     0.320 C 
HETATM   11  N   UNL     1     -42.758  54.209 -55.093  1.00  0.00    -0.309 N 
HETATM   12  O   UNL     1     -41.686  56.209 -55.657  1.00  0.00    -0.247 OA
HETATM   13  H   UNL     1     -43.600  53.698 -55.323  1.00  0.00     0.170 HD
HETATM   14  H   UNL     1     -43.602  54.424 -57.321  1.00  0.00     0.164 HD
BRANCH  11  15
HETATM   15  C   UNL     1     -42.085  53.794 -53.926  1.00  0.00     0.039 A 
HETATM   16  C   UNL     1     -40.939  53.002 -53.935  1.00  0.00     0.071 A 
HETATM   17  C   UNL     1     -40.331  52.652 -52.732  1.00  0.00     0.118 A 
HETATM   18  F   UNL     1     -39.208  51.923 -52.754  1.00  0.00    -0.206 F 
HETATM   19  C   UNL     1     -40.854  53.061 -51.511  1.00  0.00     0.042 A 
HETATM   20  C   UNL     1     -42.010  53.833 -51.492  1.00  0.00     0.005 A 
HETATM   21  C   UNL     1     -42.622  54.199 -52.696  1.00  0.00     0.030 A 
ENDBRANCH  11  15
ENDBRANCH   8   9
ENDBRANCH   4   8
BRANCH   1  22
HETATM   22  C   UNL     1     -44.782  58.622 -54.431  1.00  0.00     0.274 C 
BRANCH  22  23
HETATM   23  C   UNL     1     -44.096  58.218 -53.173  1.00  0.00    -0.015 A 
HETATM   24  C   UNL     1     -44.699  57.890 -51.973  1.00  0.00     0.097 A 
HETATM   25  N   UNL     1     -43.722  57.592 -51.059  1.00  0.00    -0.360 N 
HETATM   26  C   UNL     1     -42.481  57.753 -51.631  1.00  0.00     0.108 A 
HETATM   27  H   UNL     1     -43.872  57.343 -50.087  1.00  0.00     0.165 HD
HETATM   28  C   UNL     1     -42.695  58.081 -52.959  1.00  0.00     0.046 A 
BRANCH  26  29
HETATM   29  C   UNL     1     -41.223  57.614 -50.935  1.00  0.00     0.309 C 
HETATM   30  O   UNL     1     -41.004  56.809 -50.042  1.00  0.00    -0.258 OA
BRANCH  29  31
HETATM   31  O   UNL     1     -40.317  58.491 -51.449  1.00  0.00    -0.321 OA
HETATM   32  C   UNL     1     -39.850  59.453 -50.504  1.00  0.00     0.213 C 
ENDBRANCH  29  31
ENDBRANCH  26  29
ENDBRANCH  22  23
ENDBRANCH   1  22
TORSDOF 7
ENDMDL
MODEL 4
REMARK VINA RESULT:      -7.7      2.770      6.369
REMARK  7 active torsions:
REMARK  status: ('A' for Active; 'I' for Inactive)
REMARK    1  A    between atoms: O_2  and  C_3 
REMARK    2  A    between atoms: C_3  and  C_4 
REMARK    3  A    between atoms: C_8  and  C_9 
REMARK    4  A    between atoms: C_9  and  N_10 
REMARK    5  A    between atoms: C_13  and  C_14 
REMARK    6  A    between atoms: C_14  and  N_15 
REMARK       I    between atoms: N_15  and  C_16 
REMARK       I    between atoms: C_16  and  N_17 
REMARK    7  A    between atoms: N_17  and  C_18 
ROOT
HETATM    1  N   UNL     1     -43.423  58.843 -57.480  1.00  0.00    -0.067 N 
HETATM    2  H   UNL     1     -42.737  58.135 -57.141  1.00  0.00     0.280 HD
HETATM    3  C   UNL     1     -44.609  58.065 -57.987  1.00  0.00     0.241 C 
HETATM    4  C   UNL     1     -44.277  57.244 -59.239  1.00  0.00     0.029 C 
HETATM    5  C   UNL     1     -43.695  58.168 -60.317  1.00  0.00     0.009 C 
HETATM    6  C   UNL     1     -42.488  58.947 -59.801  1.00  0.00     0.028 C 
HETATM    7  C   UNL     1     -42.799  59.720 -58.530  1.00  0.00     0.235 C 
ENDROOT
BRANCH   4   8
HETATM    8  C   UNL     1     -43.355  56.025 -59.035  1.00  0.00     0.130 C 
BRANCH   8   9
HETATM    9  N   UNL     1     -43.684  55.204 -57.889  1.00  0.00    -0.342 N 
HETATM   10  C   UNL     1     -42.932  55.322 -56.734  1.00  0.00     0.320 C 
HETATM   11  N   UNL     1     -43.274  54.360 -55.817  1.00  0.00    -0.309 N 
HETATM   12  O   UNL     1     -42.121  56.235 -56.607  1.00  0.00    -0.247 OA
HETATM   13  H   UNL     1     -44.117  53.837 -56.017  1.00  0.00     0.170 HD
HETATM   14  H   UNL     1     -43.998  54.262 -58.095  1.00  0.00     0.164 HD
BRANCH  11  15
HETATM   15  C   UNL     1     -42.673  54.107 -54.568  1.00  0.00     0.039 A 
HETATM   16  C   UNL     1     -41.501  53.372 -54.409  1.00  0.00     0.071 A 
HETATM   17  C   UNL     1     -40.969  53.185 -53.135  1.00  0.00     0.118 A 
HETATM   18  F   UNL     1     -39.821  52.508 -52.998  1.00  0.00    -0.206 F 
HETATM   19  C   UNL     1     -41.594  53.702 -52.007  1.00  0.00     0.042 A 
HETATM   20  C   UNL     1     -42.777  54.419 -52.155  1.00  0.00     0.005 A 
HETATM   21  C   UNL     1     -43.313  54.622 -53.431  1.00  0.00     0.030 A 
ENDBRANCH  11  15
ENDBRANCH   8   9
ENDBRANCH   4   8
BRANCH   1  22
HETATM   22  C   UNL     1     -43.759  59.673 -56.251  1.00  0.00     0.274 C 
BRANCH  22  23
HETATM   23  C   UNL     1     -43.117  59.206 -54.993  1.00  0.00    -0.015 A 
HETATM   24  C   UNL     1     -43.731  58.536 -53.951  1.00  0.00     0.097 A 
HETATM   25  N   UNL     1     -42.800  58.300 -52.974  1.00  0.00    -0.360 N 
HETATM   26  C   UNL     1     -41.587  58.836 -53.342  1.00  0.00     0.108 A 
HETATM   27  H   UNL     1     -42.974  57.848 -52.082  1.00  0.00     0.165 HD
HETATM   28  C   UNL     1     -41.751  59.348 -54.617  1.00  0.00     0.046 A 
BRANCH  26  29
HETATM   29  C   UNL     1     -40.404  58.855 -52.514  1.00  0.00     0.309 C 
HETATM   30  O   UNL     1     -39.295  59.208 -52.889  1.00  0.00    -0.258 OA
BRANCH  29  31
HETATM   31  O   UNL     1     -40.722  58.454 -51.253  1.00  0.00    -0.321 OA
HETATM   32  C   UNL     1     -40.614  59.490 -50.276  1.00  0.00     0.213 C 
ENDBRANCH  29  31
ENDBRANCH  26  29
ENDBRANCH  22  23
ENDBRANCH   1  22
TORSDOF 7
ENDMDL
MODEL 5
REMARK VINA RESULT:      -7.4      3.150      7.163
REMARK  7 active torsions:
REMARK  status: ('A' for Active; 'I' for Inactive)
REMARK    1  A    between atoms: O_2  and  C_3 
REMARK    2  A    between atoms: C_3  and  C_4 
REMARK    3  A    between atoms: C_8  and  C_9 
REMARK    4  A    between atoms: C_9  and  N_10 
REMARK    5  A    between atoms: C_13  and  C_14 
REMARK    6  A    between atoms: C_14  and  N_15 
REMARK       I    between atoms: N_15  and  C_16 
REMARK       I    between atoms: C_16  and  N_17 
REMARK    7  A    between atoms: N_17  and  C_18 
ROOT
HETATM    1  N   UNL     1     -42.123  56.667 -51.805  1.00  0.00    -0.067 N 
HETATM    2  H   UNL     1     -41.657  56.767 -52.732  1.00  0.00     0.280 HD
HETATM    3  C   UNL     1     -43.166  57.751 -51.742  1.00  0.00     0.241 C 
HETATM    4  C   UNL     1     -42.549  59.155 -51.694  1.00  0.00     0.029 C 
HETATM    5  C   UNL     1     -41.563  59.239 -50.521  1.00  0.00     0.009 C 
HETATM    6  C   UNL     1     -40.502  58.143 -50.595  1.00  0.00     0.028 C 
HETATM    7  C   UNL     1     -41.111  56.755 -50.696  1.00  0.00     0.235 C 
ENDROOT
BRANCH   4   8
HETATM    8  C   UNL     1     -41.872  59.650 -52.989  1.00  0.00     0.130 C 
BRANCH   8   9
HETATM    9  N   UNL     1     -42.657  59.462 -54.190  1.00  0.00    -0.342 N 
HETATM   10  C   UNL     1     -42.277  58.492 -55.101  1.00  0.00     0.320 C 
HETATM   11  N   UNL     1     -43.028  58.565 -56.247  1.00  0.00    -0.309 N 
HETATM   12  O   UNL     1     -41.406  57.675 -54.817  1.00  0.00    -0.247 OA
HETATM   13  H   UNL     1     -43.845  59.161 -56.205  1.00  0.00     0.170 HD
HETATM   14  H   UNL     1     -43.043  60.304 -54.604  1.00  0.00     0.164 HD
BRANCH  11  15
HETATM   15  C   UNL     1     -42.877  57.807 -57.426  1.00  0.00     0.039 A 
HETATM   16  C   UNL     1     -42.298  58.300 -58.593  1.00  0.00     0.071 A 
HETATM   17  C   UNL     1     -42.176  57.472 -59.707  1.00  0.00     0.118 A 
HETATM   18  F   UNL     1     -41.582  57.945 -60.811  1.00  0.00    -0.206 F 
HETATM   19  C   UNL     1     -42.641  56.163 -59.690  1.00  0.00     0.042 A 
HETATM   20  C   UNL     1     -43.241  55.670 -58.536  1.00  0.00     0.005 A 
HETATM   21  C   UNL     1     -43.357  56.490 -57.408  1.00  0.00     0.030 A 
ENDBRANCH  11  15
ENDBRANCH   8   9
ENDBRANCH   4   8
BRANCH   1  22
HETATM   22  C   UNL     1     -42.737  55.276 -51.831  1.00  0.00     0.274 C 
BRANCH  22  23
HETATM   23  C   UNL     1     -41.955  54.267 -52.596  1.00  0.00    -0.015 A 
HETATM   24  C   UNL     1     -42.037  54.015 -53.953  1.00  0.00     0.097 A 
HETATM   25  N   UNL     1     -41.167  53.002 -54.263  1.00  0.00    -0.360 N 
HETATM   26  C   UNL     1     -40.537  52.560 -53.123  1.00  0.00     0.108 A 
HETATM   27  H   UNL     1     -41.035  52.591 -55.181  1.00  0.00     0.165 HD
HETATM   28  C   UNL     1     -40.969  53.374 -52.090  1.00  0.00     0.046 A 
BRANCH  26  29
HETATM   29  C   UNL     1     -39.624  51.443 -53.061  1.00  0.00     0.309 C 
HETATM   30  O   UNL     1     -39.309  50.744 -54.013  1.00  0.00    -0.258 OA
BRANCH  29  31
HETATM   31  O   UNL     1     -39.147  51.312 -51.792  1.00  0.00    -0.321 OA
HETATM   32  C   UNL     1     -39.537  50.096 -51.155  1.00  0.00     0.213 C 
ENDBRANCH  29  31
ENDBRANCH  26  29
ENDBRANCH  22  23
ENDBRANCH   1  22
TORSDOF 7
ENDMDL
MODEL 6
REMARK VINA RESULT:      -7.4      4.033      7.407
REMARK  7 active torsions:
REMARK  status: ('A' for Active; 'I' for Inactive)
REMARK    1  A    between atoms: O_2  and  C_3 
REMARK    2  A    between atoms: C_3  and  C_4 
REMARK    3  A    between atoms: C_8  and  C_9 
REMARK    4  A    between atoms: C_9  and  N_10 
REMARK    5  A    between atoms: C_13  and  C_14 
REMARK    6  A    between atoms: C_14  and  N_15 
REMARK       I    between atoms: N_15  and  C_16 
REMARK       I    between atoms: C_16  and  N_17 
REMARK    7  A    between atoms: N_17  and  C_18 
ROOT
HETATM    1  N   UNL     1     -44.135  59.824 -52.107  1.00  0.00    -0.067 N 
HETATM    2  H   UNL     1     -44.102  59.214 -51.262  1.00  0.00     0.280 HD
HETATM    3  C   UNL     1     -44.364  58.904 -53.277  1.00  0.00     0.241 C 
HETATM    4  C   UNL     1     -43.168  57.980 -53.537  1.00  0.00     0.029 C 
HETATM    5  C   UNL     1     -41.898  58.824 -53.712  1.00  0.00     0.009 C 
HETATM    6  C   UNL     1     -41.666  59.748 -52.518  1.00  0.00     0.028 C 
HETATM    7  C   UNL     1     -42.870  60.627 -52.225  1.00  0.00     0.235 C 
ENDROOT
BRANCH   4   8
HETATM    8  C   UNL     1     -42.923  56.867 -52.498  1.00  0.00     0.130 C 
BRANCH   8   9
HETATM    9  N   UNL     1     -41.717  56.097 -52.712  1.00  0.00    -0.342 N 
HETATM   10  C   UNL     1     -41.806  54.722 -52.841  1.00  0.00     0.320 C 
HETATM   11  N   UNL     1     -40.561  54.144 -52.869  1.00  0.00    -0.309 N 
HETATM   12  O   UNL     1     -42.898  54.175 -52.963  1.00  0.00    -0.247 OA
HETATM   13  H   UNL     1     -39.780  54.777 -52.979  1.00  0.00     0.170 HD
HETATM   14  H   UNL     1     -40.890  56.423 -52.223  1.00  0.00     0.164 HD
BRANCH  11  15
HETATM   15  C   UNL     1     -40.251  52.769 -52.902  1.00  0.00     0.039 A 
HETATM   16  C   UNL     1     -39.856  52.039 -51.784  1.00  0.00     0.071 A 
HETATM   17  C   UNL     1     -39.583  50.678 -51.908  1.00  0.00     0.118 A 
HETATM   18  F   UNL     1     -39.241  49.978 -50.819  1.00  0.00    -0.206 F 
HETATM   19  C   UNL     1     -39.676  50.030 -53.134  1.00  0.00     0.042 A 
HETATM   20  C   UNL     1     -40.049  50.757 -54.259  1.00  0.00     0.005 A 
HETATM   21  C   UNL     1     -40.336  52.121 -54.143  1.00  0.00     0.030 A 
ENDBRANCH  11  15
ENDBRANCH   8   9
ENDBRANCH   4   8
BRANCH   1  22
HETATM   22  C   UNL     1     -45.313  60.754 -51.864  1.00  0.00     0.274 C 
BRANCH  22  23
HETATM   23  C   UNL     1     -45.513  61.144 -50.442  1.00  0.00    -0.015 A 
HETATM   24  C   UNL     1     -45.660  62.428 -49.952  1.00  0.00     0.097 A 
HETATM   25  N   UNL     1     -45.804  62.362 -48.590  1.00  0.00    -0.360 N 
HETATM   26  C   UNL     1     -45.719  61.054 -48.172  1.00  0.00     0.108 A 
HETATM   27  H   UNL     1     -45.904  63.154 -47.964  1.00  0.00     0.165 HD
HETATM   28  C   UNL     1     -45.599  60.281 -49.314  1.00  0.00     0.046 A 
BRANCH  26  29
HETATM   29  C   UNL     1     -45.735  60.622 -46.795  1.00  0.00     0.309 C 
HETATM   30  O   UNL     1     -44.821  60.787 -46.000  1.00  0.00    -0.258 OA
BRANCH  29  31
HETATM   31  O   UNL     1     -46.931  60.036 -46.514  1.00  0.00    -0.321 OA
HETATM   32  C   UNL     1     -46.824  58.882 -45.681  1.00  0.00     0.213 C 
ENDBRANCH  29  31
ENDBRANCH  26  29
ENDBRANCH  22  23
ENDBRANCH   1  22
TORSDOF 7
ENDMDL
MODEL 7
REMARK VINA RESULT:      -7.3      3.003      6.445
REMARK  7 active torsions:
REMARK  status: ('A' for Active; 'I' for Inactive)
REMARK    1  A    between atoms: O_2  and  C_3 
REMARK    2  A    between atoms: C_3  and  C_4 
REMARK    3  A    between atoms: C_8  and  C_9 
REMARK    4  A    between atoms: C_9  and  N_10 
REMARK    5  A    between atoms: C_13  and  C_14 
REMARK    6  A    between atoms: C_14  and  N_15 
REMARK       I    between atoms: N_15  and  C_16 
REMARK       I    between atoms: C_16  and  N_17 
REMARK    7  A    between atoms: N_17  and  C_18 
ROOT
HETATM    1  N   UNL     1     -44.114  59.121 -57.372  1.00  0.00    -0.067 N 
HETATM    2  H   UNL     1     -43.362  58.450 -57.107  1.00  0.00     0.280 HD
HETATM    3  C   UNL     1     -45.148  58.318 -58.116  1.00  0.00     0.241 C 
HETATM    4  C   UNL     1     -44.627  57.799 -59.462  1.00  0.00     0.029 C 
HETATM    5  C   UNL     1     -44.108  58.978 -60.297  1.00  0.00     0.009 C 
HETATM    6  C   UNL     1     -43.053  59.783 -59.541  1.00  0.00     0.028 C 
HETATM    7  C   UNL     1     -43.548  60.253 -58.183  1.00  0.00     0.235 C 
ENDROOT
BRANCH   4   8
HETATM    8  C   UNL     1     -43.563  56.685 -59.402  1.00  0.00     0.130 C 
BRANCH   8   9
HETATM    9  N   UNL     1     -43.763  55.715 -58.346  1.00  0.00    -0.342 N 
HETATM   10  C   UNL     1     -42.968  55.773 -57.216  1.00  0.00     0.320 C 
HETATM   11  N   UNL     1     -43.180  54.688 -56.403  1.00  0.00    -0.309 N 
HETATM   12  O   UNL     1     -42.233  56.736 -57.017  1.00  0.00    -0.247 OA
HETATM   13  H   UNL     1     -43.983  54.115 -56.627  1.00  0.00     0.170 HD
HETATM   14  H   UNL     1     -44.005  54.777 -58.646  1.00  0.00     0.164 HD
BRANCH  11  15
HETATM   15  C   UNL     1     -42.497  54.354 -55.216  1.00  0.00     0.039 A 
HETATM   16  C   UNL     1     -43.113  54.256 -53.971  1.00  0.00     0.071 A 
HETATM   17  C   UNL     1     -42.361  53.905 -52.852  1.00  0.00     0.118 A 
HETATM   18  F   UNL     1     -42.972  53.776 -51.667  1.00  0.00    -0.206 F 
HETATM   19  C   UNL     1     -40.995  53.667 -52.945  1.00  0.00     0.042 A 
HETATM   20  C   UNL     1     -40.367  53.785 -54.180  1.00  0.00     0.005 A 
HETATM   21  C   UNL     1     -41.116  54.126 -55.312  1.00  0.00     0.030 A 
ENDBRANCH  11  15
ENDBRANCH   8   9
ENDBRANCH   4   8
BRANCH   1  22
HETATM   22  C   UNL     1     -44.639  59.652 -56.047  1.00  0.00     0.274 C 
BRANCH  22  23
HETATM   23  C   UNL     1     -44.630  58.663 -54.935  1.00  0.00    -0.015 A 
HETATM   24  C   UNL     1     -45.265  57.434 -54.918  1.00  0.00     0.097 A 
HETATM   25  N   UNL     1     -45.025  56.836 -53.708  1.00  0.00    -0.360 N 
HETATM   26  C   UNL     1     -44.270  57.668 -52.914  1.00  0.00     0.108 A 
HETATM   27  H   UNL     1     -45.389  55.938 -53.406  1.00  0.00     0.165 HD
HETATM   28  C   UNL     1     -43.965  58.779 -53.682  1.00  0.00     0.046 A 
BRANCH  26  29
HETATM   29  C   UNL     1     -43.908  57.401 -51.542  1.00  0.00     0.309 C 
HETATM   30  O   UNL     1     -44.651  56.907 -50.707  1.00  0.00    -0.258 OA
BRANCH  29  31
HETATM   31  O   UNL     1     -42.608  57.751 -51.336  1.00  0.00    -0.321 OA
HETATM   32  C   UNL     1     -41.856  56.772 -50.620  1.00  0.00     0.213 C 
ENDBRANCH  29  31
ENDBRANCH  26  29
ENDBRANCH  22  23
ENDBRANCH   1  22
TORSDOF 7
ENDMDL
MODEL 8
REMARK VINA RESULT:      -7.1      2.617      5.852
REMARK  7 active torsions:
REMARK  status: ('A' for Active; 'I' for Inactive)
REMARK    1  A    between atoms: O_2  and  C_3 
REMARK    2  A    between atoms: C_3  and  C_4 
REMARK    3  A    between atoms: C_8  and  C_9 
REMARK    4  A    between atoms: C_9  and  N_10 
REMARK    5  A    between atoms: C_13  and  C_14 
REMARK    6  A    between atoms: C_14  and  N_15 
REMARK       I    between atoms: N_15  and  C_16 
REMARK       I    between atoms: C_16  and  N_17 
REMARK    7  A    between atoms: N_17  and  C_18 
ROOT
HETATM    1  N   UNL     1     -43.491  59.049 -55.933  1.00  0.00    -0.067 N 
HETATM    2  H   UNL     1     -42.591  58.540 -55.793  1.00  0.00     0.280 HD
HETATM    3  C   UNL     1     -44.530  57.993 -56.200  1.00  0.00     0.241 C 
HETATM    4  C   UNL     1     -44.303  57.273 -57.536  1.00  0.00     0.029 C 
HETATM    5  C   UNL     1     -44.233  58.308 -58.667  1.00  0.00     0.009 C 
HETATM    6  C   UNL     1     -43.171  59.371 -58.396  1.00  0.00     0.028 C 
HETATM    7  C   UNL     1     -43.362  60.048 -57.049  1.00  0.00     0.235 C 
ENDROOT
BRANCH   4   8
HETATM    8  C   UNL     1     -43.086  56.329 -57.607  1.00  0.00     0.130 C 
BRANCH   8   9
HETATM    9  N   UNL     1     -43.164  55.178 -56.733  1.00  0.00    -0.342 N 
HETATM   10  C   UNL     1     -42.231  55.033 -55.721  1.00  0.00     0.320 C 
HETATM   11  N   UNL     1     -42.352  53.813 -55.104  1.00  0.00    -0.309 N 
HETATM   12  O   UNL     1     -41.465  55.951 -55.441  1.00  0.00    -0.247 OA
HETATM   13  H   UNL     1     -43.184  53.284 -55.328  1.00  0.00     0.170 HD
HETATM   14  H   UNL     1     -43.453  54.309 -57.169  1.00  0.00     0.164 HD
BRANCH  11  15
HETATM   15  C   UNL     1     -41.530  53.273 -54.096  1.00  0.00     0.039 A 
HETATM   16  C   UNL     1     -41.620  53.626 -52.752  1.00  0.00     0.071 A 
HETATM   17  C   UNL     1     -40.774  53.027 -51.820  1.00  0.00     0.118 A 
HETATM   18  F   UNL     1     -40.896  53.347 -50.525  1.00  0.00    -0.206 F 
HETATM   19  C   UNL     1     -39.820  52.093 -52.205  1.00  0.00     0.042 A 
HETATM   20  C   UNL     1     -39.708  51.751 -53.549  1.00  0.00     0.005 A 
HETATM   21  C   UNL     1     -40.561  52.338 -54.490  1.00  0.00     0.030 A 
ENDBRANCH  11  15
ENDBRANCH   8   9
ENDBRANCH   4   8
BRANCH   1  22
HETATM   22  C   UNL     1     -43.730  59.775 -54.619  1.00  0.00     0.274 C 
BRANCH  22  23
HETATM   23  C   UNL     1     -43.116  59.123 -53.429  1.00  0.00    -0.015 A 
HETATM   24  C   UNL     1     -41.939  59.488 -52.804  1.00  0.00     0.097 A 
HETATM   25  N   UNL     1     -41.714  58.629 -51.760  1.00  0.00    -0.360 N 
HETATM   26  C   UNL     1     -42.710  57.681 -51.709  1.00  0.00     0.108 A 
HETATM   27  H   UNL     1     -40.910  58.642 -51.141  1.00  0.00     0.165 HD
HETATM   28  C   UNL     1     -43.620  58.009 -52.700  1.00  0.00     0.046 A 
BRANCH  26  29
HETATM   29  C   UNL     1     -42.746  56.565 -50.795  1.00  0.00     0.309 C 
HETATM   30  O   UNL     1     -41.806  56.196 -50.105  1.00  0.00    -0.258 OA
BRANCH  29  31
HETATM   31  O   UNL     1     -43.990  56.013 -50.796  1.00  0.00    -0.321 OA
HETATM   32  C   UNL     1     -44.028  54.680 -50.284  1.00  0.00     0.213 C 
ENDBRANCH  29  31
ENDBRANCH  26  29
ENDBRANCH  22  23
ENDBRANCH   1  22
TORSDOF 7
ENDMDL
MODEL 9
REMARK VINA RESULT:      -7.1     14.660     17.312
REMARK  7 active torsions:
REMARK  status: ('A' for Active; 'I' for Inactive)
REMARK    1  A    between atoms: O_2  and  C_3 
REMARK    2  A    between atoms: C_3  and  C_4 
REMARK    3  A    between atoms: C_8  and  C_9 
REMARK    4  A    between atoms: C_9  and  N_10 
REMARK    5  A    between atoms: C_13  and  C_14 
REMARK    6  A    between atoms: C_14  and  N_15 
REMARK       I    between atoms: N_15  and  C_16 
REMARK       I    between atoms: C_16  and  N_17 
REMARK    7  A    between atoms: N_17  and  C_18 
ROOT
HETATM    1  N   UNL     1     -37.133  40.639 -58.925  1.00  0.00    -0.067 N 
HETATM    2  H   UNL     1     -36.284  40.112 -58.628  1.00  0.00     0.280 HD
HETATM    3  C   UNL     1     -38.298  39.974 -58.240  1.00  0.00     0.241 C 
HETATM    4  C   UNL     1     -38.546  38.552 -58.758  1.00  0.00     0.029 C 
HETATM    5  C   UNL     1     -38.722  38.587 -60.282  1.00  0.00     0.009 C 
HETATM    6  C   UNL     1     -37.534  39.254 -60.972  1.00  0.00     0.028 C 
HETATM    7  C   UNL     1     -37.252  40.643 -60.423  1.00  0.00     0.235 C 
ENDROOT
BRANCH   4   8
HETATM    8  C   UNL     1     -37.498  37.488 -58.372  1.00  0.00     0.130 C 
BRANCH   8   9
HETATM    9  N   UNL     1     -36.889  37.685 -57.074  1.00  0.00    -0.342 N 
HETATM   10  C   UNL     1     -35.585  38.143 -57.001  1.00  0.00     0.320 C 
HETATM   11  N   UNL     1     -35.119  38.111 -55.711  1.00  0.00    -0.309 N 
HETATM   12  O   UNL     1     -35.011  38.558 -58.004  1.00  0.00    -0.247 OA
HETATM   13  H   UNL     1     -35.811  37.947 -54.992  1.00  0.00     0.170 HD
HETATM   14  H   UNL     1     -37.141  37.011 -56.360  1.00  0.00     0.164 HD
BRANCH  11  15
HETATM   15  C   UNL     1     -33.819  38.414 -55.257  1.00  0.00     0.039 A 
HETATM   16  C   UNL     1     -33.526  39.477 -54.406  1.00  0.00     0.071 A 
HETATM   17  C   UNL     1     -32.212  39.692 -53.996  1.00  0.00     0.118 A 
HETATM   18  F   UNL     1     -31.947  40.694 -53.147  1.00  0.00    -0.206 F 
HETATM   19  C   UNL     1     -31.174  38.879 -54.435  1.00  0.00     0.042 A 
HETATM   20  C   UNL     1     -31.455  37.829 -55.303  1.00  0.00     0.005 A 
HETATM   21  C   UNL     1     -32.773  37.597 -55.711  1.00  0.00     0.030 A 
ENDBRANCH  11  15
ENDBRANCH   8   9
ENDBRANCH   4   8
BRANCH   1  22
HETATM   22  C   UNL     1     -36.902  42.056 -58.424  1.00  0.00     0.274 C 
BRANCH  22  23
HETATM   23  C   UNL     1     -36.337  42.144 -57.050  1.00  0.00    -0.015 A 
HETATM   24  C   UNL     1     -35.005  42.286 -56.713  1.00  0.00     0.097 A 
HETATM   25  N   UNL     1     -34.900  42.311 -55.346  1.00  0.00    -0.360 N 
HETATM   26  C   UNL     1     -36.142  42.152 -54.777  1.00  0.00     0.108 A 
HETATM   27  H   UNL     1     -34.036  42.380 -54.817  1.00  0.00     0.165 HD
HETATM   28  C   UNL     1     -37.052  42.109 -55.819  1.00  0.00     0.046 A 
BRANCH  26  29
HETATM   29  C   UNL     1     -36.397  42.038 -53.361  1.00  0.00     0.309 C 
HETATM   30  O   UNL     1     -37.309  41.393 -52.864  1.00  0.00    -0.258 OA
BRANCH  29  31
HETATM   31  O   UNL     1     -35.450  42.729 -52.669  1.00  0.00    -0.321 OA
HETATM   32  C   UNL     1     -34.812  41.964 -51.647  1.00  0.00     0.213 C 
ENDBRANCH  29  31
ENDBRANCH  26  29
ENDBRANCH  22  23
ENDBRANCH   1  22
TORSDOF 7
ENDMDL
MODEL 10
REMARK VINA RESULT:      -7.1      4.071      7.120
REMARK  7 active torsions:
REMARK  status: ('A' for Active; 'I' for Inactive)
REMARK    1  A    between atoms: O_2  and  C_3 
REMARK    2  A    between atoms: C_3  and  C_4 
REMARK    3  A    between atoms: C_8  and  C_9 
REMARK    4  A    between atoms: C_9  and  N_10 
REMARK    5  A    between atoms: C_13  and  C_14 
REMARK    6  A    between atoms: C_14  and  N_15 
REMARK       I    between atoms: N_15  and  C_16 
REMARK       I    between atoms: C_16  and  N_17 
REMARK    7  A    between atoms: N_17  and  C_18 
ROOT
HETATM    1  N   UNL     1     -44.187  59.191 -52.190  1.00  0.00    -0.067 N 
HETATM    2  H   UNL     1     -44.483  58.840 -53.126  1.00  0.00     0.280 HD
HETATM    3  C   UNL     1     -42.688  59.048 -52.144  1.00  0.00     0.241 C 
HETATM    4  C   UNL     1     -42.241  57.581 -52.145  1.00  0.00     0.029 C 
HETATM    5  C   UNL     1     -42.924  56.838 -50.988  1.00  0.00     0.009 C 
HETATM    6  C   UNL     1     -44.443  56.979 -51.044  1.00  0.00     0.028 C 
HETATM    7  C   UNL     1     -44.887  58.432 -51.098  1.00  0.00     0.235 C 
ENDROOT
BRANCH   4   8
HETATM    8  C   UNL     1     -42.442  56.803 -53.462  1.00  0.00     0.130 C 
BRANCH   8   9
HETATM    9  N   UNL     1     -41.377  55.878 -53.784  1.00  0.00    -0.342 N 
HETATM   10  C   UNL     1     -41.535  54.535 -53.491  1.00  0.00     0.320 C 
HETATM   11  N   UNL     1     -40.373  53.839 -53.708  1.00  0.00    -0.309 N 
HETATM   12  O   UNL     1     -42.626  54.097 -53.139  1.00  0.00    -0.247 OA
HETATM   13  H   UNL     1     -39.646  54.333 -54.209  1.00  0.00     0.170 HD
HETATM   14  H   UNL     1     -40.433  56.230 -53.663  1.00  0.00     0.164 HD
BRANCH  11  15
HETATM   15  C   UNL     1     -40.121  52.478 -53.441  1.00  0.00     0.039 A 
HETATM   16  C   UNL     1     -40.112  51.487 -54.419  1.00  0.00     0.071 A 
HETATM   17  C   UNL     1     -39.838  50.167 -54.064  1.00  0.00     0.118 A 
HETATM   18  F   UNL     1     -39.794  49.229 -55.019  1.00  0.00    -0.206 F 
HETATM   19  C   UNL     1     -39.591  49.809 -52.744  1.00  0.00     0.042 A 
HETATM   20  C   UNL     1     -39.621  50.790 -51.758  1.00  0.00     0.005 A 
HETATM   21  C   UNL     1     -39.883  52.119 -52.106  1.00  0.00     0.030 A 
ENDBRANCH  11  15
ENDBRANCH   8   9
ENDBRANCH   4   8
BRANCH   1  22
HETATM   22  C   UNL     1     -44.628  60.646 -52.168  1.00  0.00     0.274 C 
BRANCH  22  23
HETATM   23  C   UNL     1     -44.792  61.225 -50.807  1.00  0.00    -0.015 A 
HETATM   24  C   UNL     1     -43.781  61.622 -49.952  1.00  0.00     0.097 A 
HETATM   25  N   UNL     1     -44.346  62.084 -48.791  1.00  0.00    -0.360 N 
HETATM   26  C   UNL     1     -45.715  61.964 -48.856  1.00  0.00     0.108 A 
HETATM   27  H   UNL     1     -43.842  62.416 -47.975  1.00  0.00     0.165 HD
HETATM   28  C   UNL     1     -46.012  61.490 -50.122  1.00  0.00     0.046 A 
BRANCH  26  29
HETATM   29  C   UNL     1     -46.625  62.268 -47.778  1.00  0.00     0.309 C 
HETATM   30  O   UNL     1     -47.030  63.388 -47.499  1.00  0.00    -0.258 OA
BRANCH  29  31
HETATM   31  O   UNL     1     -46.986  61.118 -47.146  1.00  0.00    -0.321 OA
HETATM   32  C   UNL     1     -45.990  60.615 -46.256  1.00  0.00     0.213 C 
ENDBRANCH  29  31
ENDBRANCH  26  29
ENDBRANCH  22  23
ENDBRANCH   1  22
TORSDOF 7
ENDMDL
