MODEL 1
REMARK VINA RESULT:      -9.1      0.000      0.000
REMARK  3 active torsions:
REMARK  status: ('A' for Active; 'I' for Inactive)
REMARK    1  A    between atoms: C_5  and  C_6 
REMARK       I    between atoms: C_6  and  N_7 
REMARK    2  A    between atoms: N_7  and  C_8 
REMARK    3  A    between atoms: C_15  and  C_16 
REMARK       I    between atoms: C_16  and  N_17 
ROOT
HETATM    1  C   UNL     1     -42.592  55.525 -56.364  1.00  0.00     0.035 A 
HETATM    2  C   UNL     1     -43.297  55.099 -57.501  1.00  0.00     0.046 A 
HETATM    3  C   UNL     1     -43.581  56.022 -58.532  1.00  0.00     0.030 A 
HETATM    4  C   UNL     1     -43.193  57.344 -58.369  1.00  0.00     0.063 A 
HETATM    5  N   UNL     1     -43.610  57.987 -59.502  1.00  0.00    -0.277 N 
HETATM    6  H   UNL     1     -43.505  58.970 -59.722  1.00  0.00     0.189 HD
HETATM    7  N   UNL     1     -44.205  57.189 -60.405  1.00  0.00    -0.168 NA
HETATM    8  C   UNL     1     -44.191  55.970 -59.819  1.00  0.00     0.156 A 
HETATM    9  C   UNL     1     -42.519  57.806 -57.238  1.00  0.00     0.034 A 
HETATM   10  C   UNL     1     -42.216  56.865 -56.244  1.00  0.00     0.032 A 
ENDROOT
BRANCH   1  11
HETATM   11  N   UNL     1     -42.311  54.553 -55.382  1.00  0.00    -0.326 N 
HETATM   12  C   UNL     1     -41.068  54.254 -54.837  1.00  0.00     0.240 C 
HETATM   13  O   UNL     1     -40.004  54.774 -55.176  1.00  0.00    -0.272 OA
HETATM   14  H   UNL     1     -43.078  53.935 -55.135  1.00  0.00     0.169 HD
BRANCH  12  15
HETATM   15  C   UNL     1     -41.088  53.183 -53.720  1.00  0.00     0.172 C 
HETATM   16  C   UNL     1     -40.810  53.714 -52.311  1.00  0.00    -0.029 A 
HETATM   17  C   UNL     1     -40.011  53.037 -51.365  1.00  0.00    -0.050 A 
HETATM   18  C   UNL     1     -41.443  54.912 -51.910  1.00  0.00     0.009 A 
HETATM   19  C   UNL     1     -39.789  53.616 -50.101  1.00  0.00     0.007 A 
HETATM   20  C   UNL     1     -39.329  51.716 -51.647  1.00  0.00     0.049 C 
HETATM   21  C   UNL     1     -40.386  54.822 -49.747  1.00  0.00     0.001 A 
HETATM   22  C   UNL     1     -41.224  55.465 -50.649  1.00  0.00     0.001 A 
HETATM   23  C   UNL     1     -39.977  50.888 -52.744  1.00  0.00     0.080 C 
HETATM   24  S   UNL     1     -39.977  51.837 -54.278  1.00  0.00    -0.149 SA
ENDBRANCH  12  15
ENDBRANCH   1  11
BRANCH   8  25
HETATM   25  C   UNL     1     -44.733  54.788 -60.502  1.00  0.00     0.270 C 
HETATM   26  N   UNL     1     -45.091  53.771 -59.659  1.00  0.00    -0.365 N 
HETATM   27  H   UNL     1     -44.980  53.908 -58.661  1.00  0.00     0.159 HD
HETATM   28  H   UNL     1     -45.510  52.934 -60.031  1.00  0.00     0.159 HD
HETATM   29  O   UNL     1     -44.879  54.693 -61.716  1.00  0.00    -0.266 OA
ENDBRANCH   8  25
TORSDOF 3
ENDMDL
MODEL 2
REMARK VINA RESULT:      -9.1      2.046      3.060
REMARK  3 active torsions:
REMARK  status: ('A' for Active; 'I' for Inactive)
REMARK    1  A    between atoms: C_5  and  C_6 
REMARK       I    between atoms: C_6  and  N_7 
REMARK    2  A    between atoms: N_7  and  C_8 
REMARK    3  A    between atoms: C_15  and  C_16 
REMARK       I    between atoms: C_16  and  N_17 
ROOT
HETATM    1  C   UNL     1     -43.123  57.056 -55.013  1.00  0.00     0.035 A 
HETATM    2  C   UNL     1     -42.951  56.667 -56.350  1.00  0.00     0.046 A 
HETATM    3  C   UNL     1     -43.818  57.176 -57.342  1.00  0.00     0.030 A 
HETATM    4  C   UNL     1     -44.852  58.017 -56.956  1.00  0.00     0.063 A 
HETATM    5  N   UNL     1     -45.517  58.327 -58.110  1.00  0.00    -0.277 N 
HETATM    6  H   UNL     1     -46.337  58.915 -58.205  1.00  0.00     0.189 HD
HETATM    7  N   UNL     1     -44.983  57.791 -59.220  1.00  0.00    -0.168 NA
HETATM    8  C   UNL     1     -43.929  57.078 -58.760  1.00  0.00     0.156 A 
HETATM    9  C   UNL     1     -45.070  58.397 -55.631  1.00  0.00     0.034 A 
HETATM   10  C   UNL     1     -44.175  57.909 -54.669  1.00  0.00     0.032 A 
ENDROOT
BRANCH   1  11
HETATM   11  N   UNL     1     -42.209  56.540 -54.071  1.00  0.00    -0.326 N 
HETATM   12  C   UNL     1     -42.410  55.457 -53.223  1.00  0.00     0.240 C 
HETATM   13  O   UNL     1     -43.455  54.811 -53.137  1.00  0.00    -0.272 OA
HETATM   14  H   UNL     1     -41.367  57.086 -53.921  1.00  0.00     0.169 HD
BRANCH  12  15
HETATM   15  C   UNL     1     -41.190  55.081 -52.348  1.00  0.00     0.172 C 
HETATM   16  C   UNL     1     -40.628  53.678 -52.593  1.00  0.00    -0.029 A 
HETATM   17  C   UNL     1     -40.183  52.824 -51.561  1.00  0.00    -0.050 A 
HETATM   18  C   UNL     1     -40.480  53.240 -53.928  1.00  0.00     0.009 A 
HETATM   19  C   UNL     1     -39.706  51.539 -51.880  1.00  0.00     0.007 A 
HETATM   20  C   UNL     1     -40.228  53.198 -50.095  1.00  0.00     0.049 C 
HETATM   21  C   UNL     1     -39.616  51.112 -53.202  1.00  0.00     0.001 A 
HETATM   22  C   UNL     1     -39.993  51.968 -54.228  1.00  0.00     0.001 A 
HETATM   23  C   UNL     1     -40.230  54.693 -49.822  1.00  0.00     0.080 C 
HETATM   24  S   UNL     1     -41.669  55.437 -50.615  1.00  0.00    -0.149 SA
ENDBRANCH  12  15
ENDBRANCH   1  11
BRANCH   8  25
HETATM   25  C   UNL     1     -43.044  56.344 -59.674  1.00  0.00     0.270 C 
HETATM   26  N   UNL     1     -41.791  56.880 -59.789  1.00  0.00    -0.365 N 
HETATM   27  H   UNL     1     -41.564  57.702 -59.241  1.00  0.00     0.159 HD
HETATM   28  H   UNL     1     -41.100  56.424 -60.362  1.00  0.00     0.159 HD
HETATM   29  O   UNL     1     -43.364  55.329 -60.284  1.00  0.00    -0.266 OA
ENDBRANCH   8  25
TORSDOF 3
ENDMDL
MODEL 3
REMARK VINA RESULT:      -9.0      3.199      8.484
REMARK  3 active torsions:
REMARK  status: ('A' for Active; 'I' for Inactive)
REMARK    1  A    between atoms: C_5  and  C_6 
REMARK       I    between atoms: C_6  and  N_7 
REMARK    2  A    between atoms: N_7  and  C_8 
REMARK    3  A    between atoms: C_15  and  C_16 
REMARK       I    between atoms: C_16  and  N_17 
ROOT
HETATM    1  C   UNL     1     -41.086  54.540 -54.201  1.00  0.00     0.035 A 
HETATM    2  C   UNL     1     -41.271  54.570 -52.810  1.00  0.00     0.046 A 
HETATM    3  C   UNL     1     -40.766  53.517 -52.017  1.00  0.00     0.030 A 
HETATM    4  C   UNL     1     -40.138  52.450 -52.644  1.00  0.00     0.063 A 
HETATM    5  N   UNL     1     -39.779  51.597 -51.638  1.00  0.00    -0.277 N 
HETATM    6  H   UNL     1     -39.307  50.705 -51.730  1.00  0.00     0.189 HD
HETATM    7  N   UNL     1     -40.085  52.033 -50.405  1.00  0.00    -0.168 NA
HETATM    8  C   UNL     1     -40.694  53.221 -50.624  1.00  0.00     0.156 A 
HETATM    9  C   UNL     1     -39.968  52.374 -54.028  1.00  0.00     0.034 A 
HETATM   10  C   UNL     1     -40.444  53.448 -54.791  1.00  0.00     0.032 A 
ENDROOT
BRANCH   1  11
HETATM   11  N   UNL     1     -41.585  55.634 -54.939  1.00  0.00    -0.326 N 
HETATM   12  C   UNL     1     -42.920  55.967 -55.135  1.00  0.00     0.240 C 
HETATM   13  O   UNL     1     -43.879  55.313 -54.723  1.00  0.00    -0.272 OA
HETATM   14  H   UNL     1     -40.901  56.160 -55.472  1.00  0.00     0.169 HD
BRANCH  12  15
HETATM   15  C   UNL     1     -43.154  57.271 -55.934  1.00  0.00     0.172 C 
HETATM   16  C   UNL     1     -42.812  57.186 -57.423  1.00  0.00    -0.029 A 
HETATM   17  C   UNL     1     -42.166  58.220 -58.136  1.00  0.00    -0.050 A 
HETATM   18  C   UNL     1     -43.224  56.042 -58.141  1.00  0.00     0.009 A 
HETATM   19  C   UNL     1     -41.868  58.042 -59.500  1.00  0.00     0.007 A 
HETATM   20  C   UNL     1     -41.730  59.521 -57.499  1.00  0.00     0.049 C 
HETATM   21  C   UNL     1     -42.242  56.883 -60.174  1.00  0.00     0.001 A 
HETATM   22  C   UNL     1     -42.932  55.886 -59.496  1.00  0.00     0.001 A 
HETATM   23  C   UNL     1     -42.497  59.902 -56.245  1.00  0.00     0.080 C 
HETATM   24  S   UNL     1     -42.296  58.602 -55.011  1.00  0.00    -0.149 SA
ENDBRANCH  12  15
ENDBRANCH   1  11
BRANCH   8  25
HETATM   25  C   UNL     1     -41.170  54.053 -49.511  1.00  0.00     0.270 C 
HETATM   26  N   UNL     1     -40.256  54.217 -48.506  1.00  0.00    -0.365 N 
HETATM   27  H   UNL     1     -39.344  53.786 -48.605  1.00  0.00     0.159 HD
HETATM   28  H   UNL     1     -40.476  54.805 -47.718  1.00  0.00     0.159 HD
HETATM   29  O   UNL     1     -42.276  54.582 -49.463  1.00  0.00    -0.266 OA
ENDBRANCH   8  25
TORSDOF 3
ENDMDL
MODEL 4
REMARK VINA RESULT:      -8.3      4.961      6.533
REMARK  3 active torsions:
REMARK  status: ('A' for Active; 'I' for Inactive)
REMARK    1  A    between atoms: C_5  and  C_6 
REMARK       I    between atoms: C_6  and  N_7 
REMARK    2  A    between atoms: N_7  and  C_8 
REMARK    3  A    between atoms: C_15  and  C_16 
REMARK       I    between atoms: C_16  and  N_17 
ROOT
HETATM    1  C   UNL     1     -43.385  58.039 -52.787  1.00  0.00     0.035 A 
HETATM    2  C   UNL     1     -44.016  58.914 -51.888  1.00  0.00     0.046 A 
HETATM    3  C   UNL     1     -45.027  59.782 -52.355  1.00  0.00     0.030 A 
HETATM    4  C   UNL     1     -45.337  59.781 -53.707  1.00  0.00     0.063 A 
HETATM    5  N   UNL     1     -46.321  60.718 -53.856  1.00  0.00    -0.277 N 
HETATM    6  H   UNL     1     -46.782  60.992 -54.715  1.00  0.00     0.189 HD
HETATM    7  N   UNL     1     -46.705  61.305 -52.710  1.00  0.00    -0.168 NA
HETATM    8  C   UNL     1     -45.914  60.734 -51.773  1.00  0.00     0.156 A 
HETATM    9  C   UNL     1     -44.706  58.947 -54.632  1.00  0.00     0.034 A 
HETATM   10  C   UNL     1     -43.732  58.068 -54.140  1.00  0.00     0.032 A 
ENDROOT
BRANCH   1  11
HETATM   11  N   UNL     1     -42.404  57.174 -52.259  1.00  0.00    -0.326 N 
HETATM   12  C   UNL     1     -42.558  55.826 -51.957  1.00  0.00     0.240 C 
HETATM   13  O   UNL     1     -43.609  55.193 -52.066  1.00  0.00    -0.272 OA
HETATM   14  H   UNL     1     -41.537  57.611 -51.965  1.00  0.00     0.169 HD
BRANCH  12  15
HETATM   15  C   UNL     1     -41.275  55.121 -51.456  1.00  0.00     0.172 C 
HETATM   16  C   UNL     1     -40.774  53.982 -52.348  1.00  0.00    -0.029 A 
HETATM   17  C   UNL     1     -40.261  52.766 -51.847  1.00  0.00    -0.050 A 
HETATM   18  C   UNL     1     -40.759  54.183 -53.746  1.00  0.00     0.009 A 
HETATM   19  C   UNL     1     -39.848  51.763 -52.745  1.00  0.00     0.007 A 
HETATM   20  C   UNL     1     -40.164  52.451 -50.370  1.00  0.00     0.049 C 
HETATM   21  C   UNL     1     -39.888  51.968 -54.121  1.00  0.00     0.001 A 
HETATM   22  C   UNL     1     -40.334  53.184 -54.622  1.00  0.00     0.001 A 
HETATM   23  C   UNL     1     -40.102  53.669 -49.464  1.00  0.00     0.080 C 
HETATM   24  S   UNL     1     -41.586  54.664 -49.710  1.00  0.00    -0.149 SA
ENDBRANCH  12  15
ENDBRANCH   1  11
BRANCH   8  25
HETATM   25  C   UNL     1     -46.036  61.086 -50.352  1.00  0.00     0.270 C 
HETATM   26  N   UNL     1     -46.266  62.415 -50.122  1.00  0.00    -0.365 N 
HETATM   27  H   UNL     1     -46.353  63.036 -50.919  1.00  0.00     0.159 HD
HETATM   28  H   UNL     1     -46.404  62.746 -49.181  1.00  0.00     0.159 HD
HETATM   29  O   UNL     1     -45.958  60.282 -49.428  1.00  0.00    -0.266 OA
ENDBRANCH   8  25
TORSDOF 3
ENDMDL
MODEL 5
REMARK VINA RESULT:      -8.3      2.257      3.525
REMARK  3 active torsions:
REMARK  status: ('A' for Active; 'I' for Inactive)
REMARK    1  A    between atoms: C_5  and  C_6 
REMARK       I    between atoms: C_6  and  N_7 
REMARK    2  A    between atoms: N_7  and  C_8 
REMARK    3  A    between atoms: C_15  and  C_16 
REMARK       I    between atoms: C_16  and  N_17 
ROOT
HETATM    1  C   UNL     1     -42.486  55.367 -56.062  1.00  0.00     0.035 A 
HETATM    2  C   UNL     1     -42.211  56.671 -55.620  1.00  0.00     0.046 A 
HETATM    3  C   UNL     1     -42.474  57.766 -56.472  1.00  0.00     0.030 A 
HETATM    4  C   UNL     1     -42.956  57.517 -57.749  1.00  0.00     0.063 A 
HETATM    5  N   UNL     1     -43.095  58.747 -58.330  1.00  0.00    -0.277 N 
HETATM    6  H   UNL     1     -43.416  58.947 -59.270  1.00  0.00     0.189 HD
HETATM    7  N   UNL     1     -42.780  59.778 -57.529  1.00  0.00    -0.168 NA
HETATM    8  C   UNL     1     -42.396  59.186 -56.375  1.00  0.00     0.156 A 
HETATM    9  C   UNL     1     -43.209  56.231 -58.230  1.00  0.00     0.034 A 
HETATM   10  C   UNL     1     -42.975  55.163 -57.354  1.00  0.00     0.032 A 
ENDROOT
BRANCH   1  11
HETATM   11  N   UNL     1     -42.231  54.315 -55.157  1.00  0.00    -0.326 N 
HETATM   12  C   UNL     1     -40.988  53.882 -54.712  1.00  0.00     0.240 C 
HETATM   13  O   UNL     1     -39.905  54.334 -55.090  1.00  0.00    -0.272 OA
HETATM   14  H   UNL     1     -43.031  53.748 -54.897  1.00  0.00     0.169 HD
BRANCH  12  15
HETATM   15  C   UNL     1     -41.032  52.748 -53.660  1.00  0.00     0.172 C 
HETATM   16  C   UNL     1     -41.009  53.217 -52.203  1.00  0.00    -0.029 A 
HETATM   17  C   UNL     1     -40.271  52.574 -51.187  1.00  0.00    -0.050 A 
HETATM   18  C   UNL     1     -41.825  54.312 -51.840  1.00  0.00     0.009 A 
HETATM   19  C   UNL     1     -40.290  53.094 -49.879  1.00  0.00     0.007 A 
HETATM   20  C   UNL     1     -39.408  51.355 -51.432  1.00  0.00     0.049 C 
HETATM   21  C   UNL     1     -41.065  54.204 -49.557  1.00  0.00     0.001 A 
HETATM   22  C   UNL     1     -41.843  54.807 -50.536  1.00  0.00     0.001 A 
HETATM   23  C   UNL     1     -39.803  50.532 -52.646  1.00  0.00     0.080 C 
HETATM   24  S   UNL     1     -39.708  51.568 -54.119  1.00  0.00    -0.149 SA
ENDBRANCH  12  15
ENDBRANCH   1  11
BRANCH   8  25
HETATM   25  C   UNL     1     -41.990  59.979 -55.207  1.00  0.00     0.270 C 
HETATM   26  N   UNL     1     -42.587  61.207 -55.131  1.00  0.00    -0.365 N 
HETATM   27  H   UNL     1     -43.256  61.466 -55.847  1.00  0.00     0.159 HD
HETATM   28  H   UNL     1     -42.402  61.808 -54.343  1.00  0.00     0.159 HD
HETATM   29  O   UNL     1     -41.201  59.596 -54.349  1.00  0.00    -0.266 OA
ENDBRANCH   8  25
TORSDOF 3
ENDMDL
MODEL 6
REMARK VINA RESULT:      -8.3      3.297      8.163
REMARK  3 active torsions:
REMARK  status: ('A' for Active; 'I' for Inactive)
REMARK    1  A    between atoms: C_5  and  C_6 
REMARK       I    between atoms: C_6  and  N_7 
REMARK    2  A    between atoms: N_7  and  C_8 
REMARK    3  A    between atoms: C_15  and  C_16 
REMARK       I    between atoms: C_16  and  N_17 
ROOT
HETATM    1  C   UNL     1     -40.867  54.209 -54.370  1.00  0.00     0.035 A 
HETATM    2  C   UNL     1     -41.192  54.421 -53.021  1.00  0.00     0.046 A 
HETATM    3  C   UNL     1     -40.774  53.487 -52.048  1.00  0.00     0.030 A 
HETATM    4  C   UNL     1     -40.090  52.353 -52.462  1.00  0.00     0.063 A 
HETATM    5  N   UNL     1     -39.837  51.645 -51.320  1.00  0.00    -0.277 N 
HETATM    6  H   UNL     1     -39.362  50.754 -51.244  1.00  0.00     0.189 HD
HETATM    7  N   UNL     1     -40.267  52.237 -50.193  1.00  0.00    -0.168 NA
HETATM    8  C   UNL     1     -40.846  53.379 -50.628  1.00  0.00     0.156 A 
HETATM    9  C   UNL     1     -39.779  52.097 -53.798  1.00  0.00     0.034 A 
HETATM   10  C   UNL     1     -40.171  53.055 -54.742  1.00  0.00     0.032 A 
ENDROOT
BRANCH   1  11
HETATM   11  N   UNL     1     -41.284  55.190 -55.293  1.00  0.00    -0.326 N 
HETATM   12  C   UNL     1     -42.469  55.200 -56.020  1.00  0.00     0.240 C 
HETATM   13  O   UNL     1     -43.319  54.309 -55.997  1.00  0.00    -0.272 OA
HETATM   14  H   UNL     1     -40.597  55.897 -55.532  1.00  0.00     0.169 HD
BRANCH  12  15
HETATM   15  C   UNL     1     -42.680  56.452 -56.904  1.00  0.00     0.172 C 
HETATM   16  C   UNL     1     -43.586  57.526 -56.295  1.00  0.00    -0.029 A 
HETATM   17  C   UNL     1     -44.543  58.252 -57.036  1.00  0.00    -0.050 A 
HETATM   18  C   UNL     1     -43.408  57.859 -54.934  1.00  0.00     0.009 A 
HETATM   19  C   UNL     1     -45.351  59.203 -56.385  1.00  0.00     0.007 A 
HETATM   20  C   UNL     1     -44.788  58.036 -58.514  1.00  0.00     0.049 C 
HETATM   21  C   UNL     1     -45.189  59.479 -55.030  1.00  0.00     0.001 A 
HETATM   22  C   UNL     1     -44.208  58.814 -54.306  1.00  0.00     0.001 A 
HETATM   23  C   UNL     1     -43.613  57.440 -59.271  1.00  0.00     0.080 C 
HETATM   24  S   UNL     1     -43.197  55.840 -58.551  1.00  0.00    -0.149 SA
ENDBRANCH  12  15
ENDBRANCH   1  11
BRANCH   8  25
HETATM   25  C   UNL     1     -41.430  54.347 -49.690  1.00  0.00     0.270 C 
HETATM   26  N   UNL     1     -40.764  54.442 -48.499  1.00  0.00    -0.365 N 
HETATM   27  H   UNL     1     -39.935  53.875 -48.361  1.00  0.00     0.159 HD
HETATM   28  H   UNL     1     -41.065  55.108 -47.806  1.00  0.00     0.159 HD
HETATM   29  O   UNL     1     -42.417  55.036 -49.927  1.00  0.00    -0.266 OA
ENDBRANCH   8  25
TORSDOF 3
ENDMDL
MODEL 7
REMARK VINA RESULT:      -8.2      3.436      8.310
REMARK  3 active torsions:
REMARK  status: ('A' for Active; 'I' for Inactive)
REMARK    1  A    between atoms: C_5  and  C_6 
REMARK       I    between atoms: C_6  and  N_7 
REMARK    2  A    between atoms: N_7  and  C_8 
REMARK    3  A    between atoms: C_15  and  C_16 
REMARK       I    between atoms: C_16  and  N_17 
ROOT
HETATM    1  C   UNL     1     -43.116  54.965 -55.178  1.00  0.00     0.035 A 
HETATM    2  C   UNL     1     -43.539  55.630 -54.017  1.00  0.00     0.046 A 
HETATM    3  C   UNL     1     -43.091  55.183 -52.755  1.00  0.00     0.030 A 
HETATM    4  C   UNL     1     -42.276  54.061 -52.695  1.00  0.00     0.063 A 
HETATM    5  N   UNL     1     -42.023  53.866 -51.365  1.00  0.00    -0.277 N 
HETATM    6  H   UNL     1     -41.469  53.128 -50.949  1.00  0.00     0.189 HD
HETATM    7  N   UNL     1     -42.573  54.787 -50.555  1.00  0.00    -0.168 NA
HETATM    8  C   UNL     1     -43.235  55.609 -51.402  1.00  0.00     0.156 A 
HETATM    9  C   UNL     1     -41.865  53.358 -53.828  1.00  0.00     0.034 A 
HETATM   10  C   UNL     1     -42.292  53.842 -55.072  1.00  0.00     0.032 A 
ENDROOT
BRANCH   1  11
HETATM   11  N   UNL     1     -43.572  55.474 -56.412  1.00  0.00    -0.326 N 
HETATM   12  C   UNL     1     -43.030  56.536 -57.127  1.00  0.00     0.240 C 
HETATM   13  O   UNL     1     -42.082  57.228 -56.753  1.00  0.00    -0.272 OA
HETATM   14  H   UNL     1     -44.453  55.100 -56.750  1.00  0.00     0.169 HD
BRANCH  12  15
HETATM   15  C   UNL     1     -43.708  56.817 -58.489  1.00  0.00     0.172 C 
HETATM   16  C   UNL     1     -45.017  57.605 -58.408  1.00  0.00    -0.029 A 
HETATM   17  C   UNL     1     -46.151  57.320 -59.200  1.00  0.00    -0.050 A 
HETATM   18  C   UNL     1     -45.074  58.722 -57.546  1.00  0.00     0.009 A 
HETATM   19  C   UNL     1     -47.322  58.083 -59.037  1.00  0.00     0.007 A 
HETATM   20  C   UNL     1     -46.198  56.191 -60.207  1.00  0.00     0.049 C 
HETATM   21  C   UNL     1     -47.368  59.150 -58.145  1.00  0.00     0.001 A 
HETATM   22  C   UNL     1     -46.239  59.477 -57.406  1.00  0.00     0.001 A 
HETATM   23  C   UNL     1     -44.841  55.753 -60.733  1.00  0.00     0.080 C 
HETATM   24  S   UNL     1     -43.821  55.204 -59.351  1.00  0.00    -0.149 SA
ENDBRANCH  12  15
ENDBRANCH   1  11
BRANCH   8  25
HETATM   25  C   UNL     1     -43.963  56.787 -50.911  1.00  0.00     0.270 C 
HETATM   26  N   UNL     1     -43.223  57.937 -50.901  1.00  0.00    -0.365 N 
HETATM   27  H   UNL     1     -42.268  57.901 -51.238  1.00  0.00     0.159 HD
HETATM   28  H   UNL     1     -43.648  58.806 -50.619  1.00  0.00     0.159 HD
HETATM   29  O   UNL     1     -45.135  56.777 -50.549  1.00  0.00    -0.266 OA
ENDBRANCH   8  25
TORSDOF 3
ENDMDL
MODEL 8
REMARK VINA RESULT:      -8.0      3.207      4.344
REMARK  3 active torsions:
REMARK  status: ('A' for Active; 'I' for Inactive)
REMARK    1  A    between atoms: C_5  and  C_6 
REMARK       I    between atoms: C_6  and  N_7 
REMARK    2  A    between atoms: N_7  and  C_8 
REMARK    3  A    between atoms: C_15  and  C_16 
REMARK       I    between atoms: C_16  and  N_17 
ROOT
HETATM    1  C   UNL     1     -43.341  57.839 -52.911  1.00  0.00     0.035 A 
HETATM    2  C   UNL     1     -43.371  57.879 -54.314  1.00  0.00     0.046 A 
HETATM    3  C   UNL     1     -44.279  58.741 -54.967  1.00  0.00     0.030 A 
HETATM    4  C   UNL     1     -45.155  59.495 -54.198  1.00  0.00     0.063 A 
HETATM    5  N   UNL     1     -45.906  60.205 -55.093  1.00  0.00    -0.277 N 
HETATM    6  H   UNL     1     -46.655  60.854 -54.885  1.00  0.00     0.189 HD
HETATM    7  N   UNL     1     -45.570  60.006 -56.379  1.00  0.00    -0.168 NA
HETATM    8  C   UNL     1     -44.564  59.105 -56.316  1.00  0.00     0.156 A 
HETATM    9  C   UNL     1     -45.171  59.453 -52.803  1.00  0.00     0.034 A 
HETATM   10  C   UNL     1     -44.237  58.618 -52.176  1.00  0.00     0.032 A 
ENDROOT
BRANCH   1  11
HETATM   11  N   UNL     1     -42.393  56.981 -52.314  1.00  0.00    -0.326 N 
HETATM   12  C   UNL     1     -42.534  55.619 -52.077  1.00  0.00     0.240 C 
HETATM   13  O   UNL     1     -43.549  54.962 -52.316  1.00  0.00    -0.272 OA
HETATM   14  H   UNL     1     -41.575  57.431 -51.916  1.00  0.00     0.169 HD
BRANCH  12  15
HETATM   15  C   UNL     1     -41.288  54.931 -51.470  1.00  0.00     0.172 C 
HETATM   16  C   UNL     1     -40.726  53.771 -52.295  1.00  0.00    -0.029 A 
HETATM   17  C   UNL     1     -40.247  52.570 -51.727  1.00  0.00    -0.050 A 
HETATM   18  C   UNL     1     -40.614  53.936 -53.693  1.00  0.00     0.009 A 
HETATM   19  C   UNL     1     -39.772  51.546 -52.568  1.00  0.00     0.007 A 
HETATM   20  C   UNL     1     -40.253  52.294 -50.240  1.00  0.00     0.049 C 
HETATM   21  C   UNL     1     -39.717  51.714 -53.948  1.00  0.00     0.001 A 
HETATM   22  C   UNL     1     -40.128  52.915 -54.511  1.00  0.00     0.001 A 
HETATM   23  C   UNL     1     -40.255  53.536 -49.364  1.00  0.00     0.080 C 
HETATM   24  S   UNL     1     -41.720  54.519 -49.738  1.00  0.00    -0.149 SA
ENDBRANCH  12  15
ENDBRANCH   1  11
BRANCH   8  25
HETATM   25  C   UNL     1     -43.884  58.631 -57.528  1.00  0.00     0.270 C 
HETATM   26  N   UNL     1     -42.589  59.056 -57.645  1.00  0.00    -0.365 N 
HETATM   27  H   UNL     1     -42.199  59.629 -56.905  1.00  0.00     0.159 HD
HETATM   28  H   UNL     1     -42.027  58.749 -58.423  1.00  0.00     0.159 HD
HETATM   29  O   UNL     1     -44.398  57.905 -58.374  1.00  0.00    -0.266 OA
ENDBRANCH   8  25
TORSDOF 3
ENDMDL
MODEL 9
REMARK VINA RESULT:      -8.0      4.252      5.473
REMARK  3 active torsions:
REMARK  status: ('A' for Active; 'I' for Inactive)
REMARK    1  A    between atoms: C_5  and  C_6 
REMARK       I    between atoms: C_6  and  N_7 
REMARK    2  A    between atoms: N_7  and  C_8 
REMARK    3  A    between atoms: C_15  and  C_16 
REMARK       I    between atoms: C_16  and  N_17 
ROOT
HETATM    1  C   UNL     1     -44.170  57.078 -54.151  1.00  0.00     0.035 A 
HETATM    2  C   UNL     1     -44.596  57.822 -53.039  1.00  0.00     0.046 A 
HETATM    3  C   UNL     1     -45.203  59.081 -53.235  1.00  0.00     0.030 A 
HETATM    4  C   UNL     1     -45.320  59.573 -54.527  1.00  0.00     0.063 A 
HETATM    5  N   UNL     1     -45.921  60.795 -54.399  1.00  0.00    -0.277 N 
HETATM    6  H   UNL     1     -46.153  61.444 -55.140  1.00  0.00     0.189 HD
HETATM    7  N   UNL     1     -46.239  61.126 -53.136  1.00  0.00    -0.168 NA
HETATM    8  C   UNL     1     -45.803  60.074 -52.406  1.00  0.00     0.156 A 
HETATM    9  C   UNL     1     -44.877  58.873 -55.651  1.00  0.00     0.034 A 
HETATM   10  C   UNL     1     -44.312  57.609 -55.436  1.00  0.00     0.032 A 
ENDROOT
BRANCH   1  11
HETATM   11  N   UNL     1     -43.599  55.814 -53.897  1.00  0.00    -0.326 N 
HETATM   12  C   UNL     1     -42.244  55.508 -53.840  1.00  0.00     0.240 C 
HETATM   13  O   UNL     1     -41.330  56.306 -54.057  1.00  0.00    -0.272 OA
HETATM   14  H   UNL     1     -44.244  55.031 -53.866  1.00  0.00     0.169 HD
BRANCH  12  15
HETATM   15  C   UNL     1     -41.923  54.041 -53.468  1.00  0.00     0.172 C 
HETATM   16  C   UNL     1     -41.433  53.831 -52.033  1.00  0.00    -0.029 A 
HETATM   17  C   UNL     1     -40.392  52.943 -51.685  1.00  0.00    -0.050 A 
HETATM   18  C   UNL     1     -42.104  54.509 -50.991  1.00  0.00     0.009 A 
HETATM   19  C   UNL     1     -39.991  52.836 -50.341  1.00  0.00     0.007 A 
HETATM   20  C   UNL     1     -39.636  52.112 -52.699  1.00  0.00     0.049 C 
HETATM   21  C   UNL     1     -40.637  53.552 -49.337  1.00  0.00     0.001 A 
HETATM   22  C   UNL     1     -41.702  54.381 -49.661  1.00  0.00     0.001 A 
HETATM   23  C   UNL     1     -40.393  51.841 -53.989  1.00  0.00     0.080 C 
HETATM   24  S   UNL     1     -40.802  53.412 -54.774  1.00  0.00    -0.149 SA
ENDBRANCH  12  15
ENDBRANCH   1  11
BRANCH   8  25
HETATM   25  C   UNL     1     -45.988  60.025 -50.949  1.00  0.00     0.270 C 
HETATM   26  N   UNL     1     -45.889  61.242 -50.332  1.00  0.00    -0.365 N 
HETATM   27  H   UNL     1     -45.721  62.063 -50.904  1.00  0.00     0.159 HD
HETATM   28  H   UNL     1     -46.040  61.316 -49.339  1.00  0.00     0.159 HD
HETATM   29  O   UNL     1     -46.226  59.003 -50.313  1.00  0.00    -0.266 OA
ENDBRANCH   8  25
TORSDOF 3
ENDMDL
MODEL 10
REMARK VINA RESULT:      -7.8      3.788      8.041
REMARK  3 active torsions:
REMARK  status: ('A' for Active; 'I' for Inactive)
REMARK    1  A    between atoms: C_5  and  C_6 
REMARK       I    between atoms: C_6  and  N_7 
REMARK    2  A    between atoms: N_7  and  C_8 
REMARK    3  A    between atoms: C_15  and  C_16 
REMARK       I    between atoms: C_16  and  N_17 
ROOT
HETATM    1  C   UNL     1     -41.927  55.304 -52.248  1.00  0.00     0.035 A 
HETATM    2  C   UNL     1     -41.294  54.200 -52.841  1.00  0.00     0.046 A 
HETATM    3  C   UNL     1     -40.773  53.173 -52.024  1.00  0.00     0.030 A 
HETATM    4  C   UNL     1     -40.861  53.307 -50.646  1.00  0.00     0.063 A 
HETATM    5  N   UNL     1     -40.269  52.186 -50.133  1.00  0.00    -0.277 N 
HETATM    6  H   UNL     1     -40.144  51.952 -49.156  1.00  0.00     0.189 HD
HETATM    7  N   UNL     1     -39.835  51.315 -51.060  1.00  0.00    -0.168 NA
HETATM    8  C   UNL     1     -40.143  51.912 -52.234  1.00  0.00     0.156 A 
HETATM    9  C   UNL     1     -41.455  54.407 -50.025  1.00  0.00     0.034 A 
HETATM   10  C   UNL     1     -41.997  55.396 -50.856  1.00  0.00     0.032 A 
ENDROOT
BRANCH   1  11
HETATM   11  N   UNL     1     -42.454  56.284 -53.115  1.00  0.00    -0.326 N 
HETATM   12  C   UNL     1     -41.749  57.298 -53.752  1.00  0.00     0.240 C 
HETATM   13  O   UNL     1     -40.546  57.520 -53.610  1.00  0.00    -0.272 OA
HETATM   14  H   UNL     1     -43.466  56.317 -53.186  1.00  0.00     0.169 HD
BRANCH  12  15
HETATM   15  C   UNL     1     -42.594  58.179 -54.703  1.00  0.00     0.172 C 
HETATM   16  C   UNL     1     -42.677  57.676 -56.146  1.00  0.00    -0.029 A 
HETATM   17  C   UNL     1     -42.615  58.524 -57.273  1.00  0.00    -0.050 A 
HETATM   18  C   UNL     1     -42.897  56.298 -56.363  1.00  0.00     0.009 A 
HETATM   19  C   UNL     1     -42.673  57.968 -58.565  1.00  0.00     0.007 A 
HETATM   20  C   UNL     1     -42.445  60.024 -57.176  1.00  0.00     0.049 C 
HETATM   21  C   UNL     1     -42.842  56.599 -58.752  1.00  0.00     0.001 A 
HETATM   22  C   UNL     1     -42.966  55.764 -57.650  1.00  0.00     0.001 A 
HETATM   23  C   UNL     1     -42.906  60.631 -55.861  1.00  0.00     0.080 C 
HETATM   24  S   UNL     1     -41.970  59.891 -54.509  1.00  0.00    -0.149 SA
ENDBRANCH  12  15
ENDBRANCH   1  11
BRANCH   8  25
HETATM   25  C   UNL     1     -39.854  51.263 -53.520  1.00  0.00     0.270 C 
HETATM   26  N   UNL     1     -39.575  49.927 -53.422  1.00  0.00    -0.365 N 
HETATM   27  H   UNL     1     -39.606  49.492 -52.507  1.00  0.00     0.159 HD
HETATM   28  H   UNL     1     -39.404  49.387 -54.255  1.00  0.00     0.159 HD
HETATM   29  O   UNL     1     -39.869  51.836 -54.605  1.00  0.00    -0.266 OA
ENDBRANCH   8  25
TORSDOF 3
ENDMDL
