MODEL 1
REMARK VINA RESULT:      -7.0      0.000      0.000
REMARK  4 active torsions:
REMARK  status: ('A' for Active; 'I' for Inactive)
REMARK    1  A    between atoms: C_2  and  N_3 
REMARK       I    between atoms: N_3  and  C_4 
REMARK    2  A    between atoms: C_4  and  C_5 
REMARK    3  A    between atoms: C_5  and  N_6 
REMARK    4  A    between atoms: N_6  and  C_7 
ROOT
HETATM    1  C   UNL     1     -41.342  55.037 -54.208  1.00  0.00     0.022 A 
HETATM    2  C   UNL     1     -40.808  53.896 -53.539  1.00  0.00     0.013 A 
HETATM    3  C   UNL     1     -40.601  53.961 -52.135  1.00  0.00     0.044 A 
HETATM    4  C   UNL     1     -40.102  52.859 -51.421  1.00  0.00     0.032 A 
HETATM    5  C   UNL     1     -39.787  51.675 -52.085  1.00  0.00     0.021 A 
HETATM    6  C   UNL     1     -39.964  51.593 -53.460  1.00  0.00     0.012 A 
HETATM    7 BR   UNL     1     -39.526  49.994 -54.366  1.00  0.00    -0.051 Br
HETATM    8  C   UNL     1     -40.462  52.683 -54.182  1.00  0.00     0.034 A 
HETATM    9  N   UNL     1     -40.877  55.102 -51.480  1.00  0.00    -0.365 N 
HETATM   10  H   UNL     1     -40.719  55.137 -50.473  1.00  0.00     0.165 HD
HETATM   11  C   UNL     1     -41.327  56.203 -52.090  1.00  0.00     0.090 A 
HETATM   12  C   UNL     1     -41.556  56.199 -53.457  1.00  0.00     0.041 A 
ENDROOT
BRANCH   1  13
HETATM   13  N   UNL     1     -41.502  55.029 -55.604  1.00  0.00    -0.283 NA
HETATM   14  H   UNL     1     -40.837  54.408 -56.069  1.00  0.00     0.128 HD
BRANCH  13  15
HETATM   15  C   UNL     1     -42.843  54.832 -56.203  1.00  0.00     0.195 C 
BRANCH  15  16
HETATM   16  C   UNL     1     -43.053  55.774 -57.394  1.00  0.00     0.230 C 
HETATM   17  N   UNL     1     -43.796  55.219 -58.415  1.00  0.00    -0.360 N 
HETATM   18  H   UNL     1     -44.193  54.297 -58.265  1.00  0.00     0.162 HD
HETATM   19  O   UNL     1     -42.561  56.896 -57.432  1.00  0.00    -0.272 OA
BRANCH  17  20
HETATM   20  C   UNL     1     -44.093  55.935 -59.637  1.00  0.00     0.118 C 
HETATM   21  C   UNL     1     -44.804  55.050 -60.644  1.00  0.00     0.026 C 
ENDBRANCH  17  20
ENDBRANCH  15  16
ENDBRANCH  13  15
ENDBRANCH   1  13
TORSDOF 4
ENDMDL
MODEL 2
REMARK VINA RESULT:      -6.9      1.371      1.412
REMARK  4 active torsions:
REMARK  status: ('A' for Active; 'I' for Inactive)
REMARK    1  A    between atoms: C_2  and  N_3 
REMARK       I    between atoms: N_3  and  C_4 
REMARK    2  A    between atoms: C_4  and  C_5 
REMARK    3  A    between atoms: C_5  and  N_6 
REMARK    4  A    between atoms: N_6  and  C_7 
ROOT
HETATM    1  C   UNL     1     -41.351  55.130 -54.478  1.00  0.00     0.022 A 
HETATM    2  C   UNL     1     -40.842  54.013 -53.751  1.00  0.00     0.013 A 
HETATM    3  C   UNL     1     -40.672  54.130 -52.346  1.00  0.00     0.044 A 
HETATM    4  C   UNL     1     -40.199  53.054 -51.577  1.00  0.00     0.032 A 
HETATM    5  C   UNL     1     -39.875  51.843 -52.187  1.00  0.00     0.021 A 
HETATM    6  C   UNL     1     -40.016  51.710 -53.562  1.00  0.00     0.012 A 
HETATM    7 BR   UNL     1     -39.565  50.074 -54.394  1.00  0.00    -0.051 Br
HETATM    8  C   UNL     1     -40.487  52.774 -54.338  1.00  0.00     0.034 A 
HETATM    9  N   UNL     1     -40.958  55.297 -51.742  1.00  0.00    -0.365 N 
HETATM   10  H   UNL     1     -40.826  55.370 -50.734  1.00  0.00     0.165 HD
HETATM   11  C   UNL     1     -41.384  56.376 -52.406  1.00  0.00     0.090 A 
HETATM   12  C   UNL     1     -41.577  56.321 -53.777  1.00  0.00     0.041 A 
ENDROOT
BRANCH   1  13
HETATM   13  N   UNL     1     -41.473  55.070 -55.876  1.00  0.00    -0.283 NA
HETATM   14  H   UNL     1     -40.951  54.290 -56.280  1.00  0.00     0.128 HD
BRANCH  13  15
HETATM   15  C   UNL     1     -42.810  55.134 -56.514  1.00  0.00     0.195 C 
BRANCH  15  16
HETATM   16  C   UNL     1     -43.046  56.509 -57.149  1.00  0.00     0.230 C 
HETATM   17  N   UNL     1     -42.070  56.877 -58.052  1.00  0.00    -0.360 N 
HETATM   18  H   UNL     1     -41.348  56.199 -58.270  1.00  0.00     0.162 HD
HETATM   19  O   UNL     1     -43.997  57.217 -56.837  1.00  0.00    -0.272 OA
BRANCH  17  20
HETATM   20  C   UNL     1     -42.095  58.145 -58.749  1.00  0.00     0.118 C 
HETATM   21  C   UNL     1     -42.048  57.957 -60.254  1.00  0.00     0.026 C 
ENDBRANCH  17  20
ENDBRANCH  15  16
ENDBRANCH  13  15
ENDBRANCH   1  13
TORSDOF 4
ENDMDL
MODEL 3
REMARK VINA RESULT:      -6.6      1.666      2.093
REMARK  4 active torsions:
REMARK  status: ('A' for Active; 'I' for Inactive)
REMARK    1  A    between atoms: C_2  and  N_3 
REMARK       I    between atoms: N_3  and  C_4 
REMARK    2  A    between atoms: C_4  and  C_5 
REMARK    3  A    between atoms: C_5  and  N_6 
REMARK    4  A    between atoms: N_6  and  C_7 
ROOT
HETATM    1  C   UNL     1     -43.297  55.392 -55.203  1.00  0.00     0.022 A 
HETATM    2  C   UNL     1     -42.527  54.634 -54.272  1.00  0.00     0.013 A 
HETATM    3  C   UNL     1     -42.553  55.003 -52.900  1.00  0.00     0.044 A 
HETATM    4  C   UNL     1     -41.835  54.276 -51.936  1.00  0.00     0.032 A 
HETATM    5  C   UNL     1     -41.066  53.176 -52.314  1.00  0.00     0.021 A 
HETATM    6  C   UNL     1     -41.010  52.807 -53.652  1.00  0.00     0.012 A 
HETATM    7 BR   UNL     1     -39.958  51.325 -54.169  1.00  0.00    -0.051 Br
HETATM    8  C   UNL     1     -41.723  53.522 -54.620  1.00  0.00     0.034 A 
HETATM    9  N   UNL     1     -43.271  56.074 -52.520  1.00  0.00    -0.365 N 
HETATM   10  H   UNL     1     -43.277  56.331 -51.533  1.00  0.00     0.165 HD
HETATM   11  C   UNL     1     -43.958  56.834 -53.378  1.00  0.00     0.090 A 
HETATM   12  C   UNL     1     -43.977  56.520 -54.728  1.00  0.00     0.041 A 
ENDROOT
BRANCH   1  13
HETATM   13  N   UNL     1     -43.245  55.094 -56.574  1.00  0.00    -0.283 NA
HETATM   14  H   UNL     1     -44.114  54.677 -56.916  1.00  0.00     0.128 HD
BRANCH  13  15
HETATM   15  C   UNL     1     -42.788  56.115 -57.547  1.00  0.00     0.195 C 
BRANCH  15  16
HETATM   16  C   UNL     1     -43.253  55.765 -58.965  1.00  0.00     0.230 C 
HETATM   17  N   UNL     1     -44.556  55.317 -59.026  1.00  0.00    -0.360 N 
HETATM   18  H   UNL     1     -45.102  55.331 -58.171  1.00  0.00     0.162 HD
HETATM   19  O   UNL     1     -42.506  55.841 -59.934  1.00  0.00    -0.272 OA
BRANCH  17  20
HETATM   20  C   UNL     1     -45.183  54.918 -60.267  1.00  0.00     0.118 C 
HETATM   21  C   UNL     1     -46.281  55.882 -60.676  1.00  0.00     0.026 C 
ENDBRANCH  17  20
ENDBRANCH  15  16
ENDBRANCH  13  15
ENDBRANCH   1  13
TORSDOF 4
ENDMDL
MODEL 4
REMARK VINA RESULT:      -6.6      2.866      5.743
REMARK  4 active torsions:
REMARK  status: ('A' for Active; 'I' for Inactive)
REMARK    1  A    between atoms: C_2  and  N_3 
REMARK       I    between atoms: N_3  and  C_4 
REMARK    2  A    between atoms: C_4  and  C_5 
REMARK    3  A    between atoms: C_5  and  N_6 
REMARK    4  A    between atoms: N_6  and  C_7 
ROOT
HETATM    1  C   UNL     1     -43.007  55.287 -53.328  1.00  0.00     0.022 A 
HETATM    2  C   UNL     1     -41.931  54.421 -53.686  1.00  0.00     0.013 A 
HETATM    3  C   UNL     1     -41.350  54.548 -54.976  1.00  0.00     0.044 A 
HETATM    4  C   UNL     1     -40.272  53.739 -55.373  1.00  0.00     0.032 A 
HETATM    5  C   UNL     1     -39.756  52.780 -54.503  1.00  0.00     0.021 A 
HETATM    6  C   UNL     1     -40.320  52.624 -53.243  1.00  0.00     0.012 A 
HETATM    7 BR   UNL     1     -39.632  51.315 -52.067  1.00  0.00    -0.051 Br
HETATM    8  C   UNL     1     -41.392  53.425 -52.837  1.00  0.00     0.034 A 
HETATM    9  N   UNL     1     -41.848  55.453 -55.837  1.00  0.00    -0.365 N 
HETATM   10  H   UNL     1     -41.425  55.531 -56.761  1.00  0.00     0.165 HD
HETATM   11  C   UNL     1     -42.889  56.240 -55.548  1.00  0.00     0.090 A 
HETATM   12  C   UNL     1     -43.493  56.167 -54.303  1.00  0.00     0.041 A 
ENDROOT
BRANCH   1  13
HETATM   13  N   UNL     1     -43.645  55.148 -52.085  1.00  0.00    -0.283 NA
HETATM   14  H   UNL     1     -43.450  54.245 -51.645  1.00  0.00     0.128 HD
BRANCH  13  15
HETATM   15  C   UNL     1     -43.532  56.214 -51.061  1.00  0.00     0.195 C 
BRANCH  15  16
HETATM   16  C   UNL     1     -42.195  56.119 -50.318  1.00  0.00     0.230 C 
HETATM   17  N   UNL     1     -42.045  54.954 -49.594  1.00  0.00    -0.360 N 
HETATM   18  H   UNL     1     -42.771  54.251 -49.673  1.00  0.00     0.162 HD
HETATM   19  O   UNL     1     -41.368  57.023 -50.345  1.00  0.00    -0.272 OA
BRANCH  17  20
HETATM   20  C   UNL     1     -40.863  54.675 -48.807  1.00  0.00     0.118 C 
HETATM   21  C   UNL     1     -39.709  54.211 -49.676  1.00  0.00     0.026 C 
ENDBRANCH  17  20
ENDBRANCH  15  16
ENDBRANCH  13  15
ENDBRANCH   1  13
TORSDOF 4
ENDMDL
MODEL 5
REMARK VINA RESULT:      -6.5      4.078      5.582
REMARK  4 active torsions:
REMARK  status: ('A' for Active; 'I' for Inactive)
REMARK    1  A    between atoms: C_2  and  N_3 
REMARK       I    between atoms: N_3  and  C_4 
REMARK    2  A    between atoms: C_4  and  C_5 
REMARK    3  A    between atoms: C_5  and  N_6 
REMARK    4  A    between atoms: N_6  and  C_7 
ROOT
HETATM    1  C   UNL     1     -41.187  53.468 -51.024  1.00  0.00     0.022 A 
HETATM    2  C   UNL     1     -41.009  53.642 -52.429  1.00  0.00     0.013 A 
HETATM    3  C   UNL     1     -40.220  52.699 -53.141  1.00  0.00     0.044 A 
HETATM    4  C   UNL     1     -40.032  52.806 -54.529  1.00  0.00     0.032 A 
HETATM    5  C   UNL     1     -40.612  53.857 -55.238  1.00  0.00     0.021 A 
HETATM    6  C   UNL     1     -41.372  54.803 -54.561  1.00  0.00     0.012 A 
HETATM    7 BR   UNL     1     -42.148  56.236 -55.517  1.00  0.00    -0.051 Br
HETATM    8  C   UNL     1     -41.568  54.705 -53.179  1.00  0.00     0.034 A 
HETATM    9  N   UNL     1     -39.635  51.691 -52.472  1.00  0.00    -0.365 N 
HETATM   10  H   UNL     1     -39.067  51.024 -52.993  1.00  0.00     0.165 HD
HETATM   11  C   UNL     1     -39.741  51.535 -51.148  1.00  0.00     0.090 A 
HETATM   12  C   UNL     1     -40.502  52.419 -50.401  1.00  0.00     0.041 A 
ENDROOT
BRANCH   1  13
HETATM   13  N   UNL     1     -41.909  54.416 -50.280  1.00  0.00    -0.283 NA
HETATM   14  H   UNL     1     -42.537  53.982 -49.600  1.00  0.00     0.128 HD
BRANCH  13  15
HETATM   15  C   UNL     1     -41.208  55.549 -49.630  1.00  0.00     0.195 C 
BRANCH  15  16
HETATM   16  C   UNL     1     -41.481  56.859 -50.378  1.00  0.00     0.230 C 
HETATM   17  N   UNL     1     -42.811  57.055 -50.688  1.00  0.00    -0.360 N 
HETATM   18  H   UNL     1     -43.482  56.379 -50.339  1.00  0.00     0.162 HD
HETATM   19  O   UNL     1     -40.580  57.627 -50.699  1.00  0.00    -0.272 OA
BRANCH  17  20
HETATM   20  C   UNL     1     -43.278  58.219 -51.408  1.00  0.00     0.118 C 
HETATM   21  C   UNL     1     -44.097  57.832 -52.626  1.00  0.00     0.026 C 
ENDBRANCH  17  20
ENDBRANCH  15  16
ENDBRANCH  13  15
ENDBRANCH   1  13
TORSDOF 4
ENDMDL
MODEL 6
REMARK VINA RESULT:      -6.4      3.122      4.124
REMARK  4 active torsions:
REMARK  status: ('A' for Active; 'I' for Inactive)
REMARK    1  A    between atoms: C_2  and  N_3 
REMARK       I    between atoms: N_3  and  C_4 
REMARK    2  A    between atoms: C_4  and  C_5 
REMARK    3  A    between atoms: C_5  and  N_6 
REMARK    4  A    between atoms: N_6  and  C_7 
ROOT
HETATM    1  C   UNL     1     -40.656  53.223 -54.035  1.00  0.00     0.022 A 
HETATM    2  C   UNL     1     -40.595  53.723 -52.700  1.00  0.00     0.013 A 
HETATM    3  C   UNL     1     -40.061  52.890 -51.680  1.00  0.00     0.044 A 
HETATM    4  C   UNL     1     -39.953  53.340 -50.354  1.00  0.00     0.032 A 
HETATM    5  C   UNL     1     -40.384  54.620 -50.009  1.00  0.00     0.021 A 
HETATM    6  C   UNL     1     -40.927  55.446 -50.984  1.00  0.00     0.012 A 
HETATM    7 BR   UNL     1     -41.525  57.176 -50.516  1.00  0.00    -0.051 Br
HETATM    8  C   UNL     1     -41.038  55.009 -52.308  1.00  0.00     0.034 A 
HETATM    9  N   UNL     1     -39.660  51.644 -51.990  1.00  0.00    -0.365 N 
HETATM   10  H   UNL     1     -39.284  51.055 -51.248  1.00  0.00     0.165 HD
HETATM   11  C   UNL     1     -39.756  51.132 -53.220  1.00  0.00     0.090 A 
HETATM   12  C   UNL     1     -40.262  51.898 -54.258  1.00  0.00     0.041 A 
ENDROOT
BRANCH   1  13
HETATM   13  N   UNL     1     -41.235  53.996 -55.054  1.00  0.00    -0.283 NA
HETATM   14  H   UNL     1     -40.829  53.799 -55.972  1.00  0.00     0.128 HD
BRANCH  13  15
HETATM   15  C   UNL     1     -42.709  54.076 -55.189  1.00  0.00     0.195 C 
BRANCH  15  16
HETATM   16  C   UNL     1     -43.177  55.535 -55.208  1.00  0.00     0.230 C 
HETATM   17  N   UNL     1     -44.340  55.754 -54.499  1.00  0.00    -0.360 N 
HETATM   18  H   UNL     1     -44.730  54.975 -53.979  1.00  0.00     0.162 HD
HETATM   19  O   UNL     1     -42.582  56.403 -55.837  1.00  0.00    -0.272 OA
BRANCH  17  20
HETATM   20  C   UNL     1     -44.960  57.058 -54.406  1.00  0.00     0.118 C 
HETATM   21  C   UNL     1     -44.521  57.798 -53.157  1.00  0.00     0.026 C 
ENDBRANCH  17  20
ENDBRANCH  15  16
ENDBRANCH  13  15
ENDBRANCH   1  13
TORSDOF 4
ENDMDL
MODEL 7
REMARK VINA RESULT:      -6.4      2.469      3.345
REMARK  4 active torsions:
REMARK  status: ('A' for Active; 'I' for Inactive)
REMARK    1  A    between atoms: C_2  and  N_3 
REMARK       I    between atoms: N_3  and  C_4 
REMARK    2  A    between atoms: C_4  and  C_5 
REMARK    3  A    between atoms: C_5  and  N_6 
REMARK    4  A    between atoms: N_6  and  C_7 
ROOT
HETATM    1  C   UNL     1     -40.535  53.307 -54.090  1.00  0.00     0.022 A 
HETATM    2  C   UNL     1     -40.553  53.787 -52.747  1.00  0.00     0.013 A 
HETATM    3  C   UNL     1     -40.113  52.927 -51.706  1.00  0.00     0.044 A 
HETATM    4  C   UNL     1     -40.085  53.356 -50.369  1.00  0.00     0.032 A 
HETATM    5  C   UNL     1     -40.505  54.642 -50.034  1.00  0.00     0.021 A 
HETATM    6  C   UNL     1     -40.958  55.496 -51.032  1.00  0.00     0.012 A 
HETATM    7 BR   UNL     1     -41.540  57.236 -50.581  1.00  0.00    -0.051 Br
HETATM    8  C   UNL     1     -40.988  55.080 -52.367  1.00  0.00     0.034 A 
HETATM    9  N   UNL     1     -39.725  51.675 -52.006  1.00  0.00    -0.365 N 
HETATM   10  H   UNL     1     -39.416  51.066 -51.249  1.00  0.00     0.165 HD
HETATM   11  C   UNL     1     -39.748  51.182 -53.248  1.00  0.00     0.090 A 
HETATM   12  C   UNL     1     -40.161  51.975 -54.306  1.00  0.00     0.041 A 
ENDROOT
BRANCH   1  13
HETATM   13  N   UNL     1     -41.021  54.109 -55.136  1.00  0.00    -0.283 NA
HETATM   14  H   UNL     1     -40.606  53.868 -56.038  1.00  0.00     0.128 HD
BRANCH  13  15
HETATM   15  C   UNL     1     -42.480  54.302 -55.315  1.00  0.00     0.195 C 
BRANCH  15  16
HETATM   16  C   UNL     1     -42.764  55.510 -56.215  1.00  0.00     0.230 C 
HETATM   17  N   UNL     1     -43.311  55.175 -57.437  1.00  0.00    -0.360 N 
HETATM   18  H   UNL     1     -43.542  54.201 -57.600  1.00  0.00     0.162 HD
HETATM   19  O   UNL     1     -42.484  56.655 -55.877  1.00  0.00    -0.272 OA
BRANCH  17  20
HETATM   20  C   UNL     1     -43.636  56.166 -58.440  1.00  0.00     0.118 C 
HETATM   21  C   UNL     1     -42.751  56.032 -59.665  1.00  0.00     0.026 C 
ENDBRANCH  17  20
ENDBRANCH  15  16
ENDBRANCH  13  15
ENDBRANCH   1  13
TORSDOF 4
ENDMDL
MODEL 8
REMARK VINA RESULT:      -6.4      1.876      2.321
REMARK  4 active torsions:
REMARK  status: ('A' for Active; 'I' for Inactive)
REMARK    1  A    between atoms: C_2  and  N_3 
REMARK       I    between atoms: N_3  and  C_4 
REMARK    2  A    between atoms: C_4  and  C_5 
REMARK    3  A    between atoms: C_5  and  N_6 
REMARK    4  A    between atoms: N_6  and  C_7 
ROOT
HETATM    1  C   UNL     1     -41.154  55.026 -53.434  1.00  0.00     0.022 A 
HETATM    2  C   UNL     1     -40.665  53.776 -52.951  1.00  0.00     0.013 A 
HETATM    3  C   UNL     1     -40.479  53.607 -51.553  1.00  0.00     0.044 A 
HETATM    4  C   UNL     1     -40.025  52.389 -51.020  1.00  0.00     0.032 A 
HETATM    5  C   UNL     1     -39.735  51.317 -51.864  1.00  0.00     0.021 A 
HETATM    6  C   UNL     1     -39.891  51.464 -53.236  1.00  0.00     0.012 A 
HETATM    7 BR   UNL     1     -39.486  50.018 -54.383  1.00  0.00    -0.051 Br
HETATM    8  C   UNL     1     -40.344  52.672 -53.777  1.00  0.00     0.034 A 
HETATM    9  N   UNL     1     -40.732  54.636 -50.726  1.00  0.00    -0.365 N 
HETATM   10  H   UNL     1     -40.590  54.503 -49.725  1.00  0.00     0.165 HD
HETATM   11  C   UNL     1     -41.139  55.834 -51.155  1.00  0.00     0.090 A 
HETATM   12  C   UNL     1     -41.345  56.058 -52.507  1.00  0.00     0.041 A 
ENDROOT
BRANCH   1  13
HETATM   13  N   UNL     1     -41.290  55.248 -54.814  1.00  0.00    -0.283 NA
HETATM   14  H   UNL     1     -40.572  54.767 -55.360  1.00  0.00     0.128 HD
BRANCH  13  15
HETATM   15  C   UNL     1     -42.603  55.059 -55.476  1.00  0.00     0.195 C 
BRANCH  15  16
HETATM   16  C   UNL     1     -43.207  56.408 -55.885  1.00  0.00     0.230 C 
HETATM   17  N   UNL     1     -44.421  56.675 -55.288  1.00  0.00    -0.360 N 
HETATM   18  H   UNL     1     -44.763  56.018 -54.595  1.00  0.00     0.162 HD
HETATM   19  O   UNL     1     -42.665  57.144 -56.702  1.00  0.00    -0.272 OA
BRANCH  17  20
HETATM   20  C   UNL     1     -45.167  57.886 -55.553  1.00  0.00     0.118 C 
HETATM   21  C   UNL     1     -44.963  58.919 -54.461  1.00  0.00     0.026 C 
ENDBRANCH  17  20
ENDBRANCH  15  16
ENDBRANCH  13  15
ENDBRANCH   1  13
TORSDOF 4
ENDMDL
MODEL 9
REMARK VINA RESULT:      -6.3      3.557      5.308
REMARK  4 active torsions:
REMARK  status: ('A' for Active; 'I' for Inactive)
REMARK    1  A    between atoms: C_2  and  N_3 
REMARK       I    between atoms: N_3  and  C_4 
REMARK    2  A    between atoms: C_4  and  C_5 
REMARK    3  A    between atoms: C_5  and  N_6 
REMARK    4  A    between atoms: N_6  and  C_7 
ROOT
HETATM    1  C   UNL     1     -41.197  55.030 -53.598  1.00  0.00     0.022 A 
HETATM    2  C   UNL     1     -40.773  54.121 -52.583  1.00  0.00     0.013 A 
HETATM    3  C   UNL     1     -40.185  52.887 -52.972  1.00  0.00     0.044 A 
HETATM    4  C   UNL     1     -39.727  51.965 -52.016  1.00  0.00     0.032 A 
HETATM    5  C   UNL     1     -39.852  52.243 -50.656  1.00  0.00     0.021 A 
HETATM    6  C   UNL     1     -40.439  53.434 -50.251  1.00  0.00     0.012 A 
HETATM    7 BR   UNL     1     -40.623  53.807 -48.407  1.00  0.00    -0.051 Br
HETATM    8  C   UNL     1     -40.898  54.360 -51.194  1.00  0.00     0.034 A 
HETATM    9  N   UNL     1     -40.076  52.592 -54.279  1.00  0.00    -0.365 N 
HETATM   10  H   UNL     1     -39.658  51.701 -54.544  1.00  0.00     0.165 HD
HETATM   11  C   UNL     1     -40.514  53.401 -55.249  1.00  0.00     0.090 A 
HETATM   12  C   UNL     1     -41.089  54.621 -54.932  1.00  0.00     0.041 A 
ENDROOT
BRANCH   1  13
HETATM   13  N   UNL     1     -41.837  56.231 -53.250  1.00  0.00    -0.283 NA
HETATM   14  H   UNL     1     -41.736  56.454 -52.257  1.00  0.00     0.128 HD
BRANCH  13  15
HETATM   15  C   UNL     1     -41.605  57.461 -54.043  1.00  0.00     0.195 C 
BRANCH  15  16
HETATM   16  C   UNL     1     -40.907  58.532 -53.197  1.00  0.00     0.230 C 
HETATM   17  N   UNL     1     -40.730  58.169 -51.879  1.00  0.00    -0.360 N 
HETATM   18  H   UNL     1     -40.996  57.228 -51.607  1.00  0.00     0.162 HD
HETATM   19  O   UNL     1     -40.583  59.621 -53.660  1.00  0.00    -0.272 OA
BRANCH  17  20
HETATM   20  C   UNL     1     -40.109  59.044 -50.908  1.00  0.00     0.118 C 
HETATM   21  C   UNL     1     -41.139  59.867 -50.157  1.00  0.00     0.026 C 
ENDBRANCH  17  20
ENDBRANCH  15  16
ENDBRANCH  13  15
ENDBRANCH   1  13
TORSDOF 4
ENDMDL
MODEL 10
REMARK VINA RESULT:      -6.2      4.021      4.933
REMARK  4 active torsions:
REMARK  status: ('A' for Active; 'I' for Inactive)
REMARK    1  A    between atoms: C_2  and  N_3 
REMARK       I    between atoms: N_3  and  C_4 
REMARK    2  A    between atoms: C_4  and  C_5 
REMARK    3  A    between atoms: C_5  and  N_6 
REMARK    4  A    between atoms: N_6  and  C_7 
ROOT
HETATM    1  C   UNL     1     -41.346  55.424 -50.042  1.00  0.00     0.022 A 
HETATM    2  C   UNL     1     -40.949  54.525 -51.077  1.00  0.00     0.013 A 
HETATM    3  C   UNL     1     -40.431  53.252 -50.717  1.00  0.00     0.044 A 
HETATM    4  C   UNL     1     -40.049  52.319 -51.694  1.00  0.00     0.032 A 
HETATM    5  C   UNL     1     -40.161  52.632 -53.048  1.00  0.00     0.021 A 
HETATM    6  C   UNL     1     -40.647  53.877 -53.425  1.00  0.00     0.012 A 
HETATM    7 BR   UNL     1     -40.788  54.310 -55.259  1.00  0.00    -0.051 Br
HETATM    8  C   UNL     1     -41.033  54.814 -52.460  1.00  0.00     0.034 A 
HETATM    9  N   UNL     1     -40.295  52.940 -49.417  1.00  0.00    -0.365 N 
HETATM   10  H   UNL     1     -39.917  52.026 -49.172  1.00  0.00     0.165 HD
HETATM   11  C   UNL     1     -40.608  53.782 -48.427  1.00  0.00     0.090 A 
HETATM   12  C   UNL     1     -41.125  55.036 -48.715  1.00  0.00     0.041 A 
ENDROOT
BRANCH   1  13
HETATM   13  N   UNL     1     -41.805  56.712 -50.361  1.00  0.00    -0.283 NA
HETATM   14  H   UNL     1     -42.503  57.054 -49.697  1.00  0.00     0.128 HD
BRANCH  13  15
HETATM   15  C   UNL     1     -40.840  57.802 -50.643  1.00  0.00     0.195 C 
BRANCH  15  16
HETATM   16  C   UNL     1     -41.257  58.591 -51.890  1.00  0.00     0.230 C 
HETATM   17  N   UNL     1     -42.463  58.186 -52.424  1.00  0.00    -0.360 N 
HETATM   18  H   UNL     1     -42.990  57.480 -51.921  1.00  0.00     0.162 HD
HETATM   19  O   UNL     1     -40.550  59.467 -52.375  1.00  0.00    -0.272 OA
BRANCH  17  20
HETATM   20  C   UNL     1     -43.029  58.789 -53.611  1.00  0.00     0.118 C 
HETATM   21  C   UNL     1     -44.088  59.818 -53.265  1.00  0.00     0.026 C 
ENDBRANCH  17  20
ENDBRANCH  15  16
ENDBRANCH  13  15
ENDBRANCH   1  13
TORSDOF 4
ENDMDL
