MODEL 1
REMARK VINA RESULT:      -7.9      0.000      0.000
REMARK  5 active torsions:
REMARK  status: ('A' for Active; 'I' for Inactive)
REMARK    1  A    between atoms: C_4  and  C_5 
REMARK    2  A    between atoms: C_5  and  N_6 
REMARK       I    between atoms: N_6  and  C_7 
REMARK    3  A    between atoms: C_7  and  C_8 
REMARK    4  A    between atoms: C_11  and  N_12 
REMARK       I    between atoms: N_12  and  C_13 
REMARK    5  A    between atoms: C_13  and  C_14 
ROOT
HETATM    1  C   UNL     1     -43.616  57.203 -57.341  1.00  0.00     0.032 A 
HETATM    2  C   UNL     1     -43.434  57.669 -56.034  1.00  0.00     0.019 A 
HETATM    3  C   UNL     1     -42.891  56.829 -55.052  1.00  0.00     0.030 A 
HETATM    4  C   UNL     1     -42.531  55.514 -55.358  1.00  0.00     0.035 A 
HETATM    5  C   UNL     1     -42.725  55.048 -56.664  1.00  0.00     0.030 A 
HETATM    6  C   UNL     1     -43.266  55.884 -57.647  1.00  0.00     0.019 A 
ENDROOT
BRANCH   4   7
HETATM    7  N   UNL     1     -42.004  54.603 -54.422  1.00  0.00    -0.323 N 
HETATM    8  C   UNL     1     -40.706  54.131 -54.347  1.00  0.00     0.257 C 
HETATM    9  O   UNL     1     -39.803  54.335 -55.149  1.00  0.00    -0.267 OA
HETATM   10  H   UNL     1     -42.664  54.229 -53.751  1.00  0.00     0.169 HD
BRANCH   8  11
HETATM   11  C   UNL     1     -40.426  53.240 -53.198  1.00  0.00     0.047 A 
HETATM   12  C   UNL     1     -40.095  51.878 -53.343  1.00  0.00     0.027 A 
HETATM   13  C   UNL     1     -39.843  51.175 -52.168  1.00  0.00     0.138 A 
HETATM   14  C   UNL     1     -39.961  50.935 -54.406  1.00  0.00     0.033 A 
HETATM   15  N   UNL     1     -39.534  49.883 -52.496  1.00  0.00    -0.350 N 
HETATM   16  N   UNL     1     -39.890  51.638 -50.907  1.00  0.00    -0.242 NA
HETATM   17  H   UNL     1     -39.316  49.171 -51.814  1.00  0.00     0.166 HD
HETATM   18  C   UNL     1     -39.603  49.722 -53.855  1.00  0.00     0.090 A 
HETATM   19  C   UNL     1     -40.248  52.938 -50.826  1.00  0.00     0.120 A 
HETATM   20  C   UNL     1     -40.523  53.765 -51.904  1.00  0.00     0.037 A 
ENDBRANCH   8  11
ENDBRANCH   4   7
BRANCH   1  21
HETATM   21  C   UNL     1     -44.205  58.047 -58.421  1.00  0.00     0.251 C 
HETATM   22  N   UNL     1     -45.570  58.228 -58.396  1.00  0.00    -0.352 N 
HETATM   23  H   UNL     1     -46.085  58.007 -57.555  1.00  0.00     0.163 HD
HETATM   24  O   UNL     1     -43.479  58.565 -59.263  1.00  0.00    -0.268 OA
BRANCH  22  25
HETATM   25  C   UNL     1     -46.201  59.134 -59.328  1.00  0.00     0.169 C 
BRANCH  25  26
HETATM   26  C   UNL     1     -46.968  58.331 -60.327  1.00  0.00     0.000 A 
HETATM   27  S   UNL     1     -48.014  59.106 -61.445  1.00  0.00    -0.105 SA
HETATM   28  C   UNL     1     -48.460  57.617 -62.156  1.00  0.00     0.050 A 
HETATM   29  C   UNL     1     -47.827  56.549 -61.561  1.00  0.00     0.008 A 
HETATM   30  C   UNL     1     -46.967  56.960 -60.504  1.00  0.00     0.017 A 
ENDBRANCH  25  26
ENDBRANCH  22  25
ENDBRANCH   1  21
TORSDOF 5
ENDMDL
MODEL 2
REMARK VINA RESULT:      -7.8      2.803      3.926
REMARK  5 active torsions:
REMARK  status: ('A' for Active; 'I' for Inactive)
REMARK    1  A    between atoms: C_4  and  C_5 
REMARK    2  A    between atoms: C_5  and  N_6 
REMARK       I    between atoms: N_6  and  C_7 
REMARK    3  A    between atoms: C_7  and  C_8 
REMARK    4  A    between atoms: C_11  and  N_12 
REMARK       I    between atoms: N_12  and  C_13 
REMARK    5  A    between atoms: C_13  and  C_14 
ROOT
HETATM    1  C   UNL     1     -43.033  57.423 -57.616  1.00  0.00     0.032 A 
HETATM    2  C   UNL     1     -43.185  56.046 -57.814  1.00  0.00     0.019 A 
HETATM    3  C   UNL     1     -42.804  55.141 -56.814  1.00  0.00     0.030 A 
HETATM    4  C   UNL     1     -42.260  55.595 -55.610  1.00  0.00     0.035 A 
HETATM    5  C   UNL     1     -42.100  56.972 -55.419  1.00  0.00     0.030 A 
HETATM    6  C   UNL     1     -42.479  57.880 -56.415  1.00  0.00     0.019 A 
ENDROOT
BRANCH   4   7
HETATM    7  N   UNL     1     -41.832  54.747 -54.569  1.00  0.00    -0.323 N 
HETATM    8  C   UNL     1     -40.643  54.045 -54.492  1.00  0.00     0.257 C 
HETATM    9  O   UNL     1     -39.792  53.944 -55.368  1.00  0.00    -0.267 OA
HETATM   10  H   UNL     1     -42.488  54.615 -53.809  1.00  0.00     0.169 HD
BRANCH   8  11
HETATM   11  C   UNL     1     -40.434  53.297 -53.231  1.00  0.00     0.047 A 
HETATM   12  C   UNL     1     -40.094  51.931 -53.194  1.00  0.00     0.027 A 
HETATM   13  C   UNL     1     -39.916  51.373 -51.931  1.00  0.00     0.138 A 
HETATM   14  C   UNL     1     -39.895  50.869 -54.127  1.00  0.00     0.033 A 
HETATM   15  N   UNL     1     -39.587  50.054 -52.084  1.00  0.00    -0.350 N 
HETATM   16  N   UNL     1     -40.041  51.981 -50.738  1.00  0.00    -0.242 NA
HETATM   17  H   UNL     1     -39.411  49.429 -51.310  1.00  0.00     0.166 HD
HETATM   18  C   UNL     1     -39.572  49.733 -53.416  1.00  0.00     0.090 A 
HETATM   19  C   UNL     1     -40.403  53.279 -50.834  1.00  0.00     0.120 A 
HETATM   20  C   UNL     1     -40.611  53.971 -52.016  1.00  0.00     0.037 A 
ENDBRANCH   8  11
ENDBRANCH   4   7
BRANCH   1  21
HETATM   21  C   UNL     1     -43.404  58.431 -58.651  1.00  0.00     0.251 C 
HETATM   22  N   UNL     1     -42.769  59.651 -58.588  1.00  0.00    -0.352 N 
HETATM   23  H   UNL     1     -41.932  59.747 -58.030  1.00  0.00     0.163 HD
HETATM   24  O   UNL     1     -44.221  58.148 -59.521  1.00  0.00    -0.268 OA
BRANCH  22  25
HETATM   25  C   UNL     1     -42.977  60.633 -59.627  1.00  0.00     0.169 C 
BRANCH  25  26
HETATM   26  C   UNL     1     -41.754  61.484 -59.729  1.00  0.00     0.000 A 
HETATM   27  S   UNL     1     -41.359  62.262 -61.207  1.00  0.00    -0.105 SA
HETATM   28  C   UNL     1     -39.953  62.964 -60.534  1.00  0.00     0.050 A 
HETATM   29  C   UNL     1     -39.784  62.619 -59.212  1.00  0.00     0.008 A 
HETATM   30  C   UNL     1     -40.823  61.763 -58.748  1.00  0.00     0.017 A 
ENDBRANCH  25  26
ENDBRANCH  22  25
ENDBRANCH   1  21
TORSDOF 5
ENDMDL
MODEL 3
REMARK VINA RESULT:      -7.7      0.726      1.888
REMARK  5 active torsions:
REMARK  status: ('A' for Active; 'I' for Inactive)
REMARK    1  A    between atoms: C_4  and  C_5 
REMARK    2  A    between atoms: C_5  and  N_6 
REMARK       I    between atoms: N_6  and  C_7 
REMARK    3  A    between atoms: C_7  and  C_8 
REMARK    4  A    between atoms: C_11  and  N_12 
REMARK       I    between atoms: N_12  and  C_13 
REMARK    5  A    between atoms: C_13  and  C_14 
ROOT
HETATM    1  C   UNL     1     -43.973  57.375 -57.201  1.00  0.00     0.032 A 
HETATM    2  C   UNL     1     -43.968  57.521 -55.810  1.00  0.00     0.019 A 
HETATM    3  C   UNL     1     -43.346  56.562 -54.999  1.00  0.00     0.030 A 
HETATM    4  C   UNL     1     -42.728  55.444 -55.564  1.00  0.00     0.035 A 
HETATM    5  C   UNL     1     -42.743  55.296 -56.956  1.00  0.00     0.030 A 
HETATM    6  C   UNL     1     -43.364  56.250 -57.769  1.00  0.00     0.019 A 
ENDROOT
BRANCH   4   7
HETATM    7  N   UNL     1     -42.103  54.426 -54.816  1.00  0.00    -0.323 N 
HETATM    8  C   UNL     1     -40.759  54.309 -54.514  1.00  0.00     0.257 C 
HETATM    9  O   UNL     1     -39.847  55.010 -54.936  1.00  0.00    -0.267 OA
HETATM   10  H   UNL     1     -42.709  53.681 -54.494  1.00  0.00     0.169 HD
BRANCH   8  11
HETATM   11  C   UNL     1     -40.408  53.169 -53.636  1.00  0.00     0.047 A 
HETATM   12  C   UNL     1     -40.460  53.237 -52.229  1.00  0.00     0.027 A 
HETATM   13  C   UNL     1     -40.115  52.076 -51.542  1.00  0.00     0.138 A 
HETATM   14  C   UNL     1     -40.750  54.216 -51.232  1.00  0.00     0.033 A 
HETATM   15  N   UNL     1     -40.226  52.320 -50.201  1.00  0.00    -0.350 N 
HETATM   16  N   UNL     1     -39.726  50.898 -52.061  1.00  0.00    -0.242 NA
HETATM   17  H   UNL     1     -40.025  51.631 -49.490  1.00  0.00     0.166 HD
HETATM   18  C   UNL     1     -40.611  53.619 -49.997  1.00  0.00     0.090 A 
HETATM   19  C   UNL     1     -39.660  50.903 -53.410  1.00  0.00     0.120 A 
HETATM   20  C   UNL     1     -39.977  51.976 -54.227  1.00  0.00     0.037 A 
ENDBRANCH   8  11
ENDBRANCH   4   7
BRANCH   1  21
HETATM   21  C   UNL     1     -44.635  58.354 -58.111  1.00  0.00     0.251 C 
HETATM   22  N   UNL     1     -45.888  58.023 -58.577  1.00  0.00    -0.352 N 
HETATM   23  H   UNL     1     -46.409  57.286 -58.121  1.00  0.00     0.163 HD
HETATM   24  O   UNL     1     -44.077  59.409 -58.392  1.00  0.00    -0.268 OA
BRANCH  22  25
HETATM   25  C   UNL     1     -46.649  58.973 -59.356  1.00  0.00     0.169 C 
BRANCH  25  26
HETATM   26  C   UNL     1     -47.304  58.246 -60.484  1.00  0.00     0.000 A 
HETATM   27  S   UNL     1     -48.202  59.107 -61.667  1.00  0.00    -0.105 SA
HETATM   28  C   UNL     1     -48.581  57.672 -62.515  1.00  0.00     0.050 A 
HETATM   29  C   UNL     1     -48.035  56.558 -61.917  1.00  0.00     0.008 A 
HETATM   30  C   UNL     1     -47.300  56.889 -60.744  1.00  0.00     0.017 A 
ENDBRANCH  25  26
ENDBRANCH  22  25
ENDBRANCH   1  21
TORSDOF 5
ENDMDL
MODEL 4
REMARK VINA RESULT:      -7.3      2.980      4.453
REMARK  5 active torsions:
REMARK  status: ('A' for Active; 'I' for Inactive)
REMARK    1  A    between atoms: C_4  and  C_5 
REMARK    2  A    between atoms: C_5  and  N_6 
REMARK       I    between atoms: N_6  and  C_7 
REMARK    3  A    between atoms: C_7  and  C_8 
REMARK    4  A    between atoms: C_11  and  N_12 
REMARK       I    between atoms: N_12  and  C_13 
REMARK    5  A    between atoms: C_13  and  C_14 
ROOT
HETATM    1  C   UNL     1     -42.988  58.035 -56.575  1.00  0.00     0.032 A 
HETATM    2  C   UNL     1     -43.148  56.731 -57.057  1.00  0.00     0.019 A 
HETATM    3  C   UNL     1     -42.738  55.635 -56.286  1.00  0.00     0.030 A 
HETATM    4  C   UNL     1     -42.156  55.825 -55.030  1.00  0.00     0.035 A 
HETATM    5  C   UNL     1     -41.987  57.131 -54.555  1.00  0.00     0.030 A 
HETATM    6  C   UNL     1     -42.396  58.228 -55.322  1.00  0.00     0.019 A 
ENDROOT
BRANCH   4   7
HETATM    7  N   UNL     1     -41.696  54.777 -54.208  1.00  0.00    -0.323 N 
HETATM    8  C   UNL     1     -40.531  54.045 -54.351  1.00  0.00     0.257 C 
HETATM    9  O   UNL     1     -39.740  54.100 -55.284  1.00  0.00    -0.267 OA
HETATM   10  H   UNL     1     -42.309  54.513 -53.447  1.00  0.00     0.169 HD
BRANCH   8  11
HETATM   11  C   UNL     1     -40.274  53.057 -53.279  1.00  0.00     0.047 A 
HETATM   12  C   UNL     1     -40.447  53.342 -51.911  1.00  0.00     0.027 A 
HETATM   13  C   UNL     1     -40.179  52.303 -51.023  1.00  0.00     0.138 A 
HETATM   14  C   UNL     1     -40.811  54.465 -51.107  1.00  0.00     0.033 A 
HETATM   15  N   UNL     1     -40.404  52.752 -49.752  1.00  0.00    -0.350 N 
HETATM   16  N   UNL     1     -39.761  51.059 -51.317  1.00  0.00    -0.242 NA
HETATM   17  H   UNL     1     -40.274  52.183 -48.927  1.00  0.00     0.166 HD
HETATM   18  C   UNL     1     -40.788  54.067 -49.787  1.00  0.00     0.090 A 
HETATM   19  C   UNL     1     -39.577  50.854 -52.640  1.00  0.00     0.120 A 
HETATM   20  C   UNL     1     -39.807  51.786 -53.638  1.00  0.00     0.037 A 
ENDBRANCH   8  11
ENDBRANCH   4   7
BRANCH   1  21
HETATM   21  C   UNL     1     -43.390  59.238 -57.359  1.00  0.00     0.251 C 
HETATM   22  N   UNL     1     -42.527  59.654 -58.349  1.00  0.00    -0.352 N 
HETATM   23  H   UNL     1     -41.804  59.027 -58.673  1.00  0.00     0.163 HD
HETATM   24  O   UNL     1     -44.458  59.794 -57.129  1.00  0.00    -0.268 OA
BRANCH  22  25
HETATM   25  C   UNL     1     -42.904  60.730 -59.236  1.00  0.00     0.169 C 
BRANCH  25  26
HETATM   26  C   UNL     1     -41.690  61.548 -59.533  1.00  0.00     0.000 A 
HETATM   27  S   UNL     1     -41.370  62.076 -61.134  1.00  0.00    -0.105 SA
HETATM   28  C   UNL     1     -39.935  62.871 -60.653  1.00  0.00     0.050 A 
HETATM   29  C   UNL     1     -39.700  62.742 -59.303  1.00  0.00     0.008 A 
HETATM   30  C   UNL     1     -40.712  61.977 -58.656  1.00  0.00     0.017 A 
ENDBRANCH  25  26
ENDBRANCH  22  25
ENDBRANCH   1  21
TORSDOF 5
ENDMDL
MODEL 5
REMARK VINA RESULT:      -7.3      3.448     10.146
REMARK  5 active torsions:
REMARK  status: ('A' for Active; 'I' for Inactive)
REMARK    1  A    between atoms: C_4  and  C_5 
REMARK    2  A    between atoms: C_5  and  N_6 
REMARK       I    between atoms: N_6  and  C_7 
REMARK    3  A    between atoms: C_7  and  C_8 
REMARK    4  A    between atoms: C_11  and  N_12 
REMARK       I    between atoms: N_12  and  C_13 
REMARK    5  A    between atoms: C_13  and  C_14 
ROOT
HETATM    1  C   UNL     1     -42.270  54.965 -53.446  1.00  0.00     0.032 A 
HETATM    2  C   UNL     1     -43.586  55.405 -53.629  1.00  0.00     0.019 A 
HETATM    3  C   UNL     1     -43.928  56.166 -54.754  1.00  0.00     0.030 A 
HETATM    4  C   UNL     1     -42.963  56.505 -55.706  1.00  0.00     0.035 A 
HETATM    5  C   UNL     1     -41.646  56.072 -55.515  1.00  0.00     0.030 A 
HETATM    6  C   UNL     1     -41.300  55.312 -54.392  1.00  0.00     0.019 A 
ENDROOT
BRANCH   4   7
HETATM    7  N   UNL     1     -43.224  57.287 -56.849  1.00  0.00    -0.323 N 
HETATM    8  C   UNL     1     -43.478  56.840 -58.133  1.00  0.00     0.257 C 
HETATM    9  O   UNL     1     -43.413  55.684 -58.535  1.00  0.00    -0.267 OA
HETATM   10  H   UNL     1     -43.186  58.289 -56.715  1.00  0.00     0.169 HD
BRANCH   8  11
HETATM   11  C   UNL     1     -43.799  57.900 -59.116  1.00  0.00     0.047 A 
HETATM   12  C   UNL     1     -45.056  58.015 -59.741  1.00  0.00     0.027 A 
HETATM   13  C   UNL     1     -45.209  59.075 -60.631  1.00  0.00     0.138 A 
HETATM   14  C   UNL     1     -46.293  57.303 -59.758  1.00  0.00     0.033 A 
HETATM   15  N   UNL     1     -46.480  59.036 -61.134  1.00  0.00    -0.350 N 
HETATM   16  N   UNL     1     -44.293  59.998 -60.976  1.00  0.00    -0.242 NA
HETATM   17  H   UNL     1     -46.835  59.701 -61.807  1.00  0.00     0.166 HD
HETATM   18  C   UNL     1     -47.152  57.962 -60.612  1.00  0.00     0.090 A 
HETATM   19  C   UNL     1     -43.097  59.816 -60.374  1.00  0.00     0.120 A 
HETATM   20  C   UNL     1     -42.798  58.815 -59.465  1.00  0.00     0.037 A 
ENDBRANCH   8  11
ENDBRANCH   4   7
BRANCH   1  21
HETATM   21  C   UNL     1     -41.845  54.167 -52.259  1.00  0.00     0.251 C 
HETATM   22  N   UNL     1     -40.520  53.798 -52.199  1.00  0.00    -0.352 N 
HETATM   23  H   UNL     1     -39.848  54.260 -52.796  1.00  0.00     0.163 HD
HETATM   24  O   UNL     1     -42.655  53.892 -51.381  1.00  0.00    -0.268 OA
BRANCH  22  25
HETATM   25  C   UNL     1     -40.003  53.137 -51.023  1.00  0.00     0.169 C 
BRANCH  25  26
HETATM   26  C   UNL     1     -39.883  51.676 -51.312  1.00  0.00     0.000 A 
HETATM   27  S   UNL     1     -39.579  51.130 -52.910  1.00  0.00    -0.105 SA
HETATM   28  C   UNL     1     -39.587  49.492 -52.419  1.00  0.00     0.050 A 
HETATM   29  C   UNL     1     -39.813  49.358 -51.068  1.00  0.00     0.008 A 
HETATM   30  C   UNL     1     -39.986  50.619 -50.429  1.00  0.00     0.017 A 
ENDBRANCH  25  26
ENDBRANCH  22  25
ENDBRANCH   1  21
TORSDOF 5
ENDMDL
MODEL 6
REMARK VINA RESULT:      -7.3      2.687      3.228
REMARK  5 active torsions:
REMARK  status: ('A' for Active; 'I' for Inactive)
REMARK    1  A    between atoms: C_4  and  C_5 
REMARK    2  A    between atoms: C_5  and  N_6 
REMARK       I    between atoms: N_6  and  C_7 
REMARK    3  A    between atoms: C_7  and  C_8 
REMARK    4  A    between atoms: C_11  and  N_12 
REMARK       I    between atoms: N_12  and  C_13 
REMARK    5  A    between atoms: C_13  and  C_14 
ROOT
HETATM    1  C   UNL     1     -43.297  57.062 -58.271  1.00  0.00     0.032 A 
HETATM    2  C   UNL     1     -42.808  57.899 -57.262  1.00  0.00     0.019 A 
HETATM    3  C   UNL     1     -42.293  57.355 -56.078  1.00  0.00     0.030 A 
HETATM    4  C   UNL     1     -42.267  55.972 -55.881  1.00  0.00     0.035 A 
HETATM    5  C   UNL     1     -42.767  55.138 -56.888  1.00  0.00     0.030 A 
HETATM    6  C   UNL     1     -43.282  55.677 -58.072  1.00  0.00     0.019 A 
ENDROOT
BRANCH   4   7
HETATM    7  N   UNL     1     -41.789  55.351 -54.710  1.00  0.00    -0.323 N 
HETATM    8  C   UNL     1     -42.525  54.667 -53.760  1.00  0.00     0.257 C 
HETATM    9  O   UNL     1     -43.746  54.571 -53.706  1.00  0.00    -0.267 OA
HETATM   10  H   UNL     1     -40.797  55.450 -54.532  1.00  0.00     0.169 HD
BRANCH   8  11
HETATM   11  C   UNL     1     -41.732  54.049 -52.673  1.00  0.00     0.047 A 
HETATM   12  C   UNL     1     -40.805  53.011 -52.892  1.00  0.00     0.027 A 
HETATM   13  C   UNL     1     -40.124  52.545 -51.770  1.00  0.00     0.138 A 
HETATM   14  C   UNL     1     -40.347  52.222 -53.989  1.00  0.00     0.033 A 
HETATM   15  N   UNL     1     -39.269  51.553 -52.165  1.00  0.00    -0.350 N 
HETATM   16  N   UNL     1     -40.254  52.960 -50.498  1.00  0.00    -0.242 NA
HETATM   17  H   UNL     1     -38.665  51.051 -51.531  1.00  0.00     0.166 HD
HETATM   18  C   UNL     1     -39.395  51.344 -53.514  1.00  0.00     0.090 A 
HETATM   19  C   UNL     1     -41.182  53.930 -50.343  1.00  0.00     0.120 A 
HETATM   20  C   UNL     1     -41.932  54.495 -51.361  1.00  0.00     0.037 A 
ENDBRANCH   8  11
ENDBRANCH   4   7
BRANCH   1  21
HETATM   21  C   UNL     1     -43.872  57.587 -59.543  1.00  0.00     0.251 C 
HETATM   22  N   UNL     1     -44.154  58.934 -59.591  1.00  0.00    -0.352 N 
HETATM   23  H   UNL     1     -43.756  59.549 -58.895  1.00  0.00     0.163 HD
HETATM   24  O   UNL     1     -44.049  56.834 -60.495  1.00  0.00    -0.268 OA
BRANCH  22  25
HETATM   25  C   UNL     1     -44.590  59.542 -60.827  1.00  0.00     0.169 C 
BRANCH  25  26
HETATM   26  C   UNL     1     -43.481  60.389 -61.358  1.00  0.00     0.000 A 
HETATM   27  S   UNL     1     -42.071  60.662 -60.419  1.00  0.00    -0.105 SA
HETATM   28  C   UNL     1     -41.372  61.637 -61.636  1.00  0.00     0.050 A 
HETATM   29  C   UNL     1     -42.189  61.755 -62.738  1.00  0.00     0.008 A 
HETATM   30  C   UNL     1     -43.408  61.036 -62.577  1.00  0.00     0.017 A 
ENDBRANCH  25  26
ENDBRANCH  22  25
ENDBRANCH   1  21
TORSDOF 5
ENDMDL
MODEL 7
REMARK VINA RESULT:      -7.3      6.250      7.593
REMARK  5 active torsions:
REMARK  status: ('A' for Active; 'I' for Inactive)
REMARK    1  A    between atoms: C_4  and  C_5 
REMARK    2  A    between atoms: C_5  and  N_6 
REMARK       I    between atoms: N_6  and  C_7 
REMARK    3  A    between atoms: C_7  and  C_8 
REMARK    4  A    between atoms: C_11  and  N_12 
REMARK       I    between atoms: N_12  and  C_13 
REMARK    5  A    between atoms: C_13  and  C_14 
ROOT
HETATM    1  C   UNL     1     -42.871  58.778 -51.521  1.00  0.00     0.032 A 
HETATM    2  C   UNL     1     -43.677  57.649 -51.343  1.00  0.00     0.019 A 
HETATM    3  C   UNL     1     -43.207  56.379 -51.706  1.00  0.00     0.030 A 
HETATM    4  C   UNL     1     -41.933  56.221 -52.256  1.00  0.00     0.035 A 
HETATM    5  C   UNL     1     -41.132  57.355 -52.441  1.00  0.00     0.030 A 
HETATM    6  C   UNL     1     -41.598  58.624 -52.081  1.00  0.00     0.019 A 
ENDROOT
BRANCH   4   7
HETATM    7  N   UNL     1     -41.400  54.983 -52.667  1.00  0.00    -0.323 N 
HETATM    8  C   UNL     1     -40.737  54.052 -51.889  1.00  0.00     0.257 C 
HETATM    9  O   UNL     1     -40.393  54.184 -50.720  1.00  0.00    -0.267 OA
HETATM   10  H   UNL     1     -41.486  54.772 -53.654  1.00  0.00     0.169 HD
BRANCH   8  11
HETATM   11  C   UNL     1     -40.361  52.801 -52.586  1.00  0.00     0.047 A 
HETATM   12  C   UNL     1     -40.087  51.596 -51.910  1.00  0.00     0.027 A 
HETATM   13  C   UNL     1     -39.763  50.501 -52.707  1.00  0.00     0.138 A 
HETATM   14  C   UNL     1     -40.006  51.141 -50.559  1.00  0.00     0.033 A 
HETATM   15  N   UNL     1     -39.536  49.426 -51.891  1.00  0.00    -0.350 N 
HETATM   16  N   UNL     1     -39.669  50.458 -54.047  1.00  0.00    -0.242 NA
HETATM   17  H   UNL     1     -39.279  48.511 -52.233  1.00  0.00     0.166 HD
HETATM   18  C   UNL     1     -39.679  49.802 -50.581  1.00  0.00     0.090 A 
HETATM   19  C   UNL     1     -39.907  51.650 -54.639  1.00  0.00     0.120 A 
HETATM   20  C   UNL     1     -40.245  52.821 -53.981  1.00  0.00     0.037 A 
ENDBRANCH   8  11
ENDBRANCH   4   7
BRANCH   1  21
HETATM   21  C   UNL     1     -43.326  60.155 -51.169  1.00  0.00     0.251 C 
HETATM   22  N   UNL     1     -44.662  60.314 -50.879  1.00  0.00    -0.352 N 
HETATM   23  H   UNL     1     -45.227  59.501 -50.677  1.00  0.00     0.163 HD
HETATM   24  O   UNL     1     -42.518  61.077 -51.122  1.00  0.00    -0.268 OA
BRANCH  22  25
HETATM   25  C   UNL     1     -45.157  61.586 -50.405  1.00  0.00     0.169 C 
BRANCH  25  26
HETATM   26  C   UNL     1     -45.223  61.545 -48.913  1.00  0.00     0.000 A 
HETATM   27  S   UNL     1     -44.910  62.958 -47.991  1.00  0.00    -0.105 SA
HETATM   28  C   UNL     1     -45.168  62.129 -46.518  1.00  0.00     0.050 A 
HETATM   29  C   UNL     1     -45.489  60.806 -46.718  1.00  0.00     0.008 A 
HETATM   30  C   UNL     1     -45.519  60.467 -48.100  1.00  0.00     0.017 A 
ENDBRANCH  25  26
ENDBRANCH  22  25
ENDBRANCH   1  21
TORSDOF 5
ENDMDL
MODEL 8
REMARK VINA RESULT:      -7.2     16.088     19.134
REMARK  5 active torsions:
REMARK  status: ('A' for Active; 'I' for Inactive)
REMARK    1  A    between atoms: C_4  and  C_5 
REMARK    2  A    between atoms: C_5  and  N_6 
REMARK       I    between atoms: N_6  and  C_7 
REMARK    3  A    between atoms: C_7  and  C_8 
REMARK    4  A    between atoms: C_11  and  N_12 
REMARK       I    between atoms: N_12  and  C_13 
REMARK    5  A    between atoms: C_13  and  C_14 
ROOT
HETATM    1  C   UNL     1     -36.358  41.347 -55.145  1.00  0.00     0.032 A 
HETATM    2  C   UNL     1     -35.494  41.135 -56.225  1.00  0.00     0.019 A 
HETATM    3  C   UNL     1     -35.987  40.637 -57.439  1.00  0.00     0.030 A 
HETATM    4  C   UNL     1     -37.343  40.337 -57.589  1.00  0.00     0.035 A 
HETATM    5  C   UNL     1     -38.203  40.541 -56.503  1.00  0.00     0.030 A 
HETATM    6  C   UNL     1     -37.715  41.038 -55.289  1.00  0.00     0.019 A 
ENDROOT
BRANCH   4   7
HETATM    7  N   UNL     1     -37.909  39.811 -58.767  1.00  0.00    -0.323 N 
HETATM    8  C   UNL     1     -38.347  38.518 -58.985  1.00  0.00     0.257 C 
HETATM    9  O   UNL     1     -38.221  37.563 -58.228  1.00  0.00    -0.267 OA
HETATM   10  H   UNL     1     -37.967  40.450 -59.551  1.00  0.00     0.169 HD
BRANCH   8  11
HETATM   11  C   UNL     1     -38.974  38.280 -60.305  1.00  0.00     0.047 A 
HETATM   12  C   UNL     1     -38.252  38.294 -61.514  1.00  0.00     0.027 A 
HETATM   13  C   UNL     1     -38.981  38.037 -62.673  1.00  0.00     0.138 A 
HETATM   14  C   UNL     1     -36.911  38.540 -61.937  1.00  0.00     0.033 A 
HETATM   15  N   UNL     1     -38.127  38.084 -63.740  1.00  0.00    -0.350 N 
HETATM   16  N   UNL     1     -40.298  37.787 -62.776  1.00  0.00    -0.242 NA
HETATM   17  H   UNL     1     -38.418  37.934 -64.695  1.00  0.00     0.166 HD
HETATM   18  C   UNL     1     -36.863  38.391 -63.307  1.00  0.00     0.090 A 
HETATM   19  C   UNL     1     -40.945  37.822 -61.591  1.00  0.00     0.120 A 
HETATM   20  C   UNL     1     -40.356  38.059 -60.360  1.00  0.00     0.037 A 
ENDBRANCH   8  11
ENDBRANCH   4   7
BRANCH   1  21
HETATM   21  C   UNL     1     -35.887  41.858 -53.825  1.00  0.00     0.251 C 
HETATM   22  N   UNL     1     -35.654  40.922 -52.842  1.00  0.00    -0.352 N 
HETATM   23  H   UNL     1     -35.570  39.947 -53.095  1.00  0.00     0.163 HD
HETATM   24  O   UNL     1     -35.698  43.059 -53.662  1.00  0.00    -0.268 OA
BRANCH  22  25
HETATM   25  C   UNL     1     -35.074  41.322 -51.581  1.00  0.00     0.169 C 
BRANCH  25  26
HETATM   26  C   UNL     1     -33.826  40.532 -51.358  1.00  0.00     0.000 A 
HETATM   27  S   UNL     1     -33.183  39.553 -52.613  1.00  0.00    -0.105 SA
HETATM   28  C   UNL     1     -31.882  39.040 -51.632  1.00  0.00     0.050 A 
HETATM   29  C   UNL     1     -31.929  39.600 -50.375  1.00  0.00     0.008 A 
HETATM   30  C   UNL     1     -33.052  40.460 -50.216  1.00  0.00     0.017 A 
ENDBRANCH  25  26
ENDBRANCH  22  25
ENDBRANCH   1  21
TORSDOF 5
ENDMDL
MODEL 9
REMARK VINA RESULT:      -7.1     14.997     18.193
REMARK  5 active torsions:
REMARK  status: ('A' for Active; 'I' for Inactive)
REMARK    1  A    between atoms: C_4  and  C_5 
REMARK    2  A    between atoms: C_5  and  N_6 
REMARK       I    between atoms: N_6  and  C_7 
REMARK    3  A    between atoms: C_7  and  C_8 
REMARK    4  A    between atoms: C_11  and  N_12 
REMARK       I    between atoms: N_12  and  C_13 
REMARK    5  A    between atoms: C_13  and  C_14 
ROOT
HETATM    1  C   UNL     1     -35.090  41.429 -53.312  1.00  0.00     0.032 A 
HETATM    2  C   UNL     1     -35.016  42.186 -52.137  1.00  0.00     0.019 A 
HETATM    3  C   UNL     1     -34.511  41.618 -50.960  1.00  0.00     0.030 A 
HETATM    4  C   UNL     1     -34.082  40.289 -50.936  1.00  0.00     0.035 A 
HETATM    5  C   UNL     1     -34.166  39.532 -52.111  1.00  0.00     0.030 A 
HETATM    6  C   UNL     1     -34.669  40.095 -53.288  1.00  0.00     0.019 A 
ENDROOT
BRANCH   4   7
HETATM    7  N   UNL     1     -33.586  39.641 -49.787  1.00  0.00    -0.323 N 
HETATM    8  C   UNL     1     -32.267  39.532 -49.386  1.00  0.00     0.257 C 
HETATM    9  O   UNL     1     -31.277  39.884 -50.015  1.00  0.00    -0.267 OA
HETATM   10  H   UNL     1     -34.277  39.175 -49.212  1.00  0.00     0.169 HD
BRANCH   8  11
HETATM   11  C   UNL     1     -32.059  38.859 -48.084  1.00  0.00     0.047 A 
HETATM   12  C   UNL     1     -31.238  39.386 -47.068  1.00  0.00     0.027 A 
HETATM   13  C   UNL     1     -31.155  38.643 -45.893  1.00  0.00     0.138 A 
HETATM   14  C   UNL     1     -30.385  40.515 -46.883  1.00  0.00     0.033 A 
HETATM   15  N   UNL     1     -30.329  39.301 -45.023  1.00  0.00    -0.350 N 
HETATM   16  N   UNL     1     -31.758  37.474 -45.615  1.00  0.00    -0.242 NA
HETATM   17  H   UNL     1     -30.105  38.959 -44.100  1.00  0.00     0.166 HD
HETATM   18  C   UNL     1     -29.851  40.442 -45.614  1.00  0.00     0.090 A 
HETATM   19  C   UNL     1     -32.502  36.998 -46.638  1.00  0.00     0.120 A 
HETATM   20  C   UNL     1     -32.683  37.625 -47.860  1.00  0.00     0.037 A 
ENDBRANCH   8  11
ENDBRANCH   4   7
BRANCH   1  21
HETATM   21  C   UNL     1     -35.633  41.976 -54.589  1.00  0.00     0.251 C 
HETATM   22  N   UNL     1     -36.959  41.722 -54.860  1.00  0.00    -0.352 N 
HETATM   23  H   UNL     1     -37.567  41.406 -54.117  1.00  0.00     0.163 HD
HETATM   24  O   UNL     1     -34.916  42.641 -55.329  1.00  0.00    -0.268 OA
BRANCH  22  25
HETATM   25  C   UNL     1     -37.594  42.325 -56.010  1.00  0.00     0.169 C 
BRANCH  25  26
HETATM   26  C   UNL     1     -37.588  41.335 -57.129  1.00  0.00     0.000 A 
HETATM   27  S   UNL     1     -36.971  41.771 -58.670  1.00  0.00    -0.105 SA
HETATM   28  C   UNL     1     -37.302  40.222 -59.311  1.00  0.00     0.050 A 
HETATM   29  C   UNL     1     -37.868  39.385 -58.376  1.00  0.00     0.008 A 
HETATM   30  C   UNL     1     -38.035  40.028 -57.116  1.00  0.00     0.017 A 
ENDBRANCH  25  26
ENDBRANCH  22  25
ENDBRANCH   1  21
TORSDOF 5
ENDMDL
MODEL 10
REMARK VINA RESULT:      -7.1      6.355      8.255
REMARK  5 active torsions:
REMARK  status: ('A' for Active; 'I' for Inactive)
REMARK    1  A    between atoms: C_4  and  C_5 
REMARK    2  A    between atoms: C_5  and  N_6 
REMARK       I    between atoms: N_6  and  C_7 
REMARK    3  A    between atoms: C_7  and  C_8 
REMARK    4  A    between atoms: C_11  and  N_12 
REMARK       I    between atoms: N_12  and  C_13 
REMARK    5  A    between atoms: C_13  and  C_14 
ROOT
HETATM    1  C   UNL     1     -44.314  59.902 -51.235  1.00  0.00     0.032 A 
HETATM    2  C   UNL     1     -45.093  58.903 -51.828  1.00  0.00     0.019 A 
HETATM    3  C   UNL     1     -44.521  57.671 -52.175  1.00  0.00     0.030 A 
HETATM    4  C   UNL     1     -43.166  57.423 -51.942  1.00  0.00     0.035 A 
HETATM    5  C   UNL     1     -42.387  58.429 -51.357  1.00  0.00     0.030 A 
HETATM    6  C   UNL     1     -42.954  59.660 -51.010  1.00  0.00     0.019 A 
ENDROOT
BRANCH   4   7
HETATM    7  N   UNL     1     -42.514  56.222 -52.284  1.00  0.00    -0.323 N 
HETATM    8  C   UNL     1     -41.416  56.067 -53.110  1.00  0.00     0.257 C 
HETATM    9  O   UNL     1     -40.876  56.935 -53.785  1.00  0.00    -0.267 OA
HETATM   10  H   UNL     1     -42.921  55.376 -51.905  1.00  0.00     0.169 HD
BRANCH   8  11
HETATM   11  C   UNL     1     -40.899  54.683 -53.217  1.00  0.00     0.047 A 
HETATM   12  C   UNL     1     -40.642  53.869 -52.096  1.00  0.00     0.027 A 
HETATM   13  C   UNL     1     -40.173  52.584 -52.361  1.00  0.00     0.138 A 
HETATM   14  C   UNL     1     -40.694  53.986 -50.675  1.00  0.00     0.033 A 
HETATM   15  N   UNL     1     -39.986  51.939 -51.169  1.00  0.00    -0.350 N 
HETATM   16  N   UNL     1     -39.924  52.031 -53.561  1.00  0.00    -0.242 NA
HETATM   17  H   UNL     1     -39.645  50.992 -51.095  1.00  0.00     0.166 HD
HETATM   18  C   UNL     1     -40.298  52.781 -50.134  1.00  0.00     0.090 A 
HETATM   19  C   UNL     1     -40.154  52.869 -54.595  1.00  0.00     0.120 A 
HETATM   20  C   UNL     1     -40.624  54.167 -54.489  1.00  0.00     0.037 A 
ENDBRANCH   8  11
ENDBRANCH   4   7
BRANCH   1  21
HETATM   21  C   UNL     1     -44.865  61.237 -50.862  1.00  0.00     0.251 C 
HETATM   22  N   UNL     1     -45.913  61.250 -49.969  1.00  0.00    -0.352 N 
HETATM   23  H   UNL     1     -46.111  60.423 -49.423  1.00  0.00     0.163 HD
HETATM   24  O   UNL     1     -44.370  62.259 -51.325  1.00  0.00    -0.268 OA
BRANCH  22  25
HETATM   25  C   UNL     1     -46.417  62.505 -49.458  1.00  0.00     0.169 C 
BRANCH  25  26
HETATM   26  C   UNL     1     -46.141  62.567 -47.992  1.00  0.00     0.000 A 
HETATM   27  S   UNL     1     -46.978  63.687 -46.997  1.00  0.00    -0.105 SA
HETATM   28  C   UNL     1     -46.153  63.158 -45.597  1.00  0.00     0.050 A 
HETATM   29  C   UNL     1     -45.259  62.148 -45.874  1.00  0.00     0.008 A 
HETATM   30  C   UNL     1     -45.250  61.808 -47.257  1.00  0.00     0.017 A 
ENDBRANCH  25  26
ENDBRANCH  22  25
ENDBRANCH   1  21
TORSDOF 5
ENDMDL
