MODEL 1
REMARK VINA RESULT:      -8.5      0.000      0.000
REMARK  8 active torsions:
REMARK  status: ('A' for Active; 'I' for Inactive)
REMARK    1  A    between atoms: O_2  and  C_3 
REMARK    2  A    between atoms: C_6  and  C_7 
REMARK    3  A    between atoms: C_7  and  N_8 
REMARK    4  A    between atoms: C_7  and  C_27 
REMARK    5  A    between atoms: N_8  and  C_11 
REMARK    6  A    between atoms: C_11  and  C_12 
REMARK       I    between atoms: C_12  and  N_13 
REMARK    7  A    between atoms: N_13  and  C_14 
REMARK    8  A    between atoms: C_17  and  N_18 
ROOT
HETATM    1  N   UNL     1     -40.564  53.444 -50.821  1.00  0.00    -0.055 N 
HETATM    2  H   UNL     1     -41.551  53.747 -50.817  1.00  0.00     0.278 HD
HETATM    3  H   UNL     1     -40.530  52.515 -50.400  1.00  0.00     0.278 HD
ENDROOT
BRANCH   1   4
HETATM    4  C   UNL     1     -40.163  53.380 -52.272  1.00  0.00     0.252 C 
BRANCH   4   5
HETATM    5  C   UNL     1     -41.099  54.177 -53.168  1.00  0.00    -0.023 A 
HETATM    6  C   UNL     1     -42.491  54.039 -53.002  1.00  0.00     0.012 A 
HETATM    7  C   UNL     1     -43.390  54.800 -53.758  1.00  0.00     0.037 A 
HETATM    8  C   UNL     1     -42.917  55.719 -54.690  1.00  0.00     0.068 A 
HETATM    9  C   UNL     1     -41.542  55.842 -54.885  1.00  0.00     0.037 A 
HETATM   10  C   UNL     1     -40.638  55.089 -54.129  1.00  0.00     0.012 A 
BRANCH   8  11
HETATM   11  O   UNL     1     -43.685  56.534 -55.470  1.00  0.00    -0.356 OA
HETATM   12  C   UNL     1     -44.676  57.305 -54.797  1.00  0.00     0.210 C 
ENDBRANCH   8  11
ENDBRANCH   4   5
BRANCH   4  13
HETATM   13  C   UNL     1     -39.946  51.957 -52.759  1.00  0.00    -0.023 A 
HETATM   14  C   UNL     1     -39.604  50.953 -51.834  1.00  0.00     0.009 A 
HETATM   15  C   UNL     1     -39.411  49.635 -52.252  1.00  0.00     0.001 A 
HETATM   16  C   UNL     1     -39.554  49.301 -53.595  1.00  0.00     0.000 A 
HETATM   17  C   UNL     1     -39.885  50.282 -54.525  1.00  0.00     0.001 A 
HETATM   18  C   UNL     1     -40.079  51.602 -54.114  1.00  0.00     0.009 A 
ENDBRANCH   4  13
ENDBRANCH   1   4
BRANCH   1  19
HETATM   19  C   UNL     1     -39.802  54.444 -49.978  1.00  0.00     0.336 C 
BRANCH  19  20
HETATM   20  C   UNL     1     -40.660  55.681 -49.718  1.00  0.00     0.248 C 
HETATM   21  N   UNL     1     -40.676  56.599 -50.749  1.00  0.00    -0.326 N 
HETATM   22  H   UNL     1     -40.111  56.424 -51.573  1.00  0.00     0.169 HD
HETATM   23  O   UNL     1     -41.343  55.688 -48.696  1.00  0.00    -0.271 OA
BRANCH  21  24
HETATM   24  C   UNL     1     -41.515  57.733 -50.841  1.00  0.00     0.034 A 
HETATM   25  C   UNL     1     -41.150  59.008 -50.425  1.00  0.00     0.032 A 
HETATM   26  C   UNL     1     -42.066  60.070 -50.485  1.00  0.00     0.032 A 
HETATM   27  C   UNL     1     -43.372  59.890 -50.950  1.00  0.00     0.037 A 
HETATM   28  C   UNL     1     -43.714  58.610 -51.409  1.00  0.00     0.032 A 
HETATM   29  C   UNL     1     -42.798  57.548 -51.363  1.00  0.00     0.032 A 
BRANCH  27  30
HETATM   30  N   UNL     1     -44.327  60.945 -50.945  1.00  0.00    -0.318 N 
HETATM   31  C   UNL     1     -45.472  61.024 -50.132  1.00  0.00     0.224 C 
HETATM   32  O   UNL     1     -45.841  60.273 -49.243  1.00  0.00    -0.273 OA
HETATM   33  C   UNL     1     -46.291  62.204 -50.598  1.00  0.00     0.105 C 
HETATM   34  C   UNL     1     -45.300  63.029 -51.393  1.00  0.00     0.029 C 
HETATM   35  C   UNL     1     -44.337  61.996 -51.938  1.00  0.00     0.133 C 
ENDBRANCH  27  30
ENDBRANCH  21  24
ENDBRANCH  19  20
ENDBRANCH   1  19
TORSDOF 8
ENDMDL
MODEL 2
REMARK VINA RESULT:      -8.0      1.381      1.576
REMARK  8 active torsions:
REMARK  status: ('A' for Active; 'I' for Inactive)
REMARK    1  A    between atoms: O_2  and  C_3 
REMARK    2  A    between atoms: C_6  and  C_7 
REMARK    3  A    between atoms: C_7  and  N_8 
REMARK    4  A    between atoms: C_7  and  C_27 
REMARK    5  A    between atoms: N_8  and  C_11 
REMARK    6  A    between atoms: C_11  and  C_12 
REMARK       I    between atoms: C_12  and  N_13 
REMARK    7  A    between atoms: N_13  and  C_14 
REMARK    8  A    between atoms: C_17  and  N_18 
ROOT
HETATM    1  N   UNL     1     -40.772  53.683 -50.811  1.00  0.00    -0.055 N 
HETATM    2  H   UNL     1     -41.798  53.771 -50.885  1.00  0.00     0.278 HD
HETATM    3  H   UNL     1     -40.579  52.832 -50.281  1.00  0.00     0.278 HD
ENDROOT
BRANCH   1   4
HETATM    4  C   UNL     1     -40.273  53.548 -52.226  1.00  0.00     0.252 C 
BRANCH   4   5
HETATM    5  C   UNL     1     -41.145  54.295 -53.223  1.00  0.00    -0.023 A 
HETATM    6  C   UNL     1     -42.544  54.148 -53.156  1.00  0.00     0.012 A 
HETATM    7  C   UNL     1     -43.389  54.866 -54.010  1.00  0.00     0.037 A 
HETATM    8  C   UNL     1     -42.855  55.750 -54.942  1.00  0.00     0.068 A 
HETATM    9  C   UNL     1     -41.470  55.881 -55.039  1.00  0.00     0.037 A 
HETATM   10  C   UNL     1     -40.619  55.171 -54.186  1.00  0.00     0.012 A 
BRANCH   8  11
HETATM   11  O   UNL     1     -43.568  56.523 -55.812  1.00  0.00    -0.356 OA
HETATM   12  C   UNL     1     -43.123  57.866 -55.978  1.00  0.00     0.210 C 
ENDBRANCH   8  11
ENDBRANCH   4   5
BRANCH   4  13
HETATM   13  C   UNL     1     -40.021  52.103 -52.625  1.00  0.00    -0.023 A 
HETATM   14  C   UNL     1     -39.686  51.160 -51.636  1.00  0.00     0.009 A 
HETATM   15  C   UNL     1     -39.462  49.824 -51.973  1.00  0.00     0.001 A 
HETATM   16  C   UNL     1     -39.567  49.411 -53.298  1.00  0.00     0.000 A 
HETATM   17  C   UNL     1     -39.891  50.332 -54.290  1.00  0.00     0.001 A 
HETATM   18  C   UNL     1     -40.116  51.669 -53.960  1.00  0.00     0.009 A 
ENDBRANCH   4  13
ENDBRANCH   1   4
BRANCH   1  19
HETATM   19  C   UNL     1     -40.287  54.905 -50.062  1.00  0.00     0.336 C 
BRANCH  19  20
HETATM   20  C   UNL     1     -41.303  56.040 -50.183  1.00  0.00     0.248 C 
HETATM   21  N   UNL     1     -40.784  57.233 -50.641  1.00  0.00    -0.326 N 
HETATM   22  H   UNL     1     -39.789  57.297 -50.829  1.00  0.00     0.169 HD
HETATM   23  O   UNL     1     -42.485  55.760 -49.992  1.00  0.00    -0.271 OA
BRANCH  21  24
HETATM   24  C   UNL     1     -41.526  58.378 -51.009  1.00  0.00     0.034 A 
HETATM   25  C   UNL     1     -41.497  59.582 -50.312  1.00  0.00     0.032 A 
HETATM   26  C   UNL     1     -42.318  60.653 -50.700  1.00  0.00     0.032 A 
HETATM   27  C   UNL     1     -43.197  60.552 -51.782  1.00  0.00     0.037 A 
HETATM   28  C   UNL     1     -43.184  59.350 -52.502  1.00  0.00     0.032 A 
HETATM   29  C   UNL     1     -42.356  58.281 -52.128  1.00  0.00     0.032 A 
BRANCH  27  30
HETATM   30  N   UNL     1     -44.083  61.608 -52.133  1.00  0.00    -0.318 N 
HETATM   31  C   UNL     1     -43.846  62.605 -53.096  1.00  0.00     0.224 C 
HETATM   32  O   UNL     1     -42.901  62.732 -53.859  1.00  0.00    -0.273 OA
HETATM   33  C   UNL     1     -44.958  63.622 -52.997  1.00  0.00     0.105 C 
HETATM   34  C   UNL     1     -46.048  62.878 -52.254  1.00  0.00     0.029 C 
HETATM   35  C   UNL     1     -45.283  61.905 -51.383  1.00  0.00     0.133 C 
ENDBRANCH  27  30
ENDBRANCH  21  24
ENDBRANCH  19  20
ENDBRANCH   1  19
TORSDOF 8
ENDMDL
MODEL 3
REMARK VINA RESULT:      -7.8      4.906      9.339
REMARK  8 active torsions:
REMARK  status: ('A' for Active; 'I' for Inactive)
REMARK    1  A    between atoms: O_2  and  C_3 
REMARK    2  A    between atoms: C_6  and  C_7 
REMARK    3  A    between atoms: C_7  and  N_8 
REMARK    4  A    between atoms: C_7  and  C_27 
REMARK    5  A    between atoms: N_8  and  C_11 
REMARK    6  A    between atoms: C_11  and  C_12 
REMARK       I    between atoms: C_12  and  N_13 
REMARK    7  A    between atoms: N_13  and  C_14 
REMARK    8  A    between atoms: C_17  and  N_18 
ROOT
HETATM    1  N   UNL     1     -41.925  60.250 -56.861  1.00  0.00    -0.055 N 
HETATM    2  H   UNL     1     -41.194  59.530 -56.979  1.00  0.00     0.278 HD
HETATM    3  H   UNL     1     -41.466  61.090 -56.506  1.00  0.00     0.278 HD
ENDROOT
BRANCH   1   4
HETATM    4  C   UNL     1     -42.482  60.494 -58.239  1.00  0.00     0.252 C 
BRANCH   4   5
HETATM    5  C   UNL     1     -42.913  59.209 -58.927  1.00  0.00    -0.023 A 
HETATM    6  C   UNL     1     -44.224  59.105 -59.430  1.00  0.00     0.012 A 
HETATM    7  C   UNL     1     -44.645  57.967 -60.128  1.00  0.00     0.037 A 
HETATM    8  C   UNL     1     -43.762  56.913 -60.343  1.00  0.00     0.068 A 
HETATM    9  C   UNL     1     -42.470  56.991 -59.824  1.00  0.00     0.037 A 
HETATM   10  C   UNL     1     -42.042  58.127 -59.130  1.00  0.00     0.012 A 
BRANCH   8  11
HETATM   11  O   UNL     1     -44.040  55.764 -61.025  1.00  0.00    -0.356 OA
HETATM   12  C   UNL     1     -44.737  54.752 -60.304  1.00  0.00     0.210 C 
ENDBRANCH   8  11
ENDBRANCH   4   5
BRANCH   4  13
HETATM   13  C   UNL     1     -41.566  61.350 -59.100  1.00  0.00    -0.023 A 
HETATM   14  C   UNL     1     -40.485  62.024 -58.503  1.00  0.00     0.009 A 
HETATM   15  C   UNL     1     -39.621  62.805 -59.271  1.00  0.00     0.001 A 
HETATM   16  C   UNL     1     -39.823  62.927 -60.643  1.00  0.00     0.000 A 
HETATM   17  C   UNL     1     -40.891  62.272 -61.249  1.00  0.00     0.001 A 
HETATM   18  C   UNL     1     -41.760  61.489 -60.486  1.00  0.00     0.009 A 
ENDBRANCH   4  13
ENDBRANCH   1   4
BRANCH   1  19
HETATM   19  C   UNL     1     -42.908  59.705 -55.847  1.00  0.00     0.336 C 
BRANCH  19  20
HETATM   20  C   UNL     1     -42.273  58.565 -55.053  1.00  0.00     0.248 C 
HETATM   21  N   UNL     1     -42.848  57.328 -55.259  1.00  0.00    -0.326 N 
HETATM   22  H   UNL     1     -43.652  57.255 -55.875  1.00  0.00     0.169 HD
HETATM   23  O   UNL     1     -41.252  58.821 -54.417  1.00  0.00    -0.271 OA
BRANCH  21  24
HETATM   24  C   UNL     1     -42.352  56.090 -54.792  1.00  0.00     0.034 A 
HETATM   25  C   UNL     1     -42.968  55.325 -53.806  1.00  0.00     0.032 A 
HETATM   26  C   UNL     1     -42.375  54.139 -53.345  1.00  0.00     0.032 A 
HETATM   27  C   UNL     1     -41.149  53.688 -53.843  1.00  0.00     0.037 A 
HETATM   28  C   UNL     1     -40.561  54.443 -54.867  1.00  0.00     0.032 A 
HETATM   29  C   UNL     1     -41.156  55.623 -55.341  1.00  0.00     0.032 A 
BRANCH  27  30
HETATM   30  N   UNL     1     -40.509  52.527 -53.328  1.00  0.00    -0.318 N 
HETATM   31  C   UNL     1     -39.973  52.379 -52.035  1.00  0.00     0.224 C 
HETATM   32  O   UNL     1     -40.005  53.154 -51.093  1.00  0.00    -0.273 OA
HETATM   33  C   UNL     1     -39.223  51.069 -51.991  1.00  0.00     0.105 C 
HETATM   34  C   UNL     1     -39.775  50.307 -53.177  1.00  0.00     0.029 C 
HETATM   35  C   UNL     1     -40.149  51.399 -54.157  1.00  0.00     0.133 C 
ENDBRANCH  27  30
ENDBRANCH  21  24
ENDBRANCH  19  20
ENDBRANCH   1  19
TORSDOF 8
ENDMDL
MODEL 4
REMARK VINA RESULT:      -7.6      4.671      9.100
REMARK  8 active torsions:
REMARK  status: ('A' for Active; 'I' for Inactive)
REMARK    1  A    between atoms: O_2  and  C_3 
REMARK    2  A    between atoms: C_6  and  C_7 
REMARK    3  A    between atoms: C_7  and  N_8 
REMARK    4  A    between atoms: C_7  and  C_27 
REMARK    5  A    between atoms: N_8  and  C_11 
REMARK    6  A    between atoms: C_11  and  C_12 
REMARK       I    between atoms: C_12  and  N_13 
REMARK    7  A    between atoms: N_13  and  C_14 
REMARK    8  A    between atoms: C_17  and  N_18 
ROOT
HETATM    1  N   UNL     1     -43.988  58.195 -56.773  1.00  0.00    -0.055 N 
HETATM    2  H   UNL     1     -44.242  59.184 -56.924  1.00  0.00     0.278 HD
HETATM    3  H   UNL     1     -44.858  57.675 -56.645  1.00  0.00     0.278 HD
ENDROOT
BRANCH   1   4
HETATM    4  C   UNL     1     -43.293  57.756 -58.036  1.00  0.00     0.252 C 
BRANCH   4   5
HETATM    5  C   UNL     1     -42.839  58.932 -58.886  1.00  0.00    -0.023 A 
HETATM    6  C   UNL     1     -42.222  58.685 -60.127  1.00  0.00     0.012 A 
HETATM    7  C   UNL     1     -41.847  59.735 -60.973  1.00  0.00     0.037 A 
HETATM    8  C   UNL     1     -42.085  61.054 -60.597  1.00  0.00     0.068 A 
HETATM    9  C   UNL     1     -42.667  61.313 -59.357  1.00  0.00     0.037 A 
HETATM   10  C   UNL     1     -43.049  60.268 -58.510  1.00  0.00     0.012 A 
BRANCH   8  11
HETATM   11  O   UNL     1     -41.789  62.162 -61.338  1.00  0.00    -0.356 OA
HETATM   12  C   UNL     1     -40.501  62.735 -61.134  1.00  0.00     0.210 C 
ENDBRANCH   8  11
ENDBRANCH   4   5
BRANCH   4  13
HETATM   13  C   UNL     1     -44.094  56.732 -58.822  1.00  0.00    -0.023 A 
HETATM   14  C   UNL     1     -45.346  57.091 -59.354  1.00  0.00     0.009 A 
HETATM   15  C   UNL     1     -46.097  56.174 -60.091  1.00  0.00     0.001 A 
HETATM   16  C   UNL     1     -45.612  54.887 -60.307  1.00  0.00     0.000 A 
HETATM   17  C   UNL     1     -44.378  54.513 -59.782  1.00  0.00     0.001 A 
HETATM   18  C   UNL     1     -43.623  55.425 -59.044  1.00  0.00     0.009 A 
ENDBRANCH   4  13
ENDBRANCH   1   4
BRANCH   1  19
HETATM   19  C   UNL     1     -43.146  58.151 -55.516  1.00  0.00     0.336 C 
BRANCH  19  20
HETATM   20  C   UNL     1     -42.909  56.705 -55.087  1.00  0.00     0.248 C 
HETATM   21  N   UNL     1     -41.581  56.352 -54.954  1.00  0.00    -0.326 N 
HETATM   22  H   UNL     1     -40.866  57.037 -55.176  1.00  0.00     0.169 HD
HETATM   23  O   UNL     1     -43.896  56.039 -54.780  1.00  0.00    -0.271 OA
BRANCH  21  24
HETATM   24  C   UNL     1     -41.090  55.145 -54.408  1.00  0.00     0.034 A 
HETATM   25  C   UNL     1     -40.496  54.135 -55.157  1.00  0.00     0.032 A 
HETATM   26  C   UNL     1     -40.096  52.934 -54.551  1.00  0.00     0.032 A 
HETATM   27  C   UNL     1     -40.287  52.701 -53.185  1.00  0.00     0.037 A 
HETATM   28  C   UNL     1     -40.846  53.743 -52.433  1.00  0.00     0.032 A 
HETATM   29  C   UNL     1     -41.235  54.951 -53.032  1.00  0.00     0.032 A 
BRANCH  27  30
HETATM   30  N   UNL     1     -39.952  51.457 -52.580  1.00  0.00    -0.318 N 
HETATM   31  C   UNL     1     -39.798  50.226 -53.243  1.00  0.00     0.224 C 
HETATM   32  O   UNL     1     -39.844  49.982 -54.438  1.00  0.00    -0.273 OA
HETATM   33  C   UNL     1     -39.639  49.151 -52.195  1.00  0.00     0.105 C 
HETATM   34  C   UNL     1     -39.249  49.926 -50.953  1.00  0.00     0.029 C 
HETATM   35  C   UNL     1     -39.920  51.268 -51.147  1.00  0.00     0.133 C 
ENDBRANCH  27  30
ENDBRANCH  21  24
ENDBRANCH  19  20
ENDBRANCH   1  19
TORSDOF 8
ENDMDL
MODEL 5
REMARK VINA RESULT:      -7.6     16.131     19.265
REMARK  8 active torsions:
REMARK  status: ('A' for Active; 'I' for Inactive)
REMARK    1  A    between atoms: O_2  and  C_3 
REMARK    2  A    between atoms: C_6  and  C_7 
REMARK    3  A    between atoms: C_7  and  N_8 
REMARK    4  A    between atoms: C_7  and  C_27 
REMARK    5  A    between atoms: N_8  and  C_11 
REMARK    6  A    between atoms: C_11  and  C_12 
REMARK       I    between atoms: C_12  and  N_13 
REMARK    7  A    between atoms: N_13  and  C_14 
REMARK    8  A    between atoms: C_17  and  N_18 
ROOT
HETATM    1  N   UNL     1     -33.326  41.526 -51.281  1.00  0.00    -0.055 N 
HETATM    2  H   UNL     1     -32.841  41.862 -50.433  1.00  0.00     0.278 HD
HETATM    3  H   UNL     1     -32.768  41.818 -52.084  1.00  0.00     0.278 HD
ENDROOT
BRANCH   1   4
HETATM    4  C   UNL     1     -33.345  40.024 -51.170  1.00  0.00     0.252 C 
BRANCH   4   5
HETATM    5  C   UNL     1     -32.957  39.539 -49.782  1.00  0.00    -0.023 A 
HETATM    6  C   UNL     1     -33.802  38.636 -49.109  1.00  0.00     0.012 A 
HETATM    7  C   UNL     1     -33.454  38.112 -47.858  1.00  0.00     0.037 A 
HETATM    8  C   UNL     1     -32.253  38.476 -47.258  1.00  0.00     0.068 A 
HETATM    9  C   UNL     1     -31.422  39.393 -47.901  1.00  0.00     0.037 A 
HETATM   10  C   UNL     1     -31.761  39.916 -49.153  1.00  0.00     0.012 A 
BRANCH   8  11
HETATM   11  O   UNL     1     -31.788  38.021 -46.058  1.00  0.00    -0.356 OA
HETATM   12  C   UNL     1     -32.642  38.214 -44.934  1.00  0.00     0.210 C 
ENDBRANCH   8  11
ENDBRANCH   4   5
BRANCH   4  13
HETATM   13  C   UNL     1     -32.558  39.343 -52.277  1.00  0.00    -0.023 A 
HETATM   14  C   UNL     1     -32.203  40.075 -53.426  1.00  0.00     0.009 A 
HETATM   15  C   UNL     1     -31.468  39.479 -54.452  1.00  0.00     0.001 A 
HETATM   16  C   UNL     1     -31.079  38.146 -54.349  1.00  0.00     0.000 A 
HETATM   17  C   UNL     1     -31.427  37.405 -53.223  1.00  0.00     0.001 A 
HETATM   18  C   UNL     1     -32.162  37.996 -52.193  1.00  0.00     0.009 A 
ENDBRANCH   4  13
ENDBRANCH   1   4
BRANCH   1  19
HETATM   19  C   UNL     1     -34.683  42.197 -51.296  1.00  0.00     0.336 C 
BRANCH  19  20
HETATM   20  C   UNL     1     -35.464  41.786 -52.543  1.00  0.00     0.248 C 
HETATM   21  N   UNL     1     -35.006  42.343 -53.720  1.00  0.00    -0.326 N 
HETATM   22  H   UNL     1     -34.231  42.996 -53.686  1.00  0.00     0.169 HD
HETATM   23  O   UNL     1     -36.324  40.918 -52.408  1.00  0.00    -0.271 OA
BRANCH  21  24
HETATM   24  C   UNL     1     -35.430  42.000 -55.024  1.00  0.00     0.034 A 
HETATM   25  C   UNL     1     -36.727  42.177 -55.494  1.00  0.00     0.032 A 
HETATM   26  C   UNL     1     -37.088  41.746 -56.780  1.00  0.00     0.032 A 
HETATM   27  C   UNL     1     -36.172  41.116 -57.628  1.00  0.00     0.037 A 
HETATM   28  C   UNL     1     -34.857  40.983 -57.160  1.00  0.00     0.032 A 
HETATM   29  C   UNL     1     -34.488  41.425 -55.880  1.00  0.00     0.032 A 
BRANCH  27  30
HETATM   30  N   UNL     1     -36.551  40.611 -58.904  1.00  0.00    -0.318 N 
HETATM   31  C   UNL     1     -37.193  41.334 -59.925  1.00  0.00     0.224 C 
HETATM   32  O   UNL     1     -37.485  42.519 -59.966  1.00  0.00    -0.273 OA
HETATM   33  C   UNL     1     -37.577  40.360 -61.013  1.00  0.00     0.105 C 
HETATM   34  C   UNL     1     -36.697  39.159 -60.736  1.00  0.00     0.029 C 
HETATM   35  C   UNL     1     -36.495  39.206 -59.236  1.00  0.00     0.133 C 
ENDBRANCH  27  30
ENDBRANCH  21  24
ENDBRANCH  19  20
ENDBRANCH   1  19
TORSDOF 8
ENDMDL
MODEL 6
REMARK VINA RESULT:      -7.5      5.124      7.049
REMARK  8 active torsions:
REMARK  status: ('A' for Active; 'I' for Inactive)
REMARK    1  A    between atoms: O_2  and  C_3 
REMARK    2  A    between atoms: C_6  and  C_7 
REMARK    3  A    between atoms: C_7  and  N_8 
REMARK    4  A    between atoms: C_7  and  C_27 
REMARK    5  A    between atoms: N_8  and  C_11 
REMARK    6  A    between atoms: C_11  and  C_12 
REMARK       I    between atoms: C_12  and  N_13 
REMARK    7  A    between atoms: N_13  and  C_14 
REMARK    8  A    between atoms: C_17  and  N_18 
ROOT
HETATM    1  N   UNL     1     -41.669  54.828 -55.684  1.00  0.00    -0.055 N 
HETATM    2  H   UNL     1     -41.109  55.695 -55.682  1.00  0.00     0.278 HD
HETATM    3  H   UNL     1     -41.076  54.085 -56.055  1.00  0.00     0.278 HD
ENDROOT
BRANCH   1   4
HETATM    4  C   UNL     1     -42.011  54.561 -54.241  1.00  0.00     0.252 C 
BRANCH   4   5
HETATM    5  C   UNL     1     -42.102  55.837 -53.420  1.00  0.00    -0.023 A 
HETATM    6  C   UNL     1     -43.217  56.037 -52.584  1.00  0.00     0.012 A 
HETATM    7  C   UNL     1     -43.313  57.165 -51.761  1.00  0.00     0.037 A 
HETATM    8  C   UNL     1     -42.295  58.113 -51.753  1.00  0.00     0.068 A 
HETATM    9  C   UNL     1     -41.200  57.942 -52.599  1.00  0.00     0.037 A 
HETATM   10  C   UNL     1     -41.095  56.814 -53.420  1.00  0.00     0.012 A 
BRANCH   8  11
HETATM   11  O   UNL     1     -42.257  59.239 -50.983  1.00  0.00    -0.356 OA
HETATM   12  C   UNL     1     -40.969  59.672 -50.556  1.00  0.00     0.210 C 
ENDBRANCH   8  11
ENDBRANCH   4   5
BRANCH   4  13
HETATM   13  C   UNL     1     -41.109  53.513 -53.609  1.00  0.00    -0.023 A 
HETATM   14  C   UNL     1     -40.577  52.484 -54.408  1.00  0.00     0.009 A 
HETATM   15  C   UNL     1     -39.735  51.516 -53.857  1.00  0.00     0.001 A 
HETATM   16  C   UNL     1     -39.414  51.560 -52.503  1.00  0.00     0.000 A 
HETATM   17  C   UNL     1     -39.937  52.567 -51.696  1.00  0.00     0.001 A 
HETATM   18  C   UNL     1     -40.779  53.537 -52.242  1.00  0.00     0.009 A 
ENDBRANCH   4  13
ENDBRANCH   1   4
BRANCH   1  19
HETATM   19  C   UNL     1     -42.850  55.080 -56.598  1.00  0.00     0.336 C 
BRANCH  19  20
HETATM   20  C   UNL     1     -42.929  56.560 -56.967  1.00  0.00     0.248 C 
HETATM   21  N   UNL     1     -42.033  56.962 -57.936  1.00  0.00    -0.326 N 
HETATM   22  H   UNL     1     -41.374  56.286 -58.308  1.00  0.00     0.169 HD
HETATM   23  O   UNL     1     -43.846  57.215 -56.474  1.00  0.00    -0.271 OA
BRANCH  21  24
HETATM   24  C   UNL     1     -42.012  58.220 -58.580  1.00  0.00     0.034 A 
HETATM   25  C   UNL     1     -42.132  58.393 -59.955  1.00  0.00     0.032 A 
HETATM   26  C   UNL     1     -42.031  59.672 -60.527  1.00  0.00     0.032 A 
HETATM   27  C   UNL     1     -41.794  60.809 -59.749  1.00  0.00     0.037 A 
HETATM   28  C   UNL     1     -41.719  60.626 -58.361  1.00  0.00     0.032 A 
HETATM   29  C   UNL     1     -41.833  59.353 -57.783  1.00  0.00     0.032 A 
BRANCH  27  30
HETATM   30  N   UNL     1     -41.617  62.095 -60.330  1.00  0.00    -0.318 N 
HETATM   31  C   UNL     1     -40.487  62.921 -60.189  1.00  0.00     0.224 C 
HETATM   32  O   UNL     1     -39.429  62.692 -59.625  1.00  0.00    -0.273 OA
HETATM   33  C   UNL     1     -40.811  64.261 -60.805  1.00  0.00     0.105 C 
HETATM   34  C   UNL     1     -42.000  63.961 -61.694  1.00  0.00     0.029 C 
HETATM   35  C   UNL     1     -42.686  62.809 -60.991  1.00  0.00     0.133 C 
ENDBRANCH  27  30
ENDBRANCH  21  24
ENDBRANCH  19  20
ENDBRANCH   1  19
TORSDOF 8
ENDMDL
MODEL 7
REMARK VINA RESULT:      -7.5      4.374      9.216
REMARK  8 active torsions:
REMARK  status: ('A' for Active; 'I' for Inactive)
REMARK    1  A    between atoms: O_2  and  C_3 
REMARK    2  A    between atoms: C_6  and  C_7 
REMARK    3  A    between atoms: C_7  and  N_8 
REMARK    4  A    between atoms: C_7  and  C_27 
REMARK    5  A    between atoms: N_8  and  C_11 
REMARK    6  A    between atoms: C_11  and  C_12 
REMARK       I    between atoms: C_12  and  N_13 
REMARK    7  A    between atoms: N_13  and  C_14 
REMARK    8  A    between atoms: C_17  and  N_18 
ROOT
HETATM    1  N   UNL     1     -42.347  59.023 -56.341  1.00  0.00    -0.055 N 
HETATM    2  H   UNL     1     -41.756  58.212 -56.584  1.00  0.00     0.278 HD
HETATM    3  H   UNL     1     -41.724  59.772 -56.038  1.00  0.00     0.278 HD
ENDROOT
BRANCH   1   4
HETATM    4  C   UNL     1     -43.054  59.407 -57.615  1.00  0.00     0.252 C 
BRANCH   4   5
HETATM    5  C   UNL     1     -43.549  58.197 -58.391  1.00  0.00    -0.023 A 
HETATM    6  C   UNL     1     -42.676  57.113 -58.604  1.00  0.00     0.012 A 
HETATM    7  C   UNL     1     -43.108  55.951 -59.255  1.00  0.00     0.037 A 
HETATM    8  C   UNL     1     -44.422  55.847 -59.700  1.00  0.00     0.068 A 
HETATM    9  C   UNL     1     -45.288  56.925 -59.523  1.00  0.00     0.037 A 
HETATM   10  C   UNL     1     -44.864  58.087 -58.868  1.00  0.00     0.012 A 
BRANCH   8  11
HETATM   11  O   UNL     1     -44.971  54.765 -60.325  1.00  0.00    -0.356 OA
HETATM   12  C   UNL     1     -44.849  53.515 -59.653  1.00  0.00     0.210 C 
ENDBRANCH   8  11
ENDBRANCH   4   5
BRANCH   4  13
HETATM   13  C   UNL     1     -42.243  60.367 -58.470  1.00  0.00    -0.023 A 
HETATM   14  C   UNL     1     -41.350  61.261 -57.850  1.00  0.00     0.009 A 
HETATM   15  C   UNL     1     -40.583  62.144 -58.611  1.00  0.00     0.001 A 
HETATM   16  C   UNL     1     -40.696  62.151 -59.999  1.00  0.00     0.000 A 
HETATM   17  C   UNL     1     -41.579  61.277 -60.628  1.00  0.00     0.001 A 
HETATM   18  C   UNL     1     -42.349  60.392 -59.872  1.00  0.00     0.009 A 
ENDBRANCH   4  13
ENDBRANCH   1   4
BRANCH   1  19
HETATM   19  C   UNL     1     -43.245  58.578 -55.206  1.00  0.00     0.336 C 
BRANCH  19  20
HETATM   20  C   UNL     1     -42.989  57.110 -54.871  1.00  0.00     0.248 C 
HETATM   21  N   UNL     1     -41.657  56.769 -54.751  1.00  0.00    -0.326 N 
HETATM   22  H   UNL     1     -40.951  57.477 -54.920  1.00  0.00     0.169 HD
HETATM   23  O   UNL     1     -43.969  56.411 -54.618  1.00  0.00    -0.271 OA
BRANCH  21  24
HETATM   24  C   UNL     1     -41.152  55.536 -54.281  1.00  0.00     0.034 A 
HETATM   25  C   UNL     1     -40.464  54.623 -55.073  1.00  0.00     0.032 A 
HETATM   26  C   UNL     1     -40.054  53.387 -54.549  1.00  0.00     0.032 A 
HETATM   27  C   UNL     1     -40.329  53.020 -53.229  1.00  0.00     0.037 A 
HETATM   28  C   UNL     1     -40.984  53.966 -52.428  1.00  0.00     0.032 A 
HETATM   29  C   UNL     1     -41.384  55.209 -52.943  1.00  0.00     0.032 A 
BRANCH  27  30
HETATM   30  N   UNL     1     -39.982  51.739 -52.715  1.00  0.00    -0.318 N 
HETATM   31  C   UNL     1     -39.856  50.552 -53.460  1.00  0.00     0.224 C 
HETATM   32  O   UNL     1     -39.942  50.385 -54.666  1.00  0.00    -0.273 OA
HETATM   33  C   UNL     1     -39.670  49.411 -52.488  1.00  0.00     0.105 C 
HETATM   34  C   UNL     1     -39.237  50.104 -51.213  1.00  0.00     0.029 C 
HETATM   35  C   UNL     1     -39.906  51.458 -51.299  1.00  0.00     0.133 C 
ENDBRANCH  27  30
ENDBRANCH  21  24
ENDBRANCH  19  20
ENDBRANCH   1  19
TORSDOF 8
ENDMDL
MODEL 8
REMARK VINA RESULT:      -7.3      4.563      6.734
REMARK  8 active torsions:
REMARK  status: ('A' for Active; 'I' for Inactive)
REMARK    1  A    between atoms: O_2  and  C_3 
REMARK    2  A    between atoms: C_6  and  C_7 
REMARK    3  A    between atoms: C_7  and  N_8 
REMARK    4  A    between atoms: C_7  and  C_27 
REMARK    5  A    between atoms: N_8  and  C_11 
REMARK    6  A    between atoms: C_11  and  C_12 
REMARK       I    between atoms: C_12  and  N_13 
REMARK    7  A    between atoms: N_13  and  C_14 
REMARK    8  A    between atoms: C_17  and  N_18 
ROOT
HETATM    1  N   UNL     1     -43.018  55.258 -54.247  1.00  0.00    -0.055 N 
HETATM    2  H   UNL     1     -42.350  55.776 -54.840  1.00  0.00     0.278 HD
HETATM    3  H   UNL     1     -43.210  54.370 -54.712  1.00  0.00     0.278 HD
ENDROOT
BRANCH   1   4
HETATM    4  C   UNL     1     -42.306  55.027 -52.940  1.00  0.00     0.252 C 
BRANCH   4   5
HETATM    5  C   UNL     1     -41.629  56.284 -52.418  1.00  0.00    -0.023 A 
HETATM    6  C   UNL     1     -40.876  57.078 -53.305  1.00  0.00     0.012 A 
HETATM    7  C   UNL     1     -40.290  58.277 -52.885  1.00  0.00     0.037 A 
HETATM    8  C   UNL     1     -40.449  58.712 -51.573  1.00  0.00     0.068 A 
HETATM    9  C   UNL     1     -41.167  57.920 -50.677  1.00  0.00     0.037 A 
HETATM   10  C   UNL     1     -41.760  56.723 -51.091  1.00  0.00     0.012 A 
BRANCH   8  11
HETATM   11  O   UNL     1     -39.950  59.868 -51.047  1.00  0.00    -0.356 OA
HETATM   12  C   UNL     1     -38.742  59.756 -50.301  1.00  0.00     0.210 C 
ENDBRANCH   8  11
ENDBRANCH   4   5
BRANCH   4  13
HETATM   13  C   UNL     1     -41.376  53.826 -52.981  1.00  0.00    -0.023 A 
HETATM   14  C   UNL     1     -41.165  53.156 -54.200  1.00  0.00     0.009 A 
HETATM   15  C   UNL     1     -40.305  52.058 -54.270  1.00  0.00     0.001 A 
HETATM   16  C   UNL     1     -39.646  51.614 -53.128  1.00  0.00     0.000 A 
HETATM   17  C   UNL     1     -39.848  52.261 -51.912  1.00  0.00     0.001 A 
HETATM   18  C   UNL     1     -40.707  53.359 -51.836  1.00  0.00     0.009 A 
ENDBRANCH   4  13
ENDBRANCH   1   4
BRANCH   1  19
HETATM   19  C   UNL     1     -44.270  56.105 -54.168  1.00  0.00     0.336 C 
BRANCH  19  20
HETATM   20  C   UNL     1     -44.144  57.325 -55.078  1.00  0.00     0.248 C 
HETATM   21  N   UNL     1     -42.885  57.522 -55.609  1.00  0.00    -0.326 N 
HETATM   22  H   UNL     1     -42.136  56.890 -55.345  1.00  0.00     0.169 HD
HETATM   23  O   UNL     1     -45.178  57.932 -55.354  1.00  0.00    -0.271 OA
BRANCH  21  24
HETATM   24  C   UNL     1     -42.539  58.460 -56.607  1.00  0.00     0.034 A 
HETATM   25  C   UNL     1     -42.348  58.138 -57.946  1.00  0.00     0.032 A 
HETATM   26  C   UNL     1     -41.936  59.115 -58.866  1.00  0.00     0.032 A 
HETATM   27  C   UNL     1     -41.693  60.436 -58.477  1.00  0.00     0.037 A 
HETATM   28  C   UNL     1     -41.933  60.758 -57.134  1.00  0.00     0.032 A 
HETATM   29  C   UNL     1     -42.357  59.788 -56.213  1.00  0.00     0.032 A 
BRANCH  27  30
HETATM   30  N   UNL     1     -41.205  61.412 -59.389  1.00  0.00    -0.318 N 
HETATM   31  C   UNL     1     -41.528  61.506 -60.755  1.00  0.00     0.224 C 
HETATM   32  O   UNL     1     -42.320  60.845 -61.409  1.00  0.00    -0.273 OA
HETATM   33  C   UNL     1     -40.638  62.559 -61.372  1.00  0.00     0.105 C 
HETATM   34  C   UNL     1     -40.148  63.349 -60.176  1.00  0.00     0.029 C 
HETATM   35  C   UNL     1     -40.139  62.330 -59.057  1.00  0.00     0.133 C 
ENDBRANCH  27  30
ENDBRANCH  21  24
ENDBRANCH  19  20
ENDBRANCH   1  19
TORSDOF 8
ENDMDL
MODEL 9
REMARK VINA RESULT:      -7.3      1.931      8.447
REMARK  8 active torsions:
REMARK  status: ('A' for Active; 'I' for Inactive)
REMARK    1  A    between atoms: O_2  and  C_3 
REMARK    2  A    between atoms: C_6  and  C_7 
REMARK    3  A    between atoms: C_7  and  N_8 
REMARK    4  A    between atoms: C_7  and  C_27 
REMARK    5  A    between atoms: N_8  and  C_11 
REMARK    6  A    between atoms: C_11  and  C_12 
REMARK       I    between atoms: C_12  and  N_13 
REMARK    7  A    between atoms: N_13  and  C_14 
REMARK    8  A    between atoms: C_17  and  N_18 
ROOT
HETATM    1  N   UNL     1     -42.228  60.253 -51.540  1.00  0.00    -0.055 N 
HETATM    2  H   UNL     1     -41.608  60.031 -52.334  1.00  0.00     0.278 HD
HETATM    3  H   UNL     1     -42.314  61.270 -51.498  1.00  0.00     0.278 HD
ENDROOT
BRANCH   1   4
HETATM    4  C   UNL     1     -43.556  59.624 -51.871  1.00  0.00     0.252 C 
BRANCH   4   5
HETATM    5  C   UNL     1     -43.446  58.586 -52.977  1.00  0.00    -0.023 A 
HETATM    6  C   UNL     1     -42.391  58.680 -53.904  1.00  0.00     0.012 A 
HETATM    7  C   UNL     1     -42.211  57.712 -54.899  1.00  0.00     0.037 A 
HETATM    8  C   UNL     1     -43.078  56.627 -54.983  1.00  0.00     0.068 A 
HETATM    9  C   UNL     1     -44.145  56.539 -54.089  1.00  0.00     0.037 A 
HETATM   10  C   UNL     1     -44.328  57.500 -53.090  1.00  0.00     0.012 A 
BRANCH   8  11
HETATM   11  O   UNL     1     -42.999  55.607 -55.887  1.00  0.00    -0.356 OA
HETATM   12  C   UNL     1     -43.098  54.287 -55.362  1.00  0.00     0.210 C 
ENDBRANCH   8  11
ENDBRANCH   4   5
BRANCH   4  13
HETATM   13  C   UNL     1     -44.645  60.653 -52.130  1.00  0.00    -0.023 A 
HETATM   14  C   UNL     1     -44.286  61.976 -52.447  1.00  0.00     0.009 A 
HETATM   15  C   UNL     1     -45.265  62.938 -52.702  1.00  0.00     0.001 A 
HETATM   16  C   UNL     1     -46.613  62.595 -52.643  1.00  0.00     0.000 A 
HETATM   17  C   UNL     1     -46.986  61.292 -52.325  1.00  0.00     0.001 A 
HETATM   18  C   UNL     1     -46.012  60.326 -52.068  1.00  0.00     0.009 A 
ENDBRANCH   4  13
ENDBRANCH   1   4
BRANCH   1  19
HETATM   19  C   UNL     1     -41.546  59.720 -50.298  1.00  0.00     0.336 C 
BRANCH  19  20
HETATM   20  C   UNL     1     -40.849  58.396 -50.603  1.00  0.00     0.248 C 
HETATM   21  N   UNL     1     -41.478  57.281 -50.089  1.00  0.00    -0.326 N 
HETATM   22  H   UNL     1     -42.316  57.402 -49.530  1.00  0.00     0.169 HD
HETATM   23  O   UNL     1     -39.886  58.429 -51.367  1.00  0.00    -0.271 OA
BRANCH  21  24
HETATM   24  C   UNL     1     -41.147  55.935 -50.368  1.00  0.00     0.034 A 
HETATM   25  C   UNL     1     -40.293  55.165 -49.585  1.00  0.00     0.032 A 
HETATM   26  C   UNL     1     -39.958  53.856 -49.967  1.00  0.00     0.032 A 
HETATM   27  C   UNL     1     -40.453  53.283 -51.142  1.00  0.00     0.037 A 
HETATM   28  C   UNL     1     -41.348  54.053 -51.898  1.00  0.00     0.032 A 
HETATM   29  C   UNL     1     -41.697  55.357 -51.514  1.00  0.00     0.032 A 
BRANCH  27  30
HETATM   30  N   UNL     1     -40.059  51.985 -51.571  1.00  0.00    -0.318 N 
HETATM   31  C   UNL     1     -39.783  51.596 -52.894  1.00  0.00     0.224 C 
HETATM   32  O   UNL     1     -39.751  52.276 -53.908  1.00  0.00    -0.273 OA
HETATM   33  C   UNL     1     -39.599  50.098 -52.910  1.00  0.00     0.105 C 
HETATM   34  C   UNL     1     -39.329  49.762 -51.458  1.00  0.00     0.029 C 
HETATM   35  C   UNL     1     -40.085  50.832 -50.700  1.00  0.00     0.133 C 
ENDBRANCH  27  30
ENDBRANCH  21  24
ENDBRANCH  19  20
ENDBRANCH   1  19
TORSDOF 8
ENDMDL
MODEL 10
REMARK VINA RESULT:      -7.3      1.740      2.492
REMARK  8 active torsions:
REMARK  status: ('A' for Active; 'I' for Inactive)
REMARK    1  A    between atoms: O_2  and  C_3 
REMARK    2  A    between atoms: C_6  and  C_7 
REMARK    3  A    between atoms: C_7  and  N_8 
REMARK    4  A    between atoms: C_7  and  C_27 
REMARK    5  A    between atoms: N_8  and  C_11 
REMARK    6  A    between atoms: C_11  and  C_12 
REMARK       I    between atoms: C_12  and  N_13 
REMARK    7  A    between atoms: N_13  and  C_14 
REMARK    8  A    between atoms: C_17  and  N_18 
ROOT
HETATM    1  N   UNL     1     -41.344  53.974 -51.054  1.00  0.00    -0.055 N 
HETATM    2  H   UNL     1     -42.315  54.243 -51.281  1.00  0.00     0.278 HD
HETATM    3  H   UNL     1     -41.383  53.070 -50.580  1.00  0.00     0.278 HD
ENDROOT
BRANCH   1   4
HETATM    4  C   UNL     1     -40.637  53.845 -52.378  1.00  0.00     0.252 C 
BRANCH   4   5
HETATM    5  C   UNL     1     -41.386  54.538 -53.505  1.00  0.00    -0.023 A 
HETATM    6  C   UNL     1     -40.774  55.613 -54.177  1.00  0.00     0.012 A 
HETATM    7  C   UNL     1     -41.397  56.239 -55.263  1.00  0.00     0.037 A 
HETATM    8  C   UNL     1     -42.642  55.800 -55.703  1.00  0.00     0.068 A 
HETATM    9  C   UNL     1     -43.272  54.756 -55.026  1.00  0.00     0.037 A 
HETATM   10  C   UNL     1     -42.653  54.123 -53.944  1.00  0.00     0.012 A 
BRANCH   8  11
HETATM   11  O   UNL     1     -43.342  56.307 -56.759  1.00  0.00    -0.356 OA
HETATM   12  C   UNL     1     -43.134  55.676 -58.019  1.00  0.00     0.210 C 
ENDBRANCH   8  11
ENDBRANCH   4   5
BRANCH   4  13
HETATM   13  C   UNL     1     -40.267  52.408 -52.708  1.00  0.00    -0.023 A 
HETATM   14  C   UNL     1     -40.372  51.954 -54.036  1.00  0.00     0.009 A 
HETATM   15  C   UNL     1     -40.026  50.643 -54.370  1.00  0.00     0.001 A 
HETATM   16  C   UNL     1     -39.572  49.769 -53.386  1.00  0.00     0.000 A 
HETATM   17  C   UNL     1     -39.467  50.200 -52.067  1.00  0.00     0.001 A 
HETATM   18  C   UNL     1     -39.813  51.509 -51.726  1.00  0.00     0.009 A 
ENDBRANCH   4  13
ENDBRANCH   1   4
BRANCH   1  19
HETATM   19  C   UNL     1     -40.805  55.043 -50.128  1.00  0.00     0.336 C 
BRANCH  19  20
HETATM   20  C   UNL     1     -41.364  56.411 -50.515  1.00  0.00     0.248 C 
HETATM   21  N   UNL     1     -42.609  56.378 -51.109  1.00  0.00    -0.326 N 
HETATM   22  H   UNL     1     -43.049  55.480 -51.281  1.00  0.00     0.169 HD
HETATM   23  O   UNL     1     -40.730  57.401 -50.154  1.00  0.00    -0.271 OA
BRANCH  21  24
HETATM   24  C   UNL     1     -43.422  57.497 -51.402  1.00  0.00     0.034 A 
HETATM   25  C   UNL     1     -44.738  57.637 -50.973  1.00  0.00     0.032 A 
HETATM   26  C   UNL     1     -45.504  58.746 -51.364  1.00  0.00     0.032 A 
HETATM   27  C   UNL     1     -44.986  59.739 -52.201  1.00  0.00     0.037 A 
HETATM   28  C   UNL     1     -43.645  59.610 -52.589  1.00  0.00     0.032 A 
HETATM   29  C   UNL     1     -42.871  58.509 -52.190  1.00  0.00     0.032 A 
BRANCH  27  30
HETATM   30  N   UNL     1     -45.780  60.827 -52.660  1.00  0.00    -0.318 N 
HETATM   31  C   UNL     1     -46.011  61.178 -54.003  1.00  0.00     0.224 C 
HETATM   32  O   UNL     1     -45.656  60.607 -55.022  1.00  0.00    -0.273 OA
HETATM   33  C   UNL     1     -46.740  62.500 -54.018  1.00  0.00     0.105 C 
HETATM   34  C   UNL     1     -47.299  62.610 -52.615  1.00  0.00     0.029 C 
HETATM   35  C   UNL     1     -46.299  61.845 -51.774  1.00  0.00     0.133 C 
ENDBRANCH  27  30
ENDBRANCH  21  24
ENDBRANCH  19  20
ENDBRANCH   1  19
TORSDOF 8
ENDMDL
