MODEL 1
REMARK VINA RESULT:      -7.2      0.000      0.000
REMARK  5 active torsions:
REMARK  status: ('A' for Active; 'I' for Inactive)
REMARK    1  A    between atoms: C_8  and  O_9 
REMARK    2  A    between atoms: O_9  and  C_10 
REMARK    3  A    between atoms: C_17  and  C_18 
REMARK       I    between atoms: C_18  and  N_19 
REMARK    4  A    between atoms: N_19  and  C_20 
REMARK    5  A    between atoms: C_20  and  C_21 
ROOT
HETATM    1  C   UNL     1     -44.724  56.604 -54.043  1.00  0.00     0.051 C 
HETATM    2  C   UNL     1     -43.430  56.146 -53.417  1.00  0.00    -0.018 A 
HETATM    3  C   UNL     1     -43.064  56.541 -52.115  1.00  0.00     0.065 A 
HETATM    4 CL   UNL     1     -44.080  57.594 -51.186  1.00  0.00    -0.082 Cl
HETATM    5  C   UNL     1     -41.856  56.083 -51.572  1.00  0.00     0.056 A 
HETATM    6  C   UNL     1     -41.411  56.451 -50.184  1.00  0.00     0.072 C 
HETATM    7  N   UNL     1     -41.001  55.286 -52.261  1.00  0.00    -0.227 NA
HETATM    8  C   UNL     1     -41.329  54.959 -53.532  1.00  0.00     0.186 A 
HETATM    9  C   UNL     1     -42.522  55.342 -54.143  1.00  0.00     0.092 A 
ENDROOT
BRANCH   8  10
HETATM   10  O   UNL     1     -40.448  54.151 -54.239  1.00  0.00    -0.291 OA
BRANCH  10  11
HETATM   11  C   UNL     1     -40.262  52.878 -53.757  1.00  0.00     0.078 A 
HETATM   12  C   UNL     1     -40.431  51.815 -54.645  1.00  0.00     0.040 A 
HETATM   13  C   UNL     1     -40.201  50.509 -54.209  1.00  0.00     0.045 A 
HETATM   14  C   UNL     1     -39.790  50.287 -52.899  1.00  0.00     0.116 A 
HETATM   15  F   UNL     1     -39.566  49.033 -52.483  1.00  0.00    -0.206 F 
HETATM   16  C   UNL     1     -39.596  51.345 -52.015  1.00  0.00     0.045 A 
HETATM   17  C   UNL     1     -39.825  52.652 -52.448  1.00  0.00     0.040 A 
ENDBRANCH  10  11
ENDBRANCH   8  10
BRANCH   9  18
HETATM   18  C   UNL     1     -42.785  54.975 -55.556  1.00  0.00     0.256 C 
HETATM   19  N   UNL     1     -42.371  55.875 -56.514  1.00  0.00    -0.353 N 
HETATM   20  H   UNL     1     -42.142  56.817 -56.225  1.00  0.00     0.163 HD
HETATM   21  O   UNL     1     -43.339  53.912 -55.815  1.00  0.00    -0.267 OA
BRANCH  19  22
HETATM   22  C   UNL     1     -42.727  55.674 -57.896  1.00  0.00     0.149 C 
BRANCH  22  23
HETATM   23  C   UNL     1     -43.671  56.735 -58.379  1.00  0.00    -0.018 C 
HETATM   24  C   UNL     1     -44.323  57.658 -57.656  1.00  0.00     0.008 C 
ENDBRANCH  22  23
ENDBRANCH  19  22
ENDBRANCH   9  18
TORSDOF 5
ENDMDL
MODEL 2
REMARK VINA RESULT:      -7.1      2.631      4.893
REMARK  5 active torsions:
REMARK  status: ('A' for Active; 'I' for Inactive)
REMARK    1  A    between atoms: C_8  and  O_9 
REMARK    2  A    between atoms: O_9  and  C_10 
REMARK    3  A    between atoms: C_17  and  C_18 
REMARK       I    between atoms: C_18  and  N_19 
REMARK    4  A    between atoms: N_19  and  C_20 
REMARK    5  A    between atoms: C_20  and  C_21 
ROOT
HETATM    1  C   UNL     1     -41.959  59.391 -55.023  1.00  0.00     0.051 C 
HETATM    2  C   UNL     1     -42.352  57.966 -55.325  1.00  0.00    -0.018 A 
HETATM    3  C   UNL     1     -42.581  57.533 -56.646  1.00  0.00     0.065 A 
HETATM    4 CL   UNL     1     -42.446  58.631 -57.980  1.00  0.00    -0.082 Cl
HETATM    5  C   UNL     1     -42.934  56.196 -56.879  1.00  0.00     0.056 A 
HETATM    6  C   UNL     1     -43.177  55.662 -58.263  1.00  0.00     0.072 C 
HETATM    7  N   UNL     1     -43.091  55.296 -55.877  1.00  0.00    -0.227 NA
HETATM    8  C   UNL     1     -42.928  55.733 -54.606  1.00  0.00     0.186 A 
HETATM    9  C   UNL     1     -42.546  57.034 -54.281  1.00  0.00     0.092 A 
ENDROOT
BRANCH   8  10
HETATM   10  O   UNL     1     -43.098  54.813 -53.580  1.00  0.00    -0.291 OA
BRANCH  10  11
HETATM   11  C   UNL     1     -42.036  53.980 -53.321  1.00  0.00     0.078 A 
HETATM   12  C   UNL     1     -41.612  53.860 -51.996  1.00  0.00     0.040 A 
HETATM   13  C   UNL     1     -40.570  52.986 -51.683  1.00  0.00     0.045 A 
HETATM   14  C   UNL     1     -39.980  52.233 -52.692  1.00  0.00     0.116 A 
HETATM   15  F   UNL     1     -38.983  51.392 -52.389  1.00  0.00    -0.206 F 
HETATM   16  C   UNL     1     -40.415  52.330 -54.012  1.00  0.00     0.045 A 
HETATM   17  C   UNL     1     -41.456  53.203 -54.329  1.00  0.00     0.040 A 
ENDBRANCH  10  11
ENDBRANCH   8  10
BRANCH   9  18
HETATM   18  C   UNL     1     -42.430  57.441 -52.859  1.00  0.00     0.256 C 
HETATM   19  N   UNL     1     -41.176  57.352 -52.293  1.00  0.00    -0.353 N 
HETATM   20  H   UNL     1     -40.469  56.805 -52.767  1.00  0.00     0.163 HD
HETATM   21  O   UNL     1     -43.421  57.837 -52.257  1.00  0.00    -0.267 OA
BRANCH  19  22
HETATM   22  C   UNL     1     -41.004  57.576 -50.880  1.00  0.00     0.149 C 
BRANCH  22  23
HETATM   23  C   UNL     1     -40.555  58.978 -50.597  1.00  0.00    -0.018 C 
HETATM   24  C   UNL     1     -39.309  59.475 -50.634  1.00  0.00     0.008 C 
ENDBRANCH  22  23
ENDBRANCH  19  22
ENDBRANCH   9  18
TORSDOF 5
ENDMDL
MODEL 3
REMARK VINA RESULT:      -7.1      3.520      5.707
REMARK  5 active torsions:
REMARK  status: ('A' for Active; 'I' for Inactive)
REMARK    1  A    between atoms: C_8  and  O_9 
REMARK    2  A    between atoms: O_9  and  C_10 
REMARK    3  A    between atoms: C_17  and  C_18 
REMARK       I    between atoms: C_18  and  N_19 
REMARK    4  A    between atoms: N_19  and  C_20 
REMARK    5  A    between atoms: C_20  and  C_21 
ROOT
HETATM    1  C   UNL     1     -40.361  52.216 -53.308  1.00  0.00     0.051 C 
HETATM    2  C   UNL     1     -40.586  53.360 -52.352  1.00  0.00    -0.018 A 
HETATM    3  C   UNL     1     -40.544  53.170 -50.957  1.00  0.00     0.065 A 
HETATM    4 CL   UNL     1     -40.256  51.600 -50.280  1.00  0.00    -0.082 Cl
HETATM    5  C   UNL     1     -40.749  54.267 -50.107  1.00  0.00     0.056 A 
HETATM    6  C   UNL     1     -40.701  54.139 -48.610  1.00  0.00     0.072 C 
HETATM    7  N   UNL     1     -41.013  55.512 -50.573  1.00  0.00    -0.227 NA
HETATM    8  C   UNL     1     -41.111  55.677 -51.913  1.00  0.00     0.186 A 
HETATM    9  C   UNL     1     -40.892  54.654 -52.833  1.00  0.00     0.092 A 
ENDROOT
BRANCH   8  10
HETATM   10  O   UNL     1     -41.392  56.952 -52.388  1.00  0.00    -0.291 OA
BRANCH  10  11
HETATM   11  C   UNL     1     -42.545  57.537 -51.927  1.00  0.00     0.078 A 
HETATM   12  C   UNL     1     -42.469  58.854 -51.470  1.00  0.00     0.040 A 
HETATM   13  C   UNL     1     -43.627  59.504 -51.041  1.00  0.00     0.045 A 
HETATM   14  C   UNL     1     -44.846  58.836 -51.092  1.00  0.00     0.116 A 
HETATM   15  F   UNL     1     -45.958  59.462 -50.683  1.00  0.00    -0.206 F 
HETATM   16  C   UNL     1     -44.933  57.531 -51.570  1.00  0.00     0.045 A 
HETATM   17  C   UNL     1     -43.777  56.878 -51.999  1.00  0.00     0.040 A 
ENDBRANCH  10  11
ENDBRANCH   8  10
BRANCH   9  18
HETATM   18  C   UNL     1     -41.061  54.910 -54.285  1.00  0.00     0.256 C 
HETATM   19  N   UNL     1     -42.355  54.934 -54.759  1.00  0.00    -0.353 N 
HETATM   20  H   UNL     1     -43.090  54.548 -54.180  1.00  0.00     0.163 HD
HETATM   21  O   UNL     1     -40.075  55.093 -54.989  1.00  0.00    -0.267 OA
BRANCH  19  22
HETATM   22  C   UNL     1     -42.603  55.018 -56.177  1.00  0.00     0.149 C 
BRANCH  22  23
HETATM   23  C   UNL     1     -42.989  56.409 -56.584  1.00  0.00    -0.018 C 
HETATM   24  C   UNL     1     -43.413  57.415 -55.805  1.00  0.00     0.008 C 
ENDBRANCH  22  23
ENDBRANCH  19  22
ENDBRANCH   9  18
TORSDOF 5
ENDMDL
MODEL 4
REMARK VINA RESULT:      -7.0     14.246     15.943
REMARK  5 active torsions:
REMARK  status: ('A' for Active; 'I' for Inactive)
REMARK    1  A    between atoms: C_8  and  O_9 
REMARK    2  A    between atoms: O_9  and  C_10 
REMARK    3  A    between atoms: C_17  and  C_18 
REMARK       I    between atoms: C_18  and  N_19 
REMARK    4  A    between atoms: N_19  and  C_20 
REMARK    5  A    between atoms: C_20  and  C_21 
ROOT
HETATM    1  C   UNL     1     -33.959  40.006 -52.125  1.00  0.00     0.051 C 
HETATM    2  C   UNL     1     -33.959  40.368 -53.589  1.00  0.00    -0.018 A 
HETATM    3  C   UNL     1     -32.875  40.039 -54.427  1.00  0.00     0.065 A 
HETATM    4 CL   UNL     1     -31.480  39.224 -53.799  1.00  0.00    -0.082 Cl
HETATM    5  C   UNL     1     -32.925  40.388 -55.784  1.00  0.00     0.056 A 
HETATM    6  C   UNL     1     -31.812  40.054 -56.737  1.00  0.00     0.072 C 
HETATM    7  N   UNL     1     -33.971  41.057 -56.328  1.00  0.00    -0.227 NA
HETATM    8  C   UNL     1     -34.982  41.423 -55.506  1.00  0.00     0.186 A 
HETATM    9  C   UNL     1     -35.034  41.093 -54.153  1.00  0.00     0.092 A 
ENDROOT
BRANCH   8  10
HETATM   10  O   UNL     1     -36.049  42.118 -56.063  1.00  0.00    -0.291 OA
BRANCH  10  11
HETATM   11  C   UNL     1     -36.778  41.455 -57.020  1.00  0.00     0.078 A 
HETATM   12  C   UNL     1     -36.782  41.980 -58.314  1.00  0.00     0.040 A 
HETATM   13  C   UNL     1     -37.468  41.309 -59.328  1.00  0.00     0.045 A 
HETATM   14  C   UNL     1     -38.123  40.116 -59.039  1.00  0.00     0.116 A 
HETATM   15  F   UNL     1     -38.777  39.472 -60.014  1.00  0.00    -0.206 F 
HETATM   16  C   UNL     1     -38.101  39.575 -57.756  1.00  0.00     0.045 A 
HETATM   17  C   UNL     1     -37.417  40.243 -56.740  1.00  0.00     0.040 A 
ENDBRANCH  10  11
ENDBRANCH   8  10
BRANCH   9  18
HETATM   18  C   UNL     1     -36.160  41.570 -53.313  1.00  0.00     0.256 C 
HETATM   19  N   UNL     1     -37.224  40.708 -53.162  1.00  0.00    -0.353 N 
HETATM   20  H   UNL     1     -37.306  39.925 -53.799  1.00  0.00     0.163 HD
HETATM   21  O   UNL     1     -36.103  42.678 -52.793  1.00  0.00    -0.267 OA
BRANCH  19  22
HETATM   22  C   UNL     1     -38.424  41.150 -52.497  1.00  0.00     0.149 C 
BRANCH  22  23
HETATM   23  C   UNL     1     -39.543  41.366 -53.472  1.00  0.00    -0.018 C 
HETATM   24  C   UNL     1     -40.864  41.325 -53.244  1.00  0.00     0.008 C 
ENDBRANCH  22  23
ENDBRANCH  19  22
ENDBRANCH   9  18
TORSDOF 5
ENDMDL
MODEL 5
REMARK VINA RESULT:      -7.0      3.451      6.214
REMARK  5 active torsions:
REMARK  status: ('A' for Active; 'I' for Inactive)
REMARK    1  A    between atoms: C_8  and  O_9 
REMARK    2  A    between atoms: O_9  and  C_10 
REMARK    3  A    between atoms: C_17  and  C_18 
REMARK       I    between atoms: C_18  and  N_19 
REMARK    4  A    between atoms: N_19  and  C_20 
REMARK    5  A    between atoms: C_20  and  C_21 
ROOT
HETATM    1  C   UNL     1     -40.276  54.469 -50.192  1.00  0.00     0.051 C 
HETATM    2  C   UNL     1     -40.848  54.117 -51.542  1.00  0.00    -0.018 A 
HETATM    3  C   UNL     1     -40.375  53.009 -52.273  1.00  0.00     0.065 A 
HETATM    4 CL   UNL     1     -39.093  52.017 -51.657  1.00  0.00    -0.082 Cl
HETATM    5  C   UNL     1     -40.944  52.714 -53.520  1.00  0.00     0.056 A 
HETATM    6  C   UNL     1     -40.500  51.539 -54.345  1.00  0.00     0.072 C 
HETATM    7  N   UNL     1     -41.925  53.471 -54.073  1.00  0.00    -0.227 NA
HETATM    8  C   UNL     1     -42.333  54.568 -53.394  1.00  0.00     0.186 A 
HETATM    9  C   UNL     1     -41.848  54.921 -52.136  1.00  0.00     0.092 A 
ENDROOT
BRANCH   8  10
HETATM   10  O   UNL     1     -43.330  55.347 -53.966  1.00  0.00    -0.291 OA
BRANCH  10  11
HETATM   11  C   UNL     1     -43.021  55.962 -55.154  1.00  0.00     0.078 A 
HETATM   12  C   UNL     1     -43.148  55.213 -56.326  1.00  0.00     0.040 A 
HETATM   13  C   UNL     1     -42.893  55.815 -57.559  1.00  0.00     0.045 A 
HETATM   14  C   UNL     1     -42.535  57.158 -57.606  1.00  0.00     0.116 A 
HETATM   15  F   UNL     1     -42.294  57.735 -58.791  1.00  0.00    -0.206 F 
HETATM   16  C   UNL     1     -42.431  57.917 -56.443  1.00  0.00     0.045 A 
HETATM   17  C   UNL     1     -42.684  57.319 -55.208  1.00  0.00     0.040 A 
ENDBRANCH  10  11
ENDBRANCH   8  10
BRANCH   9  18
HETATM   18  C   UNL     1     -42.320  56.164 -51.478  1.00  0.00     0.256 C 
HETATM   19  N   UNL     1     -41.704  57.336 -51.862  1.00  0.00    -0.353 N 
HETATM   20  H   UNL     1     -40.828  57.279 -52.366  1.00  0.00     0.163 HD
HETATM   21  O   UNL     1     -43.219  56.109 -50.647  1.00  0.00    -0.267 OA
BRANCH  19  22
HETATM   22  C   UNL     1     -41.988  58.564 -51.163  1.00  0.00     0.149 C 
BRANCH  22  23
HETATM   23  C   UNL     1     -40.853  58.960 -50.266  1.00  0.00    -0.018 C 
HETATM   24  C   UNL     1     -39.657  59.459 -50.611  1.00  0.00     0.008 C 
ENDBRANCH  22  23
ENDBRANCH  19  22
ENDBRANCH   9  18
TORSDOF 5
ENDMDL
MODEL 6
REMARK VINA RESULT:      -6.9      3.501      5.481
REMARK  5 active torsions:
REMARK  status: ('A' for Active; 'I' for Inactive)
REMARK    1  A    between atoms: C_8  and  O_9 
REMARK    2  A    between atoms: O_9  and  C_10 
REMARK    3  A    between atoms: C_17  and  C_18 
REMARK       I    between atoms: C_18  and  N_19 
REMARK    4  A    between atoms: N_19  and  C_20 
REMARK    5  A    between atoms: C_20  and  C_21 
ROOT
HETATM    1  C   UNL     1     -40.314  52.436 -54.626  1.00  0.00     0.051 C 
HETATM    2  C   UNL     1     -40.877  53.222 -53.469  1.00  0.00    -0.018 A 
HETATM    3  C   UNL     1     -40.466  52.974 -52.144  1.00  0.00     0.065 A 
HETATM    4 CL   UNL     1     -39.309  51.733 -51.788  1.00  0.00    -0.082 Cl
HETATM    5  C   UNL     1     -41.010  53.738 -51.101  1.00  0.00     0.056 A 
HETATM    6  C   UNL     1     -40.604  53.538 -49.668  1.00  0.00     0.072 C 
HETATM    7  N   UNL     1     -41.944  54.699 -51.309  1.00  0.00    -0.227 NA
HETATM    8  C   UNL     1     -42.379  54.891 -52.577  1.00  0.00     0.186 A 
HETATM    9  C   UNL     1     -41.874  54.202 -53.678  1.00  0.00     0.092 A 
ENDROOT
BRANCH   8  10
HETATM   10  O   UNL     1     -43.343  55.868 -52.787  1.00  0.00    -0.291 OA
BRANCH  10  11
HETATM   11  C   UNL     1     -43.003  57.150 -52.429  1.00  0.00     0.078 A 
HETATM   12  C   UNL     1     -43.874  57.842 -51.584  1.00  0.00     0.040 A 
HETATM   13  C   UNL     1     -43.541  59.127 -51.155  1.00  0.00     0.045 A 
HETATM   14  C   UNL     1     -42.338  59.695 -51.559  1.00  0.00     0.116 A 
HETATM   15  F   UNL     1     -42.019  60.928 -51.143  1.00  0.00    -0.206 F 
HETATM   16  C   UNL     1     -41.454  59.001 -52.382  1.00  0.00     0.045 A 
HETATM   17  C   UNL     1     -41.784  57.716 -52.813  1.00  0.00     0.040 A 
ENDBRANCH  10  11
ENDBRANCH   8  10
BRANCH   9  18
HETATM   18  C   UNL     1     -42.437  54.445 -55.029  1.00  0.00     0.256 C 
HETATM   19  N   UNL     1     -41.904  55.499 -55.739  1.00  0.00    -0.353 N 
HETATM   20  H   UNL     1     -41.353  56.188 -55.241  1.00  0.00     0.163 HD
HETATM   21  O   UNL     1     -43.325  53.717 -55.457  1.00  0.00    -0.267 OA
BRANCH  19  22
HETATM   22  C   UNL     1     -42.498  55.903 -56.988  1.00  0.00     0.149 C 
BRANCH  22  23
HETATM   23  C   UNL     1     -43.125  57.261 -56.884  1.00  0.00    -0.018 C 
HETATM   24  C   UNL     1     -43.974  57.715 -55.950  1.00  0.00     0.008 C 
ENDBRANCH  22  23
ENDBRANCH  19  22
ENDBRANCH   9  18
TORSDOF 5
ENDMDL
MODEL 7
REMARK VINA RESULT:      -6.8      3.068      5.368
REMARK  5 active torsions:
REMARK  status: ('A' for Active; 'I' for Inactive)
REMARK    1  A    between atoms: C_8  and  O_9 
REMARK    2  A    between atoms: O_9  and  C_10 
REMARK    3  A    between atoms: C_17  and  C_18 
REMARK       I    between atoms: C_18  and  N_19 
REMARK    4  A    between atoms: N_19  and  C_20 
REMARK    5  A    between atoms: C_20  and  C_21 
ROOT
HETATM    1  C   UNL     1     -42.001  60.271 -57.261  1.00  0.00     0.051 C 
HETATM    2  C   UNL     1     -42.352  58.804 -57.263  1.00  0.00    -0.018 A 
HETATM    3  C   UNL     1     -42.573  58.104 -58.466  1.00  0.00     0.065 A 
HETATM    4 CL   UNL     1     -42.476  58.911 -59.997  1.00  0.00    -0.082 Cl
HETATM    5  C   UNL     1     -42.887  56.738 -58.418  1.00  0.00     0.056 A 
HETATM    6  C   UNL     1     -43.119  55.927 -59.662  1.00  0.00     0.072 C 
HETATM    7  N   UNL     1     -43.013  56.057 -57.252  1.00  0.00    -0.227 NA
HETATM    8  C   UNL     1     -42.859  56.749 -56.099  1.00  0.00     0.186 A 
HETATM    9  C   UNL     1     -42.515  58.098 -56.049  1.00  0.00     0.092 A 
ENDROOT
BRANCH   8  10
HETATM   10  O   UNL     1     -42.997  56.052 -54.905  1.00  0.00    -0.291 OA
BRANCH  10  11
HETATM   11  C   UNL     1     -42.075  55.063 -54.662  1.00  0.00     0.078 A 
HETATM   12  C   UNL     1     -42.506  53.927 -53.974  1.00  0.00     0.040 A 
HETATM   13  C   UNL     1     -41.614  52.877 -53.752  1.00  0.00     0.045 A 
HETATM   14  C   UNL     1     -40.313  52.969 -54.235  1.00  0.00     0.116 A 
HETATM   15  F   UNL     1     -39.459  51.958 -54.023  1.00  0.00    -0.206 F 
HETATM   16  C   UNL     1     -39.885  54.089 -54.943  1.00  0.00     0.045 A 
HETATM   17  C   UNL     1     -40.773  55.141 -55.166  1.00  0.00     0.040 A 
ENDBRANCH  10  11
ENDBRANCH   8  10
BRANCH   9  18
HETATM   18  C   UNL     1     -42.406  58.790 -54.741  1.00  0.00     0.256 C 
HETATM   19  N   UNL     1     -41.235  58.601 -54.040  1.00  0.00    -0.353 N 
HETATM   20  H   UNL     1     -40.627  57.838 -54.310  1.00  0.00     0.163 HD
HETATM   21  O   UNL     1     -43.330  59.490 -54.345  1.00  0.00    -0.267 OA
BRANCH  19  22
HETATM   22  C   UNL     1     -41.109  59.104 -52.695  1.00  0.00     0.149 C 
BRANCH  22  23
HETATM   23  C   UNL     1     -41.534  58.081 -51.685  1.00  0.00    -0.018 C 
HETATM   24  C   UNL     1     -41.285  56.763 -51.682  1.00  0.00     0.008 C 
ENDBRANCH  22  23
ENDBRANCH  19  22
ENDBRANCH   9  18
TORSDOF 5
ENDMDL
MODEL 8
REMARK VINA RESULT:      -6.6      3.708      6.609
REMARK  5 active torsions:
REMARK  status: ('A' for Active; 'I' for Inactive)
REMARK    1  A    between atoms: C_8  and  O_9 
REMARK    2  A    between atoms: O_9  and  C_10 
REMARK    3  A    between atoms: C_17  and  C_18 
REMARK       I    between atoms: C_18  and  N_19 
REMARK    4  A    between atoms: N_19  and  C_20 
REMARK    5  A    between atoms: C_20  and  C_21 
ROOT
HETATM    1  C   UNL     1     -42.775  53.865 -55.233  1.00  0.00     0.051 C 
HETATM    2  C   UNL     1     -43.021  55.279 -54.770  1.00  0.00    -0.018 A 
HETATM    3  C   UNL     1     -43.216  56.329 -55.690  1.00  0.00     0.065 A 
HETATM    4 CL   UNL     1     -43.155  56.039 -57.398  1.00  0.00    -0.082 Cl
HETATM    5  C   UNL     1     -43.451  57.626 -55.212  1.00  0.00     0.056 A 
HETATM    6  C   UNL     1     -43.683  58.789 -56.136  1.00  0.00     0.072 C 
HETATM    7  N   UNL     1     -43.475  57.925 -53.890  1.00  0.00    -0.227 NA
HETATM    8  C   UNL     1     -43.228  56.924 -53.013  1.00  0.00     0.186 A 
HETATM    9  C   UNL     1     -43.016  55.600 -53.393  1.00  0.00     0.092 A 
ENDROOT
BRANCH   8  10
HETATM   10  O   UNL     1     -43.244  57.233 -51.659  1.00  0.00    -0.291 OA
BRANCH  10  11
HETATM   11  C   UNL     1     -42.250  58.068 -51.210  1.00  0.00     0.078 A 
HETATM   12  C   UNL     1     -40.942  57.578 -51.201  1.00  0.00     0.040 A 
HETATM   13  C   UNL     1     -39.896  58.411 -50.801  1.00  0.00     0.045 A 
HETATM   14  C   UNL     1     -40.168  59.724 -50.434  1.00  0.00     0.116 A 
HETATM   15  F   UNL     1     -39.162  60.523 -50.054  1.00  0.00    -0.206 F 
HETATM   16  C   UNL     1     -41.467  60.227 -50.464  1.00  0.00     0.045 A 
HETATM   17  C   UNL     1     -42.515  59.397 -50.862  1.00  0.00     0.040 A 
ENDBRANCH  10  11
ENDBRANCH   8  10
BRANCH   9  18
HETATM   18  C   UNL     1     -42.710  54.571 -52.369  1.00  0.00     0.256 C 
HETATM   19  N   UNL     1     -41.384  54.422 -52.023  1.00  0.00    -0.353 N 
HETATM   20  H   UNL     1     -40.678  54.821 -52.629  1.00  0.00     0.163 HD
HETATM   21  O   UNL     1     -43.620  53.916 -51.876  1.00  0.00    -0.267 OA
BRANCH  19  22
HETATM   22  C   UNL     1     -40.981  53.342 -51.157  1.00  0.00     0.149 C 
BRANCH  22  23
HETATM   23  C   UNL     1     -40.349  53.857 -49.898  1.00  0.00    -0.018 C 
HETATM   24  C   UNL     1     -40.915  54.578 -48.919  1.00  0.00     0.008 C 
ENDBRANCH  22  23
ENDBRANCH  19  22
ENDBRANCH   9  18
TORSDOF 5
ENDMDL
MODEL 9
REMARK VINA RESULT:      -6.5     14.471     17.054
REMARK  5 active torsions:
REMARK  status: ('A' for Active; 'I' for Inactive)
REMARK    1  A    between atoms: C_8  and  O_9 
REMARK    2  A    between atoms: O_9  and  C_10 
REMARK    3  A    between atoms: C_17  and  C_18 
REMARK       I    between atoms: C_18  and  N_19 
REMARK    4  A    between atoms: N_19  and  C_20 
REMARK    5  A    between atoms: C_20  and  C_21 
ROOT
HETATM    1  C   UNL     1     -31.957  39.484 -53.042  1.00  0.00     0.051 C 
HETATM    2  C   UNL     1     -33.113  40.232 -53.657  1.00  0.00    -0.018 A 
HETATM    3  C   UNL     1     -34.176  40.718 -52.870  1.00  0.00     0.065 A 
HETATM    4 CL   UNL     1     -34.210  40.451 -51.158  1.00  0.00    -0.082 Cl
HETATM    5  C   UNL     1     -35.224  41.416 -53.486  1.00  0.00     0.056 A 
HETATM    6  C   UNL     1     -36.380  41.976 -52.706  1.00  0.00     0.072 C 
HETATM    7  N   UNL     1     -35.274  41.627 -54.825  1.00  0.00    -0.227 NA
HETATM    8  C   UNL     1     -34.280  41.107 -55.583  1.00  0.00     0.186 A 
HETATM    9  C   UNL     1     -33.184  40.427 -55.056  1.00  0.00     0.092 A 
ENDROOT
BRANCH   8  10
HETATM   10  O   UNL     1     -34.338  41.315 -56.955  1.00  0.00    -0.291 OA
BRANCH  10  11
HETATM   11  C   UNL     1     -35.491  40.917 -57.587  1.00  0.00     0.078 A 
HETATM   12  C   UNL     1     -35.818  39.560 -57.550  1.00  0.00     0.040 A 
HETATM   13  C   UNL     1     -37.006  39.122 -58.135  1.00  0.00     0.045 A 
HETATM   14  C   UNL     1     -37.858  40.045 -58.732  1.00  0.00     0.116 A 
HETATM   15  F   UNL     1     -39.000  39.622 -59.291  1.00  0.00    -0.206 F 
HETATM   16  C   UNL     1     -37.549  41.403 -58.751  1.00  0.00     0.045 A 
HETATM   17  C   UNL     1     -36.362  41.845 -58.168  1.00  0.00     0.040 A 
ENDBRANCH  10  11
ENDBRANCH   8  10
BRANCH   9  18
HETATM   18  C   UNL     1     -32.160  39.851 -55.962  1.00  0.00     0.256 C 
HETATM   19  N   UNL     1     -32.462  38.638 -56.541  1.00  0.00    -0.353 N 
HETATM   20  H   UNL     1     -33.221  38.092 -56.153  1.00  0.00     0.163 HD
HETATM   21  O   UNL     1     -31.116  40.460 -56.163  1.00  0.00    -0.267 OA
BRANCH  19  22
HETATM   22  C   UNL     1     -31.463  37.934 -57.305  1.00  0.00     0.149 C 
BRANCH  22  23
HETATM   23  C   UNL     1     -32.013  37.455 -58.616  1.00  0.00    -0.018 C 
HETATM   24  C   UNL     1     -33.296  37.372 -58.998  1.00  0.00     0.008 C 
ENDBRANCH  22  23
ENDBRANCH  19  22
ENDBRANCH   9  18
TORSDOF 5
ENDMDL
MODEL 10
REMARK VINA RESULT:      -6.4      3.722      6.773
REMARK  5 active torsions:
REMARK  status: ('A' for Active; 'I' for Inactive)
REMARK    1  A    between atoms: C_8  and  O_9 
REMARK    2  A    between atoms: O_9  and  C_10 
REMARK    3  A    between atoms: C_17  and  C_18 
REMARK       I    between atoms: C_18  and  N_19 
REMARK    4  A    between atoms: N_19  and  C_20 
REMARK    5  A    between atoms: C_20  and  C_21 
ROOT
HETATM    1  C   UNL     1     -41.153  55.048 -49.874  1.00  0.00     0.051 C 
HETATM    2  C   UNL     1     -41.088  55.066 -51.380  1.00  0.00    -0.018 A 
HETATM    3  C   UNL     1     -40.804  53.899 -52.117  1.00  0.00     0.065 A 
HETATM    4 CL   UNL     1     -40.490  52.394 -51.315  1.00  0.00    -0.082 Cl
HETATM    5  C   UNL     1     -40.765  53.962 -53.517  1.00  0.00     0.056 A 
HETATM    6  C   UNL     1     -40.484  52.753 -54.365  1.00  0.00     0.072 C 
HETATM    7  N   UNL     1     -40.966  55.114 -54.202  1.00  0.00    -0.227 NA
HETATM    8  C   UNL     1     -41.180  56.244 -53.488  1.00  0.00     0.186 A 
HETATM    9  C   UNL     1     -41.267  56.271 -52.097  1.00  0.00     0.092 A 
ENDROOT
BRANCH   8  10
HETATM   10  O   UNL     1     -41.376  57.425 -54.191  1.00  0.00    -0.291 OA
BRANCH  10  11
HETATM   11  C   UNL     1     -42.524  57.508 -54.941  1.00  0.00     0.078 A 
HETATM   12  C   UNL     1     -43.727  57.728 -54.267  1.00  0.00     0.040 A 
HETATM   13  C   UNL     1     -44.909  57.870 -54.996  1.00  0.00     0.045 A 
HETATM   14  C   UNL     1     -44.870  57.807 -56.385  1.00  0.00     0.116 A 
HETATM   15  F   UNL     1     -46.005  57.947 -57.083  1.00  0.00    -0.206 F 
HETATM   16  C   UNL     1     -43.670  57.612 -57.064  1.00  0.00     0.045 A 
HETATM   17  C   UNL     1     -42.486  57.470 -56.339  1.00  0.00     0.040 A 
ENDBRANCH  10  11
ENDBRANCH   8  10
BRANCH   9  18
HETATM   18  C   UNL     1     -41.462  57.560 -51.389  1.00  0.00     0.256 C 
HETATM   19  N   UNL     1     -40.345  58.351 -51.230  1.00  0.00    -0.353 N 
HETATM   20  H   UNL     1     -39.433  57.934 -51.371  1.00  0.00     0.163 HD
HETATM   21  O   UNL     1     -42.578  57.871 -50.989  1.00  0.00    -0.267 OA
BRANCH  19  22
HETATM   22  C   UNL     1     -40.411  59.541 -50.419  1.00  0.00     0.149 C 
BRANCH  22  23
HETATM   23  C   UNL     1     -39.041  60.042 -50.069  1.00  0.00    -0.018 C 
HETATM   24  C   UNL     1     -37.857  59.457 -50.304  1.00  0.00     0.008 C 
ENDBRANCH  22  23
ENDBRANCH  19  22
ENDBRANCH   9  18
TORSDOF 5
ENDMDL
