MODEL 1
REMARK VINA RESULT:      -9.9      0.000      0.000
REMARK  8 active torsions:
REMARK  status: ('A' for Active; 'I' for Inactive)
REMARK    1  A    between atoms: C_4  and  C_5 
REMARK    2  A    between atoms: C_5  and  N_6 
REMARK    3  A    between atoms: C_5  and  C_36 
REMARK    4  A    between atoms: N_10  and  C_11 
REMARK    5  A    between atoms: C_13  and  C_14 
REMARK       I    between atoms: C_14  and  N_15 
REMARK    6  A    between atoms: N_15  and  C_16 
REMARK    7  A    between atoms: C_19  and  O_20 
REMARK    8  A    between atoms: O_20  and  C_21 
ROOT
HETATM    1  C   UNL     1     -44.318  60.149 -52.765  1.00  0.00     0.181 C 
HETATM    2  N   UNL     1     -43.036  60.316 -52.355  1.00  0.00    -0.249 NA
HETATM    3  C   UNL     1     -42.709  60.428 -50.931  1.00  0.00     0.164 C 
HETATM    4  C   UNL     1     -43.915  60.614 -50.051  1.00  0.00     0.134 C 
HETATM    5  C   UNL     1     -45.114  59.924 -50.635  1.00  0.00     0.247 C 
HETATM    6  O   UNL     1     -45.925  59.382 -49.889  1.00  0.00    -0.271 OA
HETATM    7  N   UNL     1     -45.336  60.041 -51.982  1.00  0.00    -0.185 NA
HETATM    8  H   UNL     1     -42.450  59.581 -52.764  1.00  0.00     0.131 HD
ENDROOT
BRANCH   1   9
HETATM    9  N   UNL     1     -44.452  60.117 -54.140  1.00  0.00    -0.353 N 
HETATM   10  C   UNL     1     -45.389  59.228 -54.847  1.00  0.00     0.153 C 
HETATM   11  C   UNL     1     -44.651  57.957 -55.303  1.00  0.00     0.256 C 
HETATM   12  N   UNL     1     -43.471  58.349 -56.195  1.00  0.00    -0.056 N 
HETATM   13  H   UNL     1     -43.864  58.917 -56.950  1.00  0.00     0.281 HD
HETATM   14  C   UNL     1     -42.522  59.299 -55.453  1.00  0.00     0.256 C 
HETATM   15  C   UNL     1     -43.312  60.543 -54.984  1.00  0.00     0.153 C 
BRANCH  12  16
HETATM   16  C   UNL     1     -42.844  57.153 -56.913  1.00  0.00     0.254 C 
BRANCH  16  17
HETATM   17  C   UNL     1     -43.565  56.729 -58.189  1.00  0.00    -0.023 A 
HETATM   18  C   UNL     1     -44.804  57.323 -58.506  1.00  0.00     0.009 A 
HETATM   19  C   UNL     1     -45.513  56.948 -59.648  1.00  0.00     0.001 A 
HETATM   20  C   UNL     1     -44.999  55.976 -60.499  1.00  0.00     0.000 A 
HETATM   21  C   UNL     1     -43.772  55.384 -60.213  1.00  0.00     0.001 A 
HETATM   22  C   UNL     1     -43.060  55.757 -59.070  1.00  0.00     0.009 A 
ENDBRANCH  16  17
BRANCH  16  23
HETATM   23  C   UNL     1     -42.386  56.054 -55.953  1.00  0.00    -0.023 A 
HETATM   24  C   UNL     1     -41.292  56.190 -55.083  1.00  0.00     0.009 A 
HETATM   25  C   UNL     1     -40.936  55.160 -54.207  1.00  0.00     0.001 A 
HETATM   26  C   UNL     1     -41.663  53.975 -54.181  1.00  0.00     0.000 A 
HETATM   27  C   UNL     1     -42.757  53.819 -55.023  1.00  0.00     0.001 A 
HETATM   28  C   UNL     1     -43.120  54.848 -55.897  1.00  0.00     0.009 A 
ENDBRANCH  16  23
ENDBRANCH  12  16
ENDBRANCH   1   9
BRANCH   3  29
HETATM   29  C   UNL     1     -41.834  59.228 -50.520  1.00  0.00     0.240 C 
HETATM   30  N   UNL     1     -42.117  58.065 -51.221  1.00  0.00    -0.326 N 
HETATM   31  H   UNL     1     -42.814  58.111 -51.954  1.00  0.00     0.169 HD
HETATM   32  O   UNL     1     -41.073  59.336 -49.559  1.00  0.00    -0.271 OA
BRANCH  30  33
HETATM   33  C   UNL     1     -41.695  56.760 -50.881  1.00  0.00     0.034 A 
HETATM   34  C   UNL     1     -42.648  55.735 -50.969  1.00  0.00     0.032 A 
HETATM   35  C   UNL     1     -42.337  54.432 -50.563  1.00  0.00     0.039 A 
HETATM   36  C   UNL     1     -41.052  54.135 -50.109  1.00  0.00     0.076 A 
HETATM   37  C   UNL     1     -40.096  55.145 -50.034  1.00  0.00     0.039 A 
HETATM   38  C   UNL     1     -40.413  56.451 -50.423  1.00  0.00     0.032 A 
BRANCH  36  39
HETATM   39  O   UNL     1     -40.673  52.905 -49.624  1.00  0.00    -0.311 OA
BRANCH  39  40
HETATM   40  C   UNL     1     -40.310  51.918 -50.510  1.00  0.00     0.076 A 
HETATM   41  C   UNL     1     -39.859  52.169 -51.808  1.00  0.00     0.037 A 
HETATM   42  C   UNL     1     -39.461  51.108 -52.622  1.00  0.00     0.003 A 
HETATM   43  C   UNL     1     -39.487  49.801 -52.132  1.00  0.00     0.000 A 
HETATM   44  C   UNL     1     -39.906  49.554 -50.825  1.00  0.00     0.003 A 
HETATM   45  C   UNL     1     -40.313  50.613 -50.013  1.00  0.00     0.037 A 
ENDBRANCH  39  40
ENDBRANCH  36  39
ENDBRANCH  30  33
ENDBRANCH   3  29
TORSDOF 8
ENDMDL
MODEL 2
REMARK VINA RESULT:      -9.8      2.576      6.652
REMARK  8 active torsions:
REMARK  status: ('A' for Active; 'I' for Inactive)
REMARK    1  A    between atoms: C_4  and  C_5 
REMARK    2  A    between atoms: C_5  and  N_6 
REMARK    3  A    between atoms: C_5  and  C_36 
REMARK    4  A    between atoms: N_10  and  C_11 
REMARK    5  A    between atoms: C_13  and  C_14 
REMARK       I    between atoms: C_14  and  N_15 
REMARK    6  A    between atoms: N_15  and  C_16 
REMARK    7  A    between atoms: C_19  and  O_20 
REMARK    8  A    between atoms: O_20  and  C_21 
ROOT
HETATM    1  C   UNL     1     -43.851  60.503 -56.257  1.00  0.00     0.181 C 
HETATM    2  N   UNL     1     -44.486  59.327 -56.491  1.00  0.00    -0.249 NA
HETATM    3  C   UNL     1     -44.063  58.446 -57.582  1.00  0.00     0.164 C 
HETATM    4  C   UNL     1     -43.091  59.091 -58.532  1.00  0.00     0.134 C 
HETATM    5  C   UNL     1     -42.232  60.093 -57.818  1.00  0.00     0.247 C 
HETATM    6  O   UNL     1     -41.054  60.223 -58.139  1.00  0.00    -0.271 OA
HETATM    7  N   UNL     1     -42.832  60.935 -56.918  1.00  0.00    -0.185 NA
HETATM    8  H   UNL     1     -44.514  58.778 -55.625  1.00  0.00     0.131 HD
ENDROOT
BRANCH   1   9
HETATM    9  N   UNL     1     -44.412  61.232 -55.227  1.00  0.00    -0.353 N 
HETATM   10  C   UNL     1     -43.668  62.219 -54.427  1.00  0.00     0.153 C 
HETATM   11  C   UNL     1     -43.163  61.558 -53.132  1.00  0.00     0.256 C 
HETATM   12  N   UNL     1     -44.352  60.991 -52.354  1.00  0.00    -0.056 N 
HETATM   13  H   UNL     1     -44.999  61.773 -52.220  1.00  0.00     0.281 HD
HETATM   14  C   UNL     1     -45.133  59.989 -53.214  1.00  0.00     0.256 C 
HETATM   15  C   UNL     1     -45.591  60.685 -54.518  1.00  0.00     0.153 C 
BRANCH  12  16
HETATM   16  C   UNL     1     -43.984  60.559 -50.934  1.00  0.00     0.254 C 
BRANCH  16  17
HETATM   17  C   UNL     1     -44.179  61.637 -49.872  1.00  0.00    -0.023 A 
HETATM   18  C   UNL     1     -44.753  61.285 -48.634  1.00  0.00     0.009 A 
HETATM   19  C   UNL     1     -44.974  62.243 -47.643  1.00  0.00     0.001 A 
HETATM   20  C   UNL     1     -44.625  63.570 -47.866  1.00  0.00     0.000 A 
HETATM   21  C   UNL     1     -44.046  63.939 -49.077  1.00  0.00     0.001 A 
HETATM   22  C   UNL     1     -43.824  62.983 -50.071  1.00  0.00     0.009 A 
ENDBRANCH  16  17
BRANCH  16  23
HETATM   23  C   UNL     1     -42.705  59.723 -50.878  1.00  0.00    -0.023 A 
HETATM   24  C   UNL     1     -41.492  60.194 -50.350  1.00  0.00     0.009 A 
HETATM   25  C   UNL     1     -40.361  59.374 -50.302  1.00  0.00     0.001 A 
HETATM   26  C   UNL     1     -40.416  58.069 -50.779  1.00  0.00     0.000 A 
HETATM   27  C   UNL     1     -41.607  57.574 -51.297  1.00  0.00     0.001 A 
HETATM   28  C   UNL     1     -42.741  58.389 -51.342  1.00  0.00     0.009 A 
ENDBRANCH  16  23
ENDBRANCH  12  16
ENDBRANCH   1   9
BRANCH   3  29
HETATM   29  C   UNL     1     -43.547  57.121 -56.988  1.00  0.00     0.240 C 
HETATM   30  N   UNL     1     -43.273  57.189 -55.630  1.00  0.00    -0.326 N 
HETATM   31  H   UNL     1     -43.476  58.055 -55.147  1.00  0.00     0.169 HD
HETATM   32  O   UNL     1     -43.299  56.178 -57.739  1.00  0.00    -0.271 OA
BRANCH  30  33
HETATM   33  C   UNL     1     -42.534  56.246 -54.878  1.00  0.00     0.034 A 
HETATM   34  C   UNL     1     -43.257  55.398 -54.027  1.00  0.00     0.032 A 
HETATM   35  C   UNL     1     -42.594  54.502 -53.180  1.00  0.00     0.039 A 
HETATM   36  C   UNL     1     -41.203  54.413 -53.215  1.00  0.00     0.076 A 
HETATM   37  C   UNL     1     -40.481  55.242 -54.070  1.00  0.00     0.039 A 
HETATM   38  C   UNL     1     -41.142  56.151 -54.902  1.00  0.00     0.032 A 
BRANCH  36  39
HETATM   39  O   UNL     1     -40.462  53.616 -52.375  1.00  0.00    -0.311 OA
BRANCH  39  40
HETATM   40  C   UNL     1     -40.246  52.301 -52.716  1.00  0.00     0.076 A 
HETATM   41  C   UNL     1     -40.359  51.810 -54.019  1.00  0.00     0.037 A 
HETATM   42  C   UNL     1     -40.070  50.471 -54.283  1.00  0.00     0.003 A 
HETATM   43  C   UNL     1     -39.642  49.630 -53.254  1.00  0.00     0.000 A 
HETATM   44  C   UNL     1     -39.498  50.129 -51.960  1.00  0.00     0.003 A 
HETATM   45  C   UNL     1     -39.795  51.466 -51.692  1.00  0.00     0.037 A 
ENDBRANCH  39  40
ENDBRANCH  36  39
ENDBRANCH  30  33
ENDBRANCH   3  29
TORSDOF 8
ENDMDL
MODEL 3
REMARK VINA RESULT:      -9.7      0.848      2.935
REMARK  8 active torsions:
REMARK  status: ('A' for Active; 'I' for Inactive)
REMARK    1  A    between atoms: C_4  and  C_5 
REMARK    2  A    between atoms: C_5  and  N_6 
REMARK    3  A    between atoms: C_5  and  C_36 
REMARK    4  A    between atoms: N_10  and  C_11 
REMARK    5  A    between atoms: C_13  and  C_14 
REMARK       I    between atoms: C_14  and  N_15 
REMARK    6  A    between atoms: N_15  and  C_16 
REMARK    7  A    between atoms: C_19  and  O_20 
REMARK    8  A    between atoms: O_20  and  C_21 
ROOT
HETATM    1  C   UNL     1     -44.086  60.430 -52.351  1.00  0.00     0.181 C 
HETATM    2  N   UNL     1     -42.793  60.511 -51.948  1.00  0.00    -0.249 NA
HETATM    3  C   UNL     1     -42.451  60.628 -50.529  1.00  0.00     0.164 C 
HETATM    4  C   UNL     1     -43.636  60.919 -49.648  1.00  0.00     0.134 C 
HETATM    5  C   UNL     1     -44.885  60.306 -50.213  1.00  0.00     0.247 C 
HETATM    6  O   UNL     1     -45.730  59.839 -49.454  1.00  0.00    -0.271 OA
HETATM    7  N   UNL     1     -45.105  60.412 -51.562  1.00  0.00    -0.185 NA
HETATM    8  H   UNL     1     -42.263  59.728 -52.345  1.00  0.00     0.131 HD
ENDROOT
BRANCH   1   9
HETATM    9  N   UNL     1     -44.229  60.381 -53.724  1.00  0.00    -0.353 N 
HETATM   10  C   UNL     1     -45.402  59.803 -54.401  1.00  0.00     0.153 C 
HETATM   11  C   UNL     1     -45.106  58.345 -54.794  1.00  0.00     0.256 C 
HETATM   12  N   UNL     1     -43.866  58.302 -55.690  1.00  0.00    -0.056 N 
HETATM   13  H   UNL     1     -44.062  58.931 -56.472  1.00  0.00     0.281 HD
HETATM   14  C   UNL     1     -42.662  58.936 -54.980  1.00  0.00     0.256 C 
HETATM   15  C   UNL     1     -43.016  60.386 -54.574  1.00  0.00     0.153 C 
BRANCH  12  16
HETATM   16  C   UNL     1     -43.653  56.938 -56.348  1.00  0.00     0.254 C 
BRANCH  16  17
HETATM   17  C   UNL     1     -42.962  55.907 -55.461  1.00  0.00    -0.023 A 
HETATM   18  C   UNL     1     -41.604  55.605 -55.691  1.00  0.00     0.009 A 
HETATM   19  C   UNL     1     -40.938  54.649 -54.922  1.00  0.00     0.001 A 
HETATM   20  C   UNL     1     -41.611  53.978 -53.908  1.00  0.00     0.000 A 
HETATM   21  C   UNL     1     -42.950  54.267 -53.656  1.00  0.00     0.001 A 
HETATM   22  C   UNL     1     -43.619  55.224 -54.424  1.00  0.00     0.009 A 
ENDBRANCH  16  17
BRANCH  16  23
HETATM   23  C   UNL     1     -43.203  57.045 -57.805  1.00  0.00    -0.023 A 
HETATM   24  C   UNL     1     -42.301  58.016 -58.271  1.00  0.00     0.009 A 
HETATM   25  C   UNL     1     -41.906  58.048 -59.611  1.00  0.00     0.001 A 
HETATM   26  C   UNL     1     -42.400  57.113 -60.514  1.00  0.00     0.000 A 
HETATM   27  C   UNL     1     -43.285  56.134 -60.078  1.00  0.00     0.001 A 
HETATM   28  C   UNL     1     -43.679  56.095 -58.738  1.00  0.00     0.009 A 
ENDBRANCH  16  23
ENDBRANCH  12  16
ENDBRANCH   1   9
BRANCH   3  29
HETATM   29  C   UNL     1     -41.664  59.376 -50.097  1.00  0.00     0.240 C 
HETATM   30  N   UNL     1     -41.905  58.264 -50.889  1.00  0.00    -0.326 N 
HETATM   31  H   UNL     1     -42.517  58.375 -51.689  1.00  0.00     0.169 HD
HETATM   32  O   UNL     1     -41.008  59.405 -49.055  1.00  0.00    -0.271 OA
BRANCH  30  33
HETATM   33  C   UNL     1     -41.562  56.928 -50.582  1.00  0.00     0.034 A 
HETATM   34  C   UNL     1     -42.608  55.996 -50.523  1.00  0.00     0.032 A 
HETATM   35  C   UNL     1     -42.367  54.673 -50.135  1.00  0.00     0.039 A 
HETATM   36  C   UNL     1     -41.066  54.260 -49.849  1.00  0.00     0.076 A 
HETATM   37  C   UNL     1     -40.020  55.178 -49.921  1.00  0.00     0.039 A 
HETATM   38  C   UNL     1     -40.265  56.504 -50.290  1.00  0.00     0.032 A 
BRANCH  36  39
HETATM   39  O   UNL     1     -40.740  53.004 -49.394  1.00  0.00    -0.311 OA
BRANCH  39  40
HETATM   40  C   UNL     1     -40.350  52.043 -50.297  1.00  0.00     0.076 A 
HETATM   41  C   UNL     1     -39.843  52.333 -51.566  1.00  0.00     0.037 A 
HETATM   42  C   UNL     1     -39.423  51.296 -52.399  1.00  0.00     0.003 A 
HETATM   43  C   UNL     1     -39.483  49.974 -51.956  1.00  0.00     0.000 A 
HETATM   44  C   UNL     1     -39.959  49.687 -50.677  1.00  0.00     0.003 A 
HETATM   45  C   UNL     1     -40.388  50.723 -49.846  1.00  0.00     0.037 A 
ENDBRANCH  39  40
ENDBRANCH  36  39
ENDBRANCH  30  33
ENDBRANCH   3  29
TORSDOF 8
ENDMDL
MODEL 4
REMARK VINA RESULT:      -9.7      2.641      6.508
REMARK  8 active torsions:
REMARK  status: ('A' for Active; 'I' for Inactive)
REMARK    1  A    between atoms: C_4  and  C_5 
REMARK    2  A    between atoms: C_5  and  N_6 
REMARK    3  A    between atoms: C_5  and  C_36 
REMARK    4  A    between atoms: N_10  and  C_11 
REMARK    5  A    between atoms: C_13  and  C_14 
REMARK       I    between atoms: C_14  and  N_15 
REMARK    6  A    between atoms: N_15  and  C_16 
REMARK    7  A    between atoms: C_19  and  O_20 
REMARK    8  A    between atoms: O_20  and  C_21 
ROOT
HETATM    1  C   UNL     1     -44.257  59.811 -57.147  1.00  0.00     0.181 C 
HETATM    2  N   UNL     1     -44.756  58.549 -57.179  1.00  0.00    -0.249 NA
HETATM    3  C   UNL     1     -44.378  57.616 -58.242  1.00  0.00     0.164 C 
HETATM    4  C   UNL     1     -43.645  58.269 -59.382  1.00  0.00     0.134 C 
HETATM    5  C   UNL     1     -42.835  59.437 -58.897  1.00  0.00     0.247 C 
HETATM    6  O   UNL     1     -41.742  59.671 -59.405  1.00  0.00    -0.271 OA
HETATM    7  N   UNL     1     -43.409  60.290 -57.991  1.00  0.00    -0.185 NA
HETATM    8  H   UNL     1     -44.588  58.095 -56.275  1.00  0.00     0.131 HD
ENDROOT
BRANCH   1   9
HETATM    9  N   UNL     1     -44.760  60.572 -56.109  1.00  0.00    -0.353 N 
HETATM   10  C   UNL     1     -44.025  61.683 -55.483  1.00  0.00     0.153 C 
HETATM   11  C   UNL     1     -43.307  61.180 -54.218  1.00  0.00     0.256 C 
HETATM   12  N   UNL     1     -44.334  60.578 -53.257  1.00  0.00    -0.056 N 
HETATM   13  H   UNL     1     -45.034  61.308 -53.099  1.00  0.00     0.281 HD
HETATM   14  C   UNL     1     -45.111  59.443 -53.936  1.00  0.00     0.256 C 
HETATM   15  C   UNL     1     -45.787  59.984 -55.219  1.00  0.00     0.153 C 
BRANCH  12  16
HETATM   16  C   UNL     1     -43.759  60.300 -51.868  1.00  0.00     0.254 C 
BRANCH  16  17
HETATM   17  C   UNL     1     -43.391  58.841 -51.614  1.00  0.00    -0.023 A 
HETATM   18  C   UNL     1     -44.398  57.938 -51.217  1.00  0.00     0.009 A 
HETATM   19  C   UNL     1     -44.103  56.601 -50.948  1.00  0.00     0.001 A 
HETATM   20  C   UNL     1     -42.798  56.136 -51.073  1.00  0.00     0.000 A 
HETATM   21  C   UNL     1     -41.789  57.008 -51.474  1.00  0.00     0.001 A 
HETATM   22  C   UNL     1     -42.082  58.347 -51.744  1.00  0.00     0.009 A 
ENDBRANCH  16  17
BRANCH  16  23
HETATM   23  C   UNL     1     -44.491  61.056 -50.758  1.00  0.00    -0.023 A 
HETATM   24  C   UNL     1     -43.980  61.215 -49.460  1.00  0.00     0.009 A 
HETATM   25  C   UNL     1     -44.684  61.939 -48.493  1.00  0.00     0.001 A 
HETATM   26  C   UNL     1     -45.909  62.520 -48.801  1.00  0.00     0.000 A 
HETATM   27  C   UNL     1     -46.432  62.388 -50.082  1.00  0.00     0.001 A 
HETATM   28  C   UNL     1     -45.730  61.668 -51.053  1.00  0.00     0.009 A 
ENDBRANCH  16  23
ENDBRANCH  12  16
ENDBRANCH   1   9
BRANCH   3  29
HETATM   29  C   UNL     1     -43.610  56.432 -57.623  1.00  0.00     0.240 C 
HETATM   30  N   UNL     1     -43.534  56.480 -56.239  1.00  0.00    -0.326 N 
HETATM   31  H   UNL     1     -44.016  57.233 -55.763  1.00  0.00     0.169 HD
HETATM   32  O   UNL     1     -43.033  55.634 -58.361  1.00  0.00    -0.271 OA
BRANCH  30  33
HETATM   33  C   UNL     1     -42.673  55.712 -55.421  1.00  0.00     0.034 A 
HETATM   34  C   UNL     1     -43.253  54.672 -54.681  1.00  0.00     0.032 A 
HETATM   35  C   UNL     1     -42.487  53.925 -53.778  1.00  0.00     0.039 A 
HETATM   36  C   UNL     1     -41.124  54.182 -53.645  1.00  0.00     0.076 A 
HETATM   37  C   UNL     1     -40.539  55.203 -54.390  1.00  0.00     0.039 A 
HETATM   38  C   UNL     1     -41.308  55.962 -55.278  1.00  0.00     0.032 A 
BRANCH  36  39
HETATM   39  O   UNL     1     -40.307  53.550 -52.737  1.00  0.00    -0.311 OA
BRANCH  39  40
HETATM   40  C   UNL     1     -40.099  52.195 -52.851  1.00  0.00     0.076 A 
HETATM   41  C   UNL     1     -40.101  51.510 -54.069  1.00  0.00     0.037 A 
HETATM   42  C   UNL     1     -39.829  50.142 -54.096  1.00  0.00     0.003 A 
HETATM   43  C   UNL     1     -39.528  49.464 -52.914  1.00  0.00     0.000 A 
HETATM   44  C   UNL     1     -39.494  50.154 -51.703  1.00  0.00     0.003 A 
HETATM   45  C   UNL     1     -39.774  51.521 -51.672  1.00  0.00     0.037 A 
ENDBRANCH  39  40
ENDBRANCH  36  39
ENDBRANCH  30  33
ENDBRANCH   3  29
TORSDOF 8
ENDMDL
MODEL 5
REMARK VINA RESULT:      -9.3      2.837      8.302
REMARK  8 active torsions:
REMARK  status: ('A' for Active; 'I' for Inactive)
REMARK    1  A    between atoms: C_4  and  C_5 
REMARK    2  A    between atoms: C_5  and  N_6 
REMARK    3  A    between atoms: C_5  and  C_36 
REMARK    4  A    between atoms: N_10  and  C_11 
REMARK    5  A    between atoms: C_13  and  C_14 
REMARK       I    between atoms: C_14  and  N_15 
REMARK    6  A    between atoms: N_15  and  C_16 
REMARK    7  A    between atoms: C_19  and  O_20 
REMARK    8  A    between atoms: O_20  and  C_21 
ROOT
HETATM    1  C   UNL     1     -42.728  55.756 -57.113  1.00  0.00     0.181 C 
HETATM    2  N   UNL     1     -42.070  56.938 -57.009  1.00  0.00    -0.249 NA
HETATM    3  C   UNL     1     -42.197  57.965 -58.045  1.00  0.00     0.164 C 
HETATM    4  C   UNL     1     -42.870  57.473 -59.298  1.00  0.00     0.134 C 
HETATM    5  C   UNL     1     -43.874  56.404 -58.981  1.00  0.00     0.247 C 
HETATM    6  O   UNL     1     -44.922  56.345 -59.619  1.00  0.00    -0.271 OA
HETATM    7  N   UNL     1     -43.526  55.437 -58.074  1.00  0.00    -0.185 NA
HETATM    8  H   UNL     1     -42.282  57.366 -56.101  1.00  0.00     0.131 HD
ENDROOT
BRANCH   1   9
HETATM    9  N   UNL     1     -42.452  54.883 -56.077  1.00  0.00    -0.353 N 
HETATM   10  C   UNL     1     -43.487  54.297 -55.210  1.00  0.00     0.153 C 
HETATM   11  C   UNL     1     -43.617  55.131 -53.923  1.00  0.00     0.256 C 
HETATM   12  N   UNL     1     -42.261  55.188 -53.216  1.00  0.00    -0.056 N 
HETATM   13  H   UNL     1     -41.975  54.216 -53.076  1.00  0.00     0.281 HD
HETATM   14  C   UNL     1     -41.190  55.774 -54.145  1.00  0.00     0.256 C 
HETATM   15  C   UNL     1     -41.118  54.926 -55.438  1.00  0.00     0.153 C 
BRANCH  12  16
HETATM   16  C   UNL     1     -42.350  55.762 -51.801  1.00  0.00     0.254 C 
BRANCH  16  17
HETATM   17  C   UNL     1     -42.187  57.277 -51.719  1.00  0.00    -0.023 A 
HETATM   18  C   UNL     1     -43.310  58.071 -51.407  1.00  0.00     0.009 A 
HETATM   19  C   UNL     1     -43.215  59.462 -51.348  1.00  0.00     0.001 A 
HETATM   20  C   UNL     1     -41.998  60.088 -51.594  1.00  0.00     0.000 A 
HETATM   21  C   UNL     1     -40.874  59.324 -51.893  1.00  0.00     0.001 A 
HETATM   22  C   UNL     1     -40.966  57.931 -51.954  1.00  0.00     0.009 A 
ENDBRANCH  16  17
BRANCH  16  23
HETATM   23  C   UNL     1     -41.619  54.907 -50.766  1.00  0.00    -0.023 A 
HETATM   24  C   UNL     1     -41.398  55.314 -49.440  1.00  0.00     0.009 A 
HETATM   25  C   UNL     1     -40.744  54.478 -48.529  1.00  0.00     0.001 A 
HETATM   26  C   UNL     1     -40.300  53.220 -48.921  1.00  0.00     0.000 A 
HETATM   27  C   UNL     1     -40.516  52.788 -50.224  1.00  0.00     0.001 A 
HETATM   28  C   UNL     1     -41.173  53.618 -51.136  1.00  0.00     0.009 A 
ENDBRANCH  16  23
ENDBRANCH  12  16
ENDBRANCH   1   9
BRANCH   3  29
HETATM   29  C   UNL     1     -42.873  59.210 -57.439  1.00  0.00     0.240 C 
HETATM   30  N   UNL     1     -42.879  59.221 -56.052  1.00  0.00    -0.326 N 
HETATM   31  H   UNL     1     -42.412  58.464 -55.569  1.00  0.00     0.169 HD
HETATM   32  O   UNL     1     -43.447  60.007 -58.181  1.00  0.00    -0.271 OA
BRANCH  30  33
HETATM   33  C   UNL     1     -43.658  60.064 -55.227  1.00  0.00     0.034 A 
HETATM   34  C   UNL     1     -43.120  61.317 -54.901  1.00  0.00     0.032 A 
HETATM   35  C   UNL     1     -43.784  62.172 -54.014  1.00  0.00     0.039 A 
HETATM   36  C   UNL     1     -45.019  61.800 -53.484  1.00  0.00     0.076 A 
HETATM   37  C   UNL     1     -45.567  60.563 -53.817  1.00  0.00     0.039 A 
HETATM   38  C   UNL     1     -44.893  59.700 -54.687  1.00  0.00     0.032 A 
BRANCH  36  39
HETATM   39  O   UNL     1     -45.712  62.539 -52.555  1.00  0.00    -0.311 OA
BRANCH  39  40
HETATM   40  C   UNL     1     -45.433  62.370 -51.219  1.00  0.00     0.076 A 
HETATM   41  C   UNL     1     -46.076  61.433 -50.406  1.00  0.00     0.037 A 
HETATM   42  C   UNL     1     -45.693  61.294 -49.072  1.00  0.00     0.003 A 
HETATM   43  C   UNL     1     -44.653  62.068 -48.557  1.00  0.00     0.000 A 
HETATM   44  C   UNL     1     -43.989  62.980 -49.377  1.00  0.00     0.003 A 
HETATM   45  C   UNL     1     -44.377  63.127 -50.710  1.00  0.00     0.037 A 
ENDBRANCH  39  40
ENDBRANCH  36  39
ENDBRANCH  30  33
ENDBRANCH   3  29
TORSDOF 8
ENDMDL
MODEL 6
REMARK VINA RESULT:      -8.9      2.401      3.561
REMARK  8 active torsions:
REMARK  status: ('A' for Active; 'I' for Inactive)
REMARK    1  A    between atoms: C_4  and  C_5 
REMARK    2  A    between atoms: C_5  and  N_6 
REMARK    3  A    between atoms: C_5  and  C_36 
REMARK    4  A    between atoms: N_10  and  C_11 
REMARK    5  A    between atoms: C_13  and  C_14 
REMARK       I    between atoms: C_14  and  N_15 
REMARK    6  A    between atoms: N_15  and  C_16 
REMARK    7  A    between atoms: C_19  and  O_20 
REMARK    8  A    between atoms: O_20  and  C_21 
ROOT
HETATM    1  C   UNL     1     -44.649  59.710 -53.755  1.00  0.00     0.181 C 
HETATM    2  N   UNL     1     -43.298  59.690 -53.627  1.00  0.00    -0.249 NA
HETATM    3  C   UNL     1     -42.667  59.381 -52.342  1.00  0.00     0.164 C 
HETATM    4  C   UNL     1     -43.630  59.371 -51.186  1.00  0.00     0.134 C 
HETATM    5  C   UNL     1     -44.995  58.933 -51.633  1.00  0.00     0.247 C 
HETATM    6  O   UNL     1     -45.686  58.244 -50.888  1.00  0.00    -0.271 OA
HETATM    7  N   UNL     1     -45.483  59.437 -52.811  1.00  0.00    -0.185 NA
HETATM    8  H   UNL     1     -42.898  59.072 -54.341  1.00  0.00     0.131 HD
ENDROOT
BRANCH   1   9
HETATM    9  N   UNL     1     -45.073  60.073 -55.018  1.00  0.00    -0.353 N 
HETATM   10  C   UNL     1     -45.817  59.175 -55.917  1.00  0.00     0.153 C 
HETATM   11  C   UNL     1     -44.840  58.494 -56.892  1.00  0.00     0.256 C 
HETATM   12  N   UNL     1     -44.077  59.564 -57.676  1.00  0.00    -0.056 N 
HETATM   13  H   UNL     1     -44.789  60.153 -58.116  1.00  0.00     0.281 HD
HETATM   14  C   UNL     1     -43.333  60.508 -56.722  1.00  0.00     0.256 C 
HETATM   15  C   UNL     1     -44.347  61.143 -55.741  1.00  0.00     0.153 C 
BRANCH  12  16
HETATM   16  C   UNL     1     -43.285  58.990 -58.852  1.00  0.00     0.254 C 
BRANCH  16  17
HETATM   17  C   UNL     1     -43.100  59.952 -60.022  1.00  0.00    -0.023 A 
HETATM   18  C   UNL     1     -44.133  60.860 -60.333  1.00  0.00     0.009 A 
HETATM   19  C   UNL     1     -44.019  61.740 -61.410  1.00  0.00     0.001 A 
HETATM   20  C   UNL     1     -42.872  61.735 -62.196  1.00  0.00     0.000 A 
HETATM   21  C   UNL     1     -41.835  60.854 -61.901  1.00  0.00     0.001 A 
HETATM   22  C   UNL     1     -41.946  59.972 -60.823  1.00  0.00     0.009 A 
ENDBRANCH  16  17
BRANCH  16  23
HETATM   23  C   UNL     1     -43.656  57.541 -59.169  1.00  0.00    -0.023 A 
HETATM   24  C   UNL     1     -44.574  57.176 -60.168  1.00  0.00     0.009 A 
HETATM   25  C   UNL     1     -44.855  55.832 -60.431  1.00  0.00     0.001 A 
HETATM   26  C   UNL     1     -44.226  54.826 -59.705  1.00  0.00     0.000 A 
HETATM   27  C   UNL     1     -43.305  55.160 -58.719  1.00  0.00     0.001 A 
HETATM   28  C   UNL     1     -43.018  56.501 -58.456  1.00  0.00     0.009 A 
ENDBRANCH  16  23
ENDBRANCH  12  16
ENDBRANCH   1   9
BRANCH   3  29
HETATM   29  C   UNL     1     -41.865  58.071 -52.478  1.00  0.00     0.240 C 
HETATM   30  N   UNL     1     -41.979  57.475 -53.725  1.00  0.00    -0.326 N 
HETATM   31  H   UNL     1     -42.518  57.956 -54.434  1.00  0.00     0.169 HD
HETATM   32  O   UNL     1     -41.312  57.596 -51.486  1.00  0.00    -0.271 OA
BRANCH  30  33
HETATM   33  C   UNL     1     -41.605  56.152 -54.056  1.00  0.00     0.034 A 
HETATM   34  C   UNL     1     -42.509  55.131 -53.732  1.00  0.00     0.032 A 
HETATM   35  C   UNL     1     -42.175  53.787 -53.941  1.00  0.00     0.039 A 
HETATM   36  C   UNL     1     -40.951  53.459 -54.524  1.00  0.00     0.076 A 
HETATM   37  C   UNL     1     -40.056  54.471 -54.863  1.00  0.00     0.039 A 
HETATM   38  C   UNL     1     -40.382  55.812 -54.636  1.00  0.00     0.032 A 
BRANCH  36  39
HETATM   39  O   UNL     1     -40.507  52.171 -54.705  1.00  0.00    -0.311 OA
BRANCH  39  40
HETATM   40  C   UNL     1     -40.097  51.442 -53.613  1.00  0.00     0.076 A 
HETATM   41  C   UNL     1     -39.938  51.984 -52.335  1.00  0.00     0.037 A 
HETATM   42  C   UNL     1     -39.568  51.159 -51.272  1.00  0.00     0.003 A 
HETATM   43  C   UNL     1     -39.384  49.792 -51.478  1.00  0.00     0.000 A 
HETATM   44  C   UNL     1     -39.574  49.245 -52.747  1.00  0.00     0.003 A 
HETATM   45  C   UNL     1     -39.936  50.070 -53.813  1.00  0.00     0.037 A 
ENDBRANCH  39  40
ENDBRANCH  36  39
ENDBRANCH  30  33
ENDBRANCH   3  29
TORSDOF 8
ENDMDL
MODEL 7
REMARK VINA RESULT:      -8.8      2.463      4.006
REMARK  8 active torsions:
REMARK  status: ('A' for Active; 'I' for Inactive)
REMARK    1  A    between atoms: C_4  and  C_5 
REMARK    2  A    between atoms: C_5  and  N_6 
REMARK    3  A    between atoms: C_5  and  C_36 
REMARK    4  A    between atoms: N_10  and  C_11 
REMARK    5  A    between atoms: C_13  and  C_14 
REMARK       I    between atoms: C_14  and  N_15 
REMARK    6  A    between atoms: N_15  and  C_16 
REMARK    7  A    between atoms: C_19  and  O_20 
REMARK    8  A    between atoms: O_20  and  C_21 
ROOT
HETATM    1  C   UNL     1     -44.802  60.936 -52.890  1.00  0.00     0.181 C 
HETATM    2  N   UNL     1     -43.515  60.828 -52.474  1.00  0.00    -0.249 NA
HETATM    3  C   UNL     1     -43.186  60.173 -51.205  1.00  0.00     0.164 C 
HETATM    4  C   UNL     1     -44.385  59.908 -50.337  1.00  0.00     0.134 C 
HETATM    5  C   UNL     1     -45.606  59.657 -51.174  1.00  0.00     0.247 C 
HETATM    6  O   UNL     1     -46.435  58.829 -50.807  1.00  0.00    -0.271 OA
HETATM    7  N   UNL     1     -45.824  60.465 -52.260  1.00  0.00    -0.185 NA
HETATM    8  H   UNL     1     -42.953  60.397 -53.216  1.00  0.00     0.131 HD
ENDROOT
BRANCH   1   9
HETATM    9  N   UNL     1     -44.937  61.628 -54.078  1.00  0.00    -0.353 N 
HETATM   10  C   UNL     1     -45.950  61.309 -55.097  1.00  0.00     0.153 C 
HETATM   11  C   UNL     1     -45.332  60.401 -56.175  1.00  0.00     0.256 C 
HETATM   12  N   UNL     1     -44.119  61.100 -56.792  1.00  0.00    -0.056 N 
HETATM   13  H   UNL     1     -44.457  62.005 -57.129  1.00  0.00     0.281 HD
HETATM   14  C   UNL     1     -43.088  61.452 -55.713  1.00  0.00     0.256 C 
HETATM   15  C   UNL     1     -43.761  62.335 -54.635  1.00  0.00     0.153 C 
BRANCH  12  16
HETATM   16  C   UNL     1     -43.604  60.400 -58.051  1.00  0.00     0.254 C 
BRANCH  16  17
HETATM   17  C   UNL     1     -43.479  58.884 -57.927  1.00  0.00    -0.023 A 
HETATM   18  C   UNL     1     -42.596  58.344 -56.970  1.00  0.00     0.009 A 
HETATM   19  C   UNL     1     -42.428  56.965 -56.839  1.00  0.00     0.001 A 
HETATM   20  C   UNL     1     -43.142  56.096 -57.658  1.00  0.00     0.000 A 
HETATM   21  C   UNL     1     -44.028  56.606 -58.603  1.00  0.00     0.001 A 
HETATM   22  C   UNL     1     -44.197  57.987 -58.736  1.00  0.00     0.009 A 
ENDBRANCH  16  17
BRANCH  16  23
HETATM   23  C   UNL     1     -42.463  61.158 -58.729  1.00  0.00    -0.023 A 
HETATM   24  C   UNL     1     -41.277  61.527 -58.073  1.00  0.00     0.009 A 
HETATM   25  C   UNL     1     -40.257  62.198 -58.753  1.00  0.00     0.001 A 
HETATM   26  C   UNL     1     -40.396  62.513 -60.100  1.00  0.00     0.000 A 
HETATM   27  C   UNL     1     -41.555  62.150 -60.776  1.00  0.00     0.001 A 
HETATM   28  C   UNL     1     -42.575  61.475 -60.102  1.00  0.00     0.009 A 
ENDBRANCH  16  23
ENDBRANCH  12  16
ENDBRANCH   1   9
BRANCH   3  29
HETATM   29  C   UNL     1     -42.351  58.911 -51.494  1.00  0.00     0.240 C 
HETATM   30  N   UNL     1     -42.654  58.306 -52.704  1.00  0.00    -0.326 N 
HETATM   31  H   UNL     1     -43.337  58.756 -53.302  1.00  0.00     0.169 HD
HETATM   32  O   UNL     1     -41.603  58.469 -50.621  1.00  0.00    -0.271 OA
BRANCH  30  33
HETATM   33  C   UNL     1     -42.273  57.006 -53.108  1.00  0.00     0.034 A 
HETATM   34  C   UNL     1     -40.970  56.845 -53.601  1.00  0.00     0.032 A 
HETATM   35  C   UNL     1     -40.544  55.611 -54.108  1.00  0.00     0.039 A 
HETATM   36  C   UNL     1     -41.406  54.515 -54.081  1.00  0.00     0.076 A 
HETATM   37  C   UNL     1     -42.696  54.665 -53.577  1.00  0.00     0.039 A 
HETATM   38  C   UNL     1     -43.128  55.903 -53.089  1.00  0.00     0.032 A 
BRANCH  36  39
HETATM   39  O   UNL     1     -41.104  53.286 -54.617  1.00  0.00    -0.311 OA
BRANCH  39  40
HETATM   40  C   UNL     1     -40.518  52.331 -53.818  1.00  0.00     0.076 A 
HETATM   41  C   UNL     1     -40.170  52.546 -52.482  1.00  0.00     0.037 A 
HETATM   42  C   UNL     1     -39.627  51.503 -51.731  1.00  0.00     0.003 A 
HETATM   43  C   UNL     1     -39.458  50.241 -52.302  1.00  0.00     0.000 A 
HETATM   44  C   UNL     1     -39.836  50.018 -53.626  1.00  0.00     0.003 A 
HETATM   45  C   UNL     1     -40.371  51.063 -54.382  1.00  0.00     0.037 A 
ENDBRANCH  39  40
ENDBRANCH  36  39
ENDBRANCH  30  33
ENDBRANCH   3  29
TORSDOF 8
ENDMDL
MODEL 8
REMARK VINA RESULT:      -8.7      2.381      6.895
REMARK  8 active torsions:
REMARK  status: ('A' for Active; 'I' for Inactive)
REMARK    1  A    between atoms: C_4  and  C_5 
REMARK    2  A    between atoms: C_5  and  N_6 
REMARK    3  A    between atoms: C_5  and  C_36 
REMARK    4  A    between atoms: N_10  and  C_11 
REMARK    5  A    between atoms: C_13  and  C_14 
REMARK       I    between atoms: C_14  and  N_15 
REMARK    6  A    between atoms: N_15  and  C_16 
REMARK    7  A    between atoms: C_19  and  O_20 
REMARK    8  A    between atoms: O_20  and  C_21 
ROOT
HETATM    1  C   UNL     1     -43.470  59.453 -51.075  1.00  0.00     0.181 C 
HETATM    2  N   UNL     1     -44.784  59.360 -51.398  1.00  0.00    -0.249 NA
HETATM    3  C   UNL     1     -45.582  60.560 -51.664  1.00  0.00     0.164 C 
HETATM    4  C   UNL     1     -44.889  61.839 -51.280  1.00  0.00     0.134 C 
HETATM    5  C   UNL     1     -43.401  61.709 -51.439  1.00  0.00     0.247 C 
HETATM    6  O   UNL     1     -42.746  62.670 -51.832  1.00  0.00    -0.271 OA
HETATM    7  N   UNL     1     -42.803  60.554 -51.006  1.00  0.00    -0.185 NA
HETATM    8  H   UNL     1     -44.896  58.716 -52.188  1.00  0.00     0.131 HD
ENDROOT
BRANCH   1   9
HETATM    9  N   UNL     1     -42.885  58.231 -50.803  1.00  0.00    -0.353 N 
HETATM   10  C   UNL     1     -41.430  58.019 -50.744  1.00  0.00     0.153 C 
HETATM   11  C   UNL     1     -40.928  57.492 -52.100  1.00  0.00     0.256 C 
HETATM   12  N   UNL     1     -41.668  56.198 -52.446  1.00  0.00    -0.056 N 
HETATM   13  H   UNL     1     -41.520  55.568 -51.654  1.00  0.00     0.281 HD
HETATM   14  C   UNL     1     -43.184  56.431 -52.474  1.00  0.00     0.256 C 
HETATM   15  C   UNL     1     -43.637  56.992 -51.105  1.00  0.00     0.153 C 
BRANCH  12  16
HETATM   16  C   UNL     1     -41.051  55.458 -53.635  1.00  0.00     0.254 C 
BRANCH  16  17
HETATM   17  C   UNL     1     -41.808  55.627 -54.949  1.00  0.00    -0.023 A 
HETATM   18  C   UNL     1     -41.753  56.868 -55.617  1.00  0.00     0.009 A 
HETATM   19  C   UNL     1     -42.451  57.077 -56.807  1.00  0.00     0.001 A 
HETATM   20  C   UNL     1     -43.214  56.053 -57.357  1.00  0.00     0.000 A 
HETATM   21  C   UNL     1     -43.274  54.816 -56.721  1.00  0.00     0.001 A 
HETATM   22  C   UNL     1     -42.577  54.604 -55.529  1.00  0.00     0.009 A 
ENDBRANCH  16  17
BRANCH  16  23
HETATM   23  C   UNL     1     -40.553  54.059 -53.272  1.00  0.00    -0.023 A 
HETATM   24  C   UNL     1     -40.452  53.589 -51.952  1.00  0.00     0.009 A 
HETATM   25  C   UNL     1     -40.012  52.290 -51.682  1.00  0.00     0.001 A 
HETATM   26  C   UNL     1     -39.667  51.433 -52.721  1.00  0.00     0.000 A 
HETATM   27  C   UNL     1     -39.768  51.869 -54.037  1.00  0.00     0.001 A 
HETATM   28  C   UNL     1     -40.211  53.165 -54.311  1.00  0.00     0.009 A 
ENDBRANCH  16  23
ENDBRANCH  12  16
ENDBRANCH   1   9
BRANCH   3  29
HETATM   29  C   UNL     1     -46.050  60.536 -53.132  1.00  0.00     0.240 C 
HETATM   30  N   UNL     1     -45.372  59.618 -53.919  1.00  0.00    -0.326 N 
HETATM   31  H   UNL     1     -44.686  59.023 -53.470  1.00  0.00     0.169 HD
HETATM   32  O   UNL     1     -46.859  61.379 -53.521  1.00  0.00    -0.271 OA
BRANCH  30  33
HETATM   33  C   UNL     1     -45.374  59.564 -55.332  1.00  0.00     0.034 A 
HETATM   34  C   UNL     1     -45.942  58.429 -55.928  1.00  0.00     0.032 A 
HETATM   35  C   UNL     1     -45.902  58.255 -57.316  1.00  0.00     0.039 A 
HETATM   36  C   UNL     1     -45.334  59.240 -58.123  1.00  0.00     0.076 A 
HETATM   37  C   UNL     1     -44.783  60.377 -57.537  1.00  0.00     0.039 A 
HETATM   38  C   UNL     1     -44.806  60.542 -56.149  1.00  0.00     0.032 A 
BRANCH  36  39
HETATM   39  O   UNL     1     -45.186  59.127 -59.485  1.00  0.00    -0.311 OA
BRANCH  39  40
HETATM   40  C   UNL     1     -45.217  57.879 -60.063  1.00  0.00     0.076 A 
HETATM   41  C   UNL     1     -44.079  57.102 -60.290  1.00  0.00     0.037 A 
HETATM   42  C   UNL     1     -44.208  55.824 -60.835  1.00  0.00     0.003 A 
HETATM   43  C   UNL     1     -45.473  55.312 -61.126  1.00  0.00     0.000 A 
HETATM   44  C   UNL     1     -46.612  56.075 -60.869  1.00  0.00     0.003 A 
HETATM   45  C   UNL     1     -46.484  57.357 -60.333  1.00  0.00     0.037 A 
ENDBRANCH  39  40
ENDBRANCH  36  39
ENDBRANCH  30  33
ENDBRANCH   3  29
TORSDOF 8
ENDMDL
MODEL 9
REMARK VINA RESULT:      -8.5      1.539      2.413
REMARK  8 active torsions:
REMARK  status: ('A' for Active; 'I' for Inactive)
REMARK    1  A    between atoms: C_4  and  C_5 
REMARK    2  A    between atoms: C_5  and  N_6 
REMARK    3  A    between atoms: C_5  and  C_36 
REMARK    4  A    between atoms: N_10  and  C_11 
REMARK    5  A    between atoms: C_13  and  C_14 
REMARK       I    between atoms: C_14  and  N_15 
REMARK    6  A    between atoms: N_15  and  C_16 
REMARK    7  A    between atoms: C_19  and  O_20 
REMARK    8  A    between atoms: O_20  and  C_21 
ROOT
HETATM    1  C   UNL     1     -44.434  61.763 -52.733  1.00  0.00     0.181 C 
HETATM    2  N   UNL     1     -43.150  61.619 -52.320  1.00  0.00    -0.249 NA
HETATM    3  C   UNL     1     -42.828  61.468 -50.899  1.00  0.00     0.164 C 
HETATM    4  C   UNL     1     -43.988  61.760 -49.986  1.00  0.00     0.134 C 
HETATM    5  C   UNL     1     -45.289  61.402 -50.645  1.00  0.00     0.247 C 
HETATM    6  O   UNL     1     -46.201  60.930 -49.972  1.00  0.00    -0.271 OA
HETATM    7  N   UNL     1     -45.464  61.747 -51.960  1.00  0.00    -0.185 NA
HETATM    8  H   UNL     1     -42.711  60.849 -52.835  1.00  0.00     0.131 HD
ENDROOT
BRANCH   1   9
HETATM    9  N   UNL     1     -44.551  61.949 -54.098  1.00  0.00    -0.353 N 
HETATM   10  C   UNL     1     -45.744  61.566 -54.872  1.00  0.00     0.153 C 
HETATM   11  C   UNL     1     -45.531  60.176 -55.496  1.00  0.00     0.256 C 
HETATM   12  N   UNL     1     -44.279  60.201 -56.375  1.00  0.00    -0.056 N 
HETATM   13  H   UNL     1     -44.419  60.961 -57.045  1.00  0.00     0.281 HD
HETATM   14  C   UNL     1     -43.053  60.630 -55.559  1.00  0.00     0.256 C 
HETATM   15  C   UNL     1     -43.324  62.014 -54.923  1.00  0.00     0.153 C 
BRANCH  12  16
HETATM   16  C   UNL     1     -44.137  58.952 -57.247  1.00  0.00     0.254 C 
BRANCH  16  17
HETATM   17  C   UNL     1     -45.209  58.806 -58.323  1.00  0.00    -0.023 A 
HETATM   18  C   UNL     1     -45.832  57.555 -58.505  1.00  0.00     0.009 A 
HETATM   19  C   UNL     1     -46.798  57.367 -59.495  1.00  0.00     0.001 A 
HETATM   20  C   UNL     1     -47.164  58.424 -60.321  1.00  0.00     0.000 A 
HETATM   21  C   UNL     1     -46.569  59.671 -60.153  1.00  0.00     0.001 A 
HETATM   22  C   UNL     1     -45.602  59.862 -59.163  1.00  0.00     0.009 A 
ENDBRANCH  16  17
BRANCH  16  23
HETATM   23  C   UNL     1     -43.753  57.707 -56.447  1.00  0.00    -0.023 A 
HETATM   24  C   UNL     1     -44.388  57.325 -55.254  1.00  0.00     0.009 A 
HETATM   25  C   UNL     1     -44.010  56.161 -54.578  1.00  0.00     0.001 A 
HETATM   26  C   UNL     1     -42.994  55.354 -55.079  1.00  0.00     0.000 A 
HETATM   27  C   UNL     1     -42.357  55.703 -56.263  1.00  0.00     0.001 A 
HETATM   28  C   UNL     1     -42.734  56.864 -56.944  1.00  0.00     0.009 A 
ENDBRANCH  16  23
ENDBRANCH  12  16
ENDBRANCH   1   9
BRANCH   3  29
HETATM   29  C   UNL     1     -42.208  60.076 -50.670  1.00  0.00     0.240 C 
HETATM   30  N   UNL     1     -42.774  59.078 -51.448  1.00  0.00    -0.326 N 
HETATM   31  H   UNL     1     -43.487  59.344 -52.116  1.00  0.00     0.169 HD
HETATM   32  O   UNL     1     -41.386  59.922 -49.766  1.00  0.00    -0.271 OA
BRANCH  30  33
HETATM   33  C   UNL     1     -42.622  57.684 -51.263  1.00  0.00     0.034 A 
HETATM   34  C   UNL     1     -41.320  57.168 -51.334  1.00  0.00     0.032 A 
HETATM   35  C   UNL     1     -41.093  55.788 -51.255  1.00  0.00     0.039 A 
HETATM   36  C   UNL     1     -42.165  54.919 -51.054  1.00  0.00     0.076 A 
HETATM   37  C   UNL     1     -43.458  55.428 -50.966  1.00  0.00     0.039 A 
HETATM   38  C   UNL     1     -43.687  56.804 -51.065  1.00  0.00     0.032 A 
BRANCH  36  39
HETATM   39  O   UNL     1     -42.050  53.549 -51.032  1.00  0.00    -0.311 OA
BRANCH  39  40
HETATM   40  C   UNL     1     -41.146  52.938 -51.869  1.00  0.00     0.076 A 
HETATM   41  C   UNL     1     -40.082  52.152 -51.420  1.00  0.00     0.037 A 
HETATM   42  C   UNL     1     -39.243  51.526 -52.343  1.00  0.00     0.003 A 
HETATM   43  C   UNL     1     -39.481  51.663 -53.711  1.00  0.00     0.000 A 
HETATM   44  C   UNL     1     -40.562  52.422 -54.159  1.00  0.00     0.003 A 
HETATM   45  C   UNL     1     -41.397  53.056 -53.238  1.00  0.00     0.037 A 
ENDBRANCH  39  40
ENDBRANCH  36  39
ENDBRANCH  30  33
ENDBRANCH   3  29
TORSDOF 8
ENDMDL
MODEL 10
REMARK VINA RESULT:      -8.4      2.523      3.893
REMARK  8 active torsions:
REMARK  status: ('A' for Active; 'I' for Inactive)
REMARK    1  A    between atoms: C_4  and  C_5 
REMARK    2  A    between atoms: C_5  and  N_6 
REMARK    3  A    between atoms: C_5  and  C_36 
REMARK    4  A    between atoms: N_10  and  C_11 
REMARK    5  A    between atoms: C_13  and  C_14 
REMARK       I    between atoms: C_14  and  N_15 
REMARK    6  A    between atoms: N_15  and  C_16 
REMARK    7  A    between atoms: C_19  and  O_20 
REMARK    8  A    between atoms: O_20  and  C_21 
ROOT
HETATM    1  C   UNL     1     -44.658  60.450 -53.256  1.00  0.00     0.181 C 
HETATM    2  N   UNL     1     -43.461  59.828 -53.105  1.00  0.00    -0.249 NA
HETATM    3  C   UNL     1     -43.012  59.366 -51.789  1.00  0.00     0.164 C 
HETATM    4  C   UNL     1     -43.850  59.886 -50.653  1.00  0.00     0.134 C 
HETATM    5  C   UNL     1     -45.274  60.083 -51.085  1.00  0.00     0.247 C 
HETATM    6  O   UNL     1     -46.187  59.844 -50.299  1.00  0.00    -0.271 OA
HETATM    7  N   UNL     1     -45.505  60.660 -52.307  1.00  0.00    -0.185 NA
HETATM    8  H   UNL     1     -43.402  59.042 -53.761  1.00  0.00     0.131 HD
ENDROOT
BRANCH   1   9
HETATM    9  N   UNL     1     -44.898  60.867 -54.551  1.00  0.00    -0.353 N 
HETATM   10  C   UNL     1     -45.395  59.979 -55.614  1.00  0.00     0.153 C 
HETATM   11  C   UNL     1     -44.211  59.451 -56.443  1.00  0.00     0.256 C 
HETATM   12  N   UNL     1     -43.430  60.633 -57.022  1.00  0.00    -0.056 N 
HETATM   13  H   UNL     1     -44.110  61.192 -57.543  1.00  0.00     0.281 HD
HETATM   14  C   UNL     1     -42.946  61.563 -55.902  1.00  0.00     0.256 C 
HETATM   15  C   UNL     1     -44.164  62.041 -55.075  1.00  0.00     0.153 C 
BRANCH  12  16
HETATM   16  C   UNL     1     -42.404  60.211 -58.074  1.00  0.00     0.254 C 
BRANCH  16  17
HETATM   17  C   UNL     1     -41.737  61.370 -58.810  1.00  0.00    -0.023 A 
HETATM   18  C   UNL     1     -42.453  62.044 -59.820  1.00  0.00     0.009 A 
HETATM   19  C   UNL     1     -41.874  63.091 -60.538  1.00  0.00     0.001 A 
HETATM   20  C   UNL     1     -40.571  63.490 -60.260  1.00  0.00     0.000 A 
HETATM   21  C   UNL     1     -39.849  62.846 -59.259  1.00  0.00     0.001 A 
HETATM   22  C   UNL     1     -40.426  61.797 -58.539  1.00  0.00     0.009 A 
ENDBRANCH  16  17
BRANCH  16  23
HETATM   23  C   UNL     1     -42.859  59.007 -58.900  1.00  0.00    -0.023 A 
HETATM   24  C   UNL     1     -44.119  58.917 -59.513  1.00  0.00     0.009 A 
HETATM   25  C   UNL     1     -44.471  57.801 -60.278  1.00  0.00     0.001 A 
HETATM   26  C   UNL     1     -43.572  56.754 -60.449  1.00  0.00     0.000 A 
HETATM   27  C   UNL     1     -42.314  56.822 -59.863  1.00  0.00     0.001 A 
HETATM   28  C   UNL     1     -41.957  57.938 -59.101  1.00  0.00     0.009 A 
ENDBRANCH  16  23
ENDBRANCH  12  16
ENDBRANCH   1   9
BRANCH   3  29
HETATM   29  C   UNL     1     -42.897  57.829 -51.809  1.00  0.00     0.240 C 
HETATM   30  N   UNL     1     -42.348  57.296 -50.653  1.00  0.00    -0.326 N 
HETATM   31  H   UNL     1     -42.123  57.932 -49.897  1.00  0.00     0.169 HD
HETATM   32  O   UNL     1     -43.163  57.217 -52.843  1.00  0.00    -0.271 OA
BRANCH  30  33
HETATM   33  C   UNL     1     -41.860  55.980 -50.488  1.00  0.00     0.034 A 
HETATM   34  C   UNL     1     -40.558  55.837 -49.987  1.00  0.00     0.032 A 
HETATM   35  C   UNL     1     -39.967  54.572 -49.882  1.00  0.00     0.039 A 
HETATM   36  C   UNL     1     -40.694  53.435 -50.233  1.00  0.00     0.076 A 
HETATM   37  C   UNL     1     -41.994  53.570 -50.716  1.00  0.00     0.039 A 
HETATM   38  C   UNL     1     -42.577  54.834 -50.839  1.00  0.00     0.032 A 
BRANCH  36  39
HETATM   39  O   UNL     1     -40.178  52.161 -50.229  1.00  0.00    -0.311 OA
BRANCH  39  40
HETATM   40  C   UNL     1     -39.937  51.531 -51.428  1.00  0.00     0.076 A 
HETATM   41  C   UNL     1     -39.733  50.155 -51.553  1.00  0.00     0.037 A 
HETATM   42  C   UNL     1     -39.548  49.592 -52.816  1.00  0.00     0.003 A 
HETATM   43  C   UNL     1     -39.593  50.397 -53.955  1.00  0.00     0.000 A 
HETATM   44  C   UNL     1     -39.829  51.767 -53.833  1.00  0.00     0.003 A 
HETATM   45  C   UNL     1     -40.006  52.332 -52.570  1.00  0.00     0.037 A 
ENDBRANCH  39  40
ENDBRANCH  36  39
ENDBRANCH  30  33
ENDBRANCH   3  29
TORSDOF 8
ENDMDL
