MODEL 1
REMARK VINA RESULT:      -8.0      0.000      0.000
REMARK  8 active torsions:
REMARK  status: ('A' for Active; 'I' for Inactive)
REMARK    1  A    between atoms: N_4  and  C_6 
REMARK    2  A    between atoms: C_6  and  C_7 
REMARK       I    between atoms: C_7  and  N_8 
REMARK    3  A    between atoms: N_8  and  C_9 
REMARK    4  A    between atoms: C_15  and  C_16 
REMARK    5  A    between atoms: C_21  and  C_22 
REMARK       I    between atoms: C_22  and  N_23 
REMARK    6  A    between atoms: N_23  and  C_24 
REMARK    7  A    between atoms: C_25  and  O_26 
REMARK    8  A    between atoms: C_29  and  O_30 
ROOT
HETATM    1  C   UNL     1     -44.390  58.723 -55.399  1.00  0.00     0.093 C 
HETATM    2  S   UNL     1     -45.245  60.152 -55.083  1.00  0.00    -0.075 SA
HETATM    3  C   UNL     1     -45.302  59.821 -53.424  1.00  0.00    -0.008 C 
HETATM    4  C   UNL     1     -44.783  58.577 -53.107  1.00  0.00    -0.026 C 
HETATM    5  C   UNL     1     -44.879  58.055 -51.701  1.00  0.00     0.041 C 
HETATM    6  C   UNL     1     -45.776  58.917 -50.806  1.00  0.00     0.010 C 
HETATM    7  C   UNL     1     -45.591  60.443 -50.984  1.00  0.00    -0.002 C 
HETATM    8  C   UNL     1     -45.898  60.809 -52.461  1.00  0.00     0.052 C 
HETATM    9  C   UNL     1     -44.121  57.975 -54.256  1.00  0.00     0.073 C 
ENDROOT
BRANCH   9  10
HETATM   10  C   UNL     1     -43.229  56.800 -54.337  1.00  0.00     0.259 C 
HETATM   11  N   UNL     1     -42.037  56.885 -53.672  1.00  0.00    -0.320 N 
HETATM   12  H   UNL     1     -41.223  56.712 -54.256  1.00  0.00     0.169 HD
HETATM   13  O   UNL     1     -43.440  55.899 -55.153  1.00  0.00    -0.267 OA
BRANCH  11  14
HETATM   14  C   UNL     1     -41.794  56.399 -52.362  1.00  0.00     0.068 A 
HETATM   15  C   UNL     1     -41.021  57.219 -51.515  1.00  0.00     0.097 A 
HETATM   16  C   UNL     1     -40.811  56.846 -50.184  1.00  0.00     0.075 A 
HETATM   17  C   UNL     1     -41.372  55.665 -49.694  1.00  0.00     0.070 A 
HETATM   18  C   UNL     1     -42.105  54.840 -50.552  1.00  0.00     0.039 A 
HETATM   19  C   UNL     1     -42.317  55.198 -51.885  1.00  0.00     0.035 A 
BRANCH  15  20
HETATM   20  O   UNL     1     -40.524  58.362 -52.100  1.00  0.00    -0.354 OA
HETATM   21  C   UNL     1     -39.616  59.139 -51.327  1.00  0.00     0.210 C 
ENDBRANCH  15  20
BRANCH  17  22
HETATM   22  O   UNL     1     -41.270  55.205 -48.410  1.00  0.00    -0.356 OA
HETATM   23  C   UNL     1     -40.434  54.074 -48.193  1.00  0.00     0.210 C 
ENDBRANCH  17  22
ENDBRANCH  11  14
ENDBRANCH   9  10
BRANCH   1  24
HETATM   24  N   UNL     1     -43.909  58.483 -56.681  1.00  0.00    -0.319 N 
HETATM   25  C   UNL     1     -42.647  58.808 -57.124  1.00  0.00     0.248 C 
HETATM   26  O   UNL     1     -41.841  59.576 -56.599  1.00  0.00    -0.271 OA
HETATM   27  H   UNL     1     -44.642  58.264 -57.361  1.00  0.00     0.169 HD
BRANCH  25  28
HETATM   28  C   UNL     1     -42.257  58.122 -58.437  1.00  0.00     0.337 C 
BRANCH  28  29
HETATM   29  N   UNL     1     -43.386  57.209 -58.941  1.00  0.00    -0.062 N 
HETATM   30  C   UNL     1     -44.140  57.804 -60.112  1.00  0.00     0.239 C 
HETATM   31  C   UNL     1     -45.378  56.956 -60.424  1.00  0.00     0.007 C 
HETATM   32  C   UNL     1     -46.455  57.085 -59.341  1.00  0.00     0.011 C 
HETATM   33  C   UNL     1     -44.982  55.492 -60.658  1.00  0.00     0.007 C 
HETATM   34  C   UNL     1     -44.127  54.925 -59.528  1.00  0.00     0.028 C 
HETATM   35  C   UNL     1     -42.927  55.807 -59.213  1.00  0.00     0.235 C 
HETATM   36  H   UNL     1     -44.052  57.204 -58.152  1.00  0.00     0.280 HD
ENDBRANCH  28  29
ENDBRANCH  25  28
ENDBRANCH   1  24
BRANCH   7  37
HETATM   37  C   UNL     1     -44.266  61.059 -50.384  1.00  0.00    -0.047 C 
HETATM   38  C   UNL     1     -43.010  60.183 -50.539  1.00  0.00     0.015 C 
HETATM   39  C   UNL     1     -43.968  62.406 -51.087  1.00  0.00     0.015 C 
HETATM   40  C   UNL     1     -44.451  61.367 -48.881  1.00  0.00     0.015 C 
ENDBRANCH   7  37
TORSDOF 8
ENDMDL
MODEL 2
REMARK VINA RESULT:      -7.9      1.845      2.892
REMARK  8 active torsions:
REMARK  status: ('A' for Active; 'I' for Inactive)
REMARK    1  A    between atoms: N_4  and  C_6 
REMARK    2  A    between atoms: C_6  and  C_7 
REMARK       I    between atoms: C_7  and  N_8 
REMARK    3  A    between atoms: N_8  and  C_9 
REMARK    4  A    between atoms: C_15  and  C_16 
REMARK    5  A    between atoms: C_21  and  C_22 
REMARK       I    between atoms: C_22  and  N_23 
REMARK    6  A    between atoms: N_23  and  C_24 
REMARK    7  A    between atoms: C_25  and  O_26 
REMARK    8  A    between atoms: C_29  and  O_30 
ROOT
HETATM    1  C   UNL     1     -43.626  58.852 -54.694  1.00  0.00     0.093 C 
HETATM    2  S   UNL     1     -45.150  59.592 -54.727  1.00  0.00    -0.075 SA
HETATM    3  C   UNL     1     -45.041  60.026 -53.094  1.00  0.00    -0.008 C 
HETATM    4  C   UNL     1     -43.911  59.516 -52.478  1.00  0.00    -0.026 C 
HETATM    5  C   UNL     1     -43.719  59.681 -50.997  1.00  0.00     0.041 C 
HETATM    6  C   UNL     1     -44.966  60.228 -50.293  1.00  0.00     0.010 C 
HETATM    7  C   UNL     1     -45.683  61.374 -51.046  1.00  0.00    -0.002 C 
HETATM    8  C   UNL     1     -46.114  60.852 -52.443  1.00  0.00     0.052 C 
HETATM    9  C   UNL     1     -43.000  58.930 -53.452  1.00  0.00     0.073 C 
ENDROOT
BRANCH   9  10
HETATM   10  C   UNL     1     -41.595  58.497 -53.307  1.00  0.00     0.259 C 
HETATM   11  N   UNL     1     -41.366  57.402 -52.520  1.00  0.00    -0.320 N 
HETATM   12  H   UNL     1     -40.698  57.563 -51.770  1.00  0.00     0.169 HD
HETATM   13  O   UNL     1     -40.667  59.222 -53.675  1.00  0.00    -0.267 OA
BRANCH  11  14
HETATM   14  C   UNL     1     -41.244  56.069 -52.988  1.00  0.00     0.068 A 
HETATM   15  C   UNL     1     -41.908  55.073 -52.243  1.00  0.00     0.097 A 
HETATM   16  C   UNL     1     -41.904  53.748 -52.689  1.00  0.00     0.075 A 
HETATM   17  C   UNL     1     -41.247  53.414 -53.875  1.00  0.00     0.070 A 
HETATM   18  C   UNL     1     -40.559  54.402 -54.586  1.00  0.00     0.039 A 
HETATM   19  C   UNL     1     -40.550  55.728 -54.148  1.00  0.00     0.035 A 
BRANCH  15  20
HETATM   20  O   UNL     1     -42.528  55.515 -51.096  1.00  0.00    -0.354 OA
HETATM   21  C   UNL     1     -43.591  54.715 -50.589  1.00  0.00     0.210 C 
ENDBRANCH  15  20
BRANCH  17  22
HETATM   22  O   UNL     1     -41.195  52.168 -54.436  1.00  0.00    -0.356 OA
HETATM   23  C   UNL     1     -40.060  51.366 -54.127  1.00  0.00     0.210 C 
ENDBRANCH  17  22
ENDBRANCH  11  14
ENDBRANCH   9  10
BRANCH   1  24
HETATM   24  N   UNL     1     -43.069  58.381 -55.877  1.00  0.00    -0.319 N 
HETATM   25  C   UNL     1     -43.211  57.100 -56.362  1.00  0.00     0.248 C 
HETATM   26  O   UNL     1     -43.598  56.104 -55.750  1.00  0.00    -0.271 OA
HETATM   27  H   UNL     1     -42.334  58.985 -56.254  1.00  0.00     0.169 HD
BRANCH  25  28
HETATM   28  C   UNL     1     -42.811  56.948 -57.833  1.00  0.00     0.337 C 
BRANCH  28  29
HETATM   29  N   UNL     1     -43.983  56.417 -58.673  1.00  0.00    -0.062 N 
HETATM   30  C   UNL     1     -44.470  57.421 -59.697  1.00  0.00     0.239 C 
HETATM   31  C   UNL     1     -45.765  56.922 -60.347  1.00  0.00     0.007 C 
HETATM   32  C   UNL     1     -46.951  56.959 -59.376  1.00  0.00     0.011 C 
HETATM   33  C   UNL     1     -45.564  55.522 -60.942  1.00  0.00     0.007 C 
HETATM   34  C   UNL     1     -44.968  54.536 -59.940  1.00  0.00     0.028 C 
HETATM   35  C   UNL     1     -43.705  55.074 -59.281  1.00  0.00     0.235 C 
HETATM   36  H   UNL     1     -44.745  56.329 -57.982  1.00  0.00     0.280 HD
ENDBRANCH  28  29
ENDBRANCH  25  28
ENDBRANCH   1  24
BRANCH   7  37
HETATM   37  C   UNL     1     -44.961  62.779 -51.030  1.00  0.00    -0.047 C 
HETATM   38  C   UNL     1     -44.137  63.105 -52.289  1.00  0.00     0.015 C 
HETATM   39  C   UNL     1     -46.023  63.895 -50.882  1.00  0.00     0.015 C 
HETATM   40  C   UNL     1     -44.023  62.884 -49.806  1.00  0.00     0.015 C 
ENDBRANCH   7  37
TORSDOF 8
ENDMDL
MODEL 3
REMARK VINA RESULT:      -7.6      2.966      9.096
REMARK  8 active torsions:
REMARK  status: ('A' for Active; 'I' for Inactive)
REMARK    1  A    between atoms: N_4  and  C_6 
REMARK    2  A    between atoms: C_6  and  C_7 
REMARK       I    between atoms: C_7  and  N_8 
REMARK    3  A    between atoms: N_8  and  C_9 
REMARK    4  A    between atoms: C_15  and  C_16 
REMARK    5  A    between atoms: C_21  and  C_22 
REMARK       I    between atoms: C_22  and  N_23 
REMARK    6  A    between atoms: N_23  and  C_24 
REMARK    7  A    between atoms: C_25  and  O_26 
REMARK    8  A    between atoms: C_29  and  O_30 
ROOT
HETATM    1  C   UNL     1     -44.090  58.261 -52.097  1.00  0.00     0.093 C 
HETATM    2  S   UNL     1     -43.905  56.948 -51.040  1.00  0.00    -0.075 SA
HETATM    3  C   UNL     1     -43.535  55.898 -52.315  1.00  0.00    -0.008 C 
HETATM    4  C   UNL     1     -43.663  56.495 -53.557  1.00  0.00    -0.026 C 
HETATM    5  C   UNL     1     -43.512  55.676 -54.808  1.00  0.00     0.041 C 
HETATM    6  C   UNL     1     -43.449  54.171 -54.529  1.00  0.00     0.010 C 
HETATM    7  C   UNL     1     -42.577  53.774 -53.313  1.00  0.00    -0.002 C 
HETATM    8  C   UNL     1     -43.149  54.470 -52.049  1.00  0.00     0.052 C 
HETATM    9  C   UNL     1     -43.863  57.932 -53.431  1.00  0.00     0.073 C 
ENDROOT
BRANCH   9  10
HETATM   10  C   UNL     1     -43.805  58.998 -54.452  1.00  0.00     0.259 C 
HETATM   11  N   UNL     1     -43.499  58.612 -55.728  1.00  0.00    -0.320 N 
HETATM   12  H   UNL     1     -42.703  59.101 -56.130  1.00  0.00     0.169 HD
HETATM   13  O   UNL     1     -43.792  60.189 -54.126  1.00  0.00    -0.267 OA
BRANCH  11  14
HETATM   14  C   UNL     1     -44.445  58.329 -56.745  1.00  0.00     0.068 A 
HETATM   15  C   UNL     1     -43.956  57.697 -57.908  1.00  0.00     0.097 A 
HETATM   16  C   UNL     1     -44.842  57.310 -58.918  1.00  0.00     0.075 A 
HETATM   17  C   UNL     1     -46.211  57.544 -58.772  1.00  0.00     0.070 A 
HETATM   18  C   UNL     1     -46.682  58.206 -57.634  1.00  0.00     0.039 A 
HETATM   19  C   UNL     1     -45.807  58.603 -56.620  1.00  0.00     0.035 A 
BRANCH  15  20
HETATM   20  O   UNL     1     -42.593  57.509 -57.942  1.00  0.00    -0.354 OA
HETATM   21  C   UNL     1     -41.882  58.139 -59.002  1.00  0.00     0.210 C 
ENDBRANCH  15  20
BRANCH  17  22
HETATM   22  O   UNL     1     -47.182  57.188 -59.667  1.00  0.00    -0.356 OA
HETATM   23  C   UNL     1     -46.827  56.229 -60.658  1.00  0.00     0.210 C 
ENDBRANCH  17  22
ENDBRANCH  11  14
ENDBRANCH   9  10
BRANCH   1  24
HETATM   24  N   UNL     1     -44.291  59.534 -51.577  1.00  0.00    -0.319 N 
HETATM   25  C   UNL     1     -45.211  59.853 -50.603  1.00  0.00     0.248 C 
HETATM   26  O   UNL     1     -46.169  59.178 -50.225  1.00  0.00    -0.271 OA
HETATM   27  H   UNL     1     -43.873  60.278 -52.140  1.00  0.00     0.169 HD
BRANCH  25  28
HETATM   28  C   UNL     1     -44.983  61.226 -49.963  1.00  0.00     0.337 C 
BRANCH  28  29
HETATM   29  N   UNL     1     -45.705  61.333 -48.611  1.00  0.00    -0.062 N 
HETATM   30  C   UNL     1     -44.776  61.116 -47.434  1.00  0.00     0.239 C 
HETATM   31  C   UNL     1     -45.588  61.019 -46.137  1.00  0.00     0.007 C 
HETATM   32  C   UNL     1     -46.400  59.721 -46.058  1.00  0.00     0.011 C 
HETATM   33  C   UNL     1     -46.479  62.256 -45.966  1.00  0.00     0.007 C 
HETATM   34  C   UNL     1     -47.335  62.540 -47.198  1.00  0.00     0.028 C 
HETATM   35  C   UNL     1     -46.510  62.592 -48.476  1.00  0.00     0.235 C 
HETATM   36  H   UNL     1     -46.341  60.519 -48.620  1.00  0.00     0.280 HD
ENDBRANCH  28  29
ENDBRANCH  25  28
ENDBRANCH   1  24
BRANCH   7  37
HETATM   37  C   UNL     1     -41.013  53.883 -53.511  1.00  0.00    -0.047 C 
HETATM   38  C   UNL     1     -40.533  55.153 -54.236  1.00  0.00     0.015 C 
HETATM   39  C   UNL     1     -40.324  53.864 -52.125  1.00  0.00     0.015 C 
HETATM   40  C   UNL     1     -40.486  52.659 -54.293  1.00  0.00     0.015 C 
ENDBRANCH   7  37
TORSDOF 8
ENDMDL
MODEL 4
REMARK VINA RESULT:      -7.5      2.196      6.891
REMARK  8 active torsions:
REMARK  status: ('A' for Active; 'I' for Inactive)
REMARK    1  A    between atoms: N_4  and  C_6 
REMARK    2  A    between atoms: C_6  and  C_7 
REMARK       I    between atoms: C_7  and  N_8 
REMARK    3  A    between atoms: N_8  and  C_9 
REMARK    4  A    between atoms: C_15  and  C_16 
REMARK    5  A    between atoms: C_21  and  C_22 
REMARK       I    between atoms: C_22  and  N_23 
REMARK    6  A    between atoms: N_23  and  C_24 
REMARK    7  A    between atoms: C_25  and  O_26 
REMARK    8  A    between atoms: C_29  and  O_30 
ROOT
HETATM    1  C   UNL     1     -42.700  58.773 -53.998  1.00  0.00     0.093 C 
HETATM    2  S   UNL     1     -42.022  59.557 -55.339  1.00  0.00    -0.075 SA
HETATM    3  C   UNL     1     -42.445  58.284 -56.372  1.00  0.00    -0.008 C 
HETATM    4  C   UNL     1     -42.994  57.206 -55.698  1.00  0.00    -0.026 C 
HETATM    5  C   UNL     1     -43.300  55.932 -56.434  1.00  0.00     0.041 C 
HETATM    6  C   UNL     1     -42.733  55.917 -57.858  1.00  0.00     0.010 C 
HETATM    7  C   UNL     1     -42.906  57.243 -58.636  1.00  0.00    -0.002 C 
HETATM    8  C   UNL     1     -42.189  58.374 -57.850  1.00  0.00     0.052 C 
HETATM    9  C   UNL     1     -43.271  57.540 -54.308  1.00  0.00     0.073 C 
ENDROOT
BRANCH   9  10
HETATM   10  C   UNL     1     -44.062  56.819 -53.290  1.00  0.00     0.259 C 
HETATM   11  N   UNL     1     -43.799  55.485 -53.138  1.00  0.00    -0.320 N 
HETATM   12  H   UNL     1     -44.615  54.887 -53.236  1.00  0.00     0.169 HD
HETATM   13  O   UNL     1     -45.063  57.332 -52.783  1.00  0.00    -0.267 OA
BRANCH  11  14
HETATM   14  C   UNL     1     -42.916  54.930 -52.176  1.00  0.00     0.068 A 
HETATM   15  C   UNL     1     -41.849  54.152 -52.670  1.00  0.00     0.097 A 
HETATM   16  C   UNL     1     -40.890  53.643 -51.790  1.00  0.00     0.075 A 
HETATM   17  C   UNL     1     -40.987  53.909 -50.423  1.00  0.00     0.070 A 
HETATM   18  C   UNL     1     -42.071  54.649 -49.938  1.00  0.00     0.039 A 
HETATM   19  C   UNL     1     -43.038  55.159 -50.806  1.00  0.00     0.035 A 
BRANCH  15  20
HETATM   20  O   UNL     1     -41.847  53.960 -54.033  1.00  0.00    -0.354 OA
HETATM   21  C   UNL     1     -40.592  54.064 -54.697  1.00  0.00     0.210 C 
ENDBRANCH  15  20
BRANCH  17  22
HETATM   22  O   UNL     1     -40.102  53.499 -49.464  1.00  0.00    -0.356 OA
HETATM   23  C   UNL     1     -40.311  53.985 -48.142  1.00  0.00     0.210 C 
ENDBRANCH  17  22
ENDBRANCH  11  14
ENDBRANCH   9  10
BRANCH   1  24
HETATM   24  N   UNL     1     -42.775  59.441 -52.781  1.00  0.00    -0.319 N 
HETATM   25  C   UNL     1     -41.974  59.187 -51.691  1.00  0.00     0.248 C 
HETATM   26  O   UNL     1     -41.270  58.198 -51.490  1.00  0.00    -0.271 OA
HETATM   27  H   UNL     1     -43.637  59.980 -52.662  1.00  0.00     0.169 HD
BRANCH  25  28
HETATM   28  C   UNL     1     -42.017  60.286 -50.624  1.00  0.00     0.337 C 
BRANCH  28  29
HETATM   29  N   UNL     1     -43.288  61.139 -50.759  1.00  0.00    -0.062 N 
HETATM   30  C   UNL     1     -44.407  60.667 -49.853  1.00  0.00     0.239 C 
HETATM   31  C   UNL     1     -45.703  61.413 -50.189  1.00  0.00     0.007 C 
HETATM   32  C   UNL     1     -46.281  60.987 -51.544  1.00  0.00     0.011 C 
HETATM   33  C   UNL     1     -45.485  62.930 -50.118  1.00  0.00     0.007 C 
HETATM   34  C   UNL     1     -44.287  63.393 -50.943  1.00  0.00     0.028 C 
HETATM   35  C   UNL     1     -43.024  62.609 -50.617  1.00  0.00     0.235 C 
HETATM   36  H   UNL     1     -43.603  60.938 -51.721  1.00  0.00     0.280 HD
ENDBRANCH  28  29
ENDBRANCH  25  28
ENDBRANCH   1  24
BRANCH   7  37
HETATM   37  C   UNL     1     -44.368  57.573 -59.137  1.00  0.00    -0.047 C 
HETATM   38  C   UNL     1     -45.276  58.253 -58.097  1.00  0.00     0.015 C 
HETATM   39  C   UNL     1     -44.285  58.523 -60.357  1.00  0.00     0.015 C 
HETATM   40  C   UNL     1     -45.073  56.284 -59.616  1.00  0.00     0.015 C 
ENDBRANCH   7  37
TORSDOF 8
ENDMDL
MODEL 5
REMARK VINA RESULT:      -7.4      2.490      7.145
REMARK  8 active torsions:
REMARK  status: ('A' for Active; 'I' for Inactive)
REMARK    1  A    between atoms: N_4  and  C_6 
REMARK    2  A    between atoms: C_6  and  C_7 
REMARK       I    between atoms: C_7  and  N_8 
REMARK    3  A    between atoms: N_8  and  C_9 
REMARK    4  A    between atoms: C_15  and  C_16 
REMARK    5  A    between atoms: C_21  and  C_22 
REMARK       I    between atoms: C_22  and  N_23 
REMARK    6  A    between atoms: N_23  and  C_24 
REMARK    7  A    between atoms: C_25  and  O_26 
REMARK    8  A    between atoms: C_29  and  O_30 
ROOT
HETATM    1  C   UNL     1     -42.285  58.430 -55.795  1.00  0.00     0.093 C 
HETATM    2  S   UNL     1     -42.093  59.247 -57.267  1.00  0.00    -0.075 SA
HETATM    3  C   UNL     1     -42.918  58.035 -58.115  1.00  0.00    -0.008 C 
HETATM    4  C   UNL     1     -43.241  56.949 -57.319  1.00  0.00    -0.026 C 
HETATM    5  C   UNL     1     -43.849  55.719 -57.932  1.00  0.00     0.041 C 
HETATM    6  C   UNL     1     -43.830  55.745 -59.464  1.00  0.00     0.010 C 
HETATM    7  C   UNL     1     -44.205  57.109 -60.092  1.00  0.00    -0.002 C 
HETATM    8  C   UNL     1     -43.202  58.180 -59.583  1.00  0.00     0.052 C 
HETATM    9  C   UNL     1     -42.987  57.232 -55.913  1.00  0.00     0.073 C 
ENDROOT
BRANCH   9  10
HETATM   10  C   UNL     1     -43.396  56.496 -54.701  1.00  0.00     0.259 C 
HETATM   11  N   UNL     1     -43.317  55.131 -54.753  1.00  0.00    -0.320 N 
HETATM   12  H   UNL     1     -44.188  54.656 -54.530  1.00  0.00     0.169 HD
HETATM   13  O   UNL     1     -44.000  57.064 -53.787  1.00  0.00    -0.267 OA
BRANCH  11  14
HETATM   14  C   UNL     1     -42.222  54.357 -54.293  1.00  0.00     0.068 A 
HETATM   15  C   UNL     1     -42.291  53.888 -52.965  1.00  0.00     0.097 A 
HETATM   16  C   UNL     1     -41.290  53.049 -52.467  1.00  0.00     0.075 A 
HETATM   17  C   UNL     1     -40.226  52.671 -53.287  1.00  0.00     0.070 A 
HETATM   18  C   UNL     1     -40.146  53.172 -54.591  1.00  0.00     0.039 A 
HETATM   19  C   UNL     1     -41.136  54.016 -55.098  1.00  0.00     0.035 A 
BRANCH  15  20
HETATM   20  O   UNL     1     -43.387  54.316 -52.249  1.00  0.00    -0.354 OA
HETATM   21  C   UNL     1     -43.183  54.606 -50.871  1.00  0.00     0.210 C 
ENDBRANCH  15  20
BRANCH  17  22
HETATM   22  O   UNL     1     -39.204  51.833 -52.935  1.00  0.00    -0.356 OA
HETATM   23  C   UNL     1     -39.428  50.972 -51.825  1.00  0.00     0.210 C 
ENDBRANCH  17  22
ENDBRANCH  11  14
ENDBRANCH   9  10
BRANCH   1  24
HETATM   24  N   UNL     1     -41.889  59.047 -54.614  1.00  0.00    -0.319 N 
HETATM   25  C   UNL     1     -42.590  60.041 -53.969  1.00  0.00     0.248 C 
HETATM   26  O   UNL     1     -43.501  60.733 -54.423  1.00  0.00    -0.271 OA
HETATM   27  H   UNL     1     -40.908  58.883 -54.374  1.00  0.00     0.169 HD
BRANCH  25  28
HETATM   28  C   UNL     1     -42.130  60.287 -52.529  1.00  0.00     0.337 C 
BRANCH  28  29
HETATM   29  N   UNL     1     -43.311  60.685 -51.631  1.00  0.00    -0.062 N 
HETATM   30  C   UNL     1     -44.090  59.488 -51.124  1.00  0.00     0.239 C 
HETATM   31  C   UNL     1     -45.370  59.954 -50.422  1.00  0.00     0.007 C 
HETATM   32  C   UNL     1     -46.397  60.522 -51.409  1.00  0.00     0.011 C 
HETATM   33  C   UNL     1     -45.039  60.956 -49.309  1.00  0.00     0.007 C 
HETATM   34  C   UNL     1     -44.160  62.107 -49.794  1.00  0.00     0.028 C 
HETATM   35  C   UNL     1     -42.916  61.616 -50.522  1.00  0.00     0.235 C 
HETATM   36  H   UNL     1     -43.945  61.177 -52.281  1.00  0.00     0.280 HD
ENDBRANCH  28  29
ENDBRANCH  25  28
ENDBRANCH   1  24
BRANCH   7  37
HETATM   37  C   UNL     1     -45.732  57.511 -60.026  1.00  0.00    -0.047 C 
HETATM   38  C   UNL     1     -46.304  57.674 -58.606  1.00  0.00     0.015 C 
HETATM   39  C   UNL     1     -45.934  58.862 -60.754  1.00  0.00     0.015 C 
HETATM   40  C   UNL     1     -46.593  56.466 -60.770  1.00  0.00     0.015 C 
ENDBRANCH   7  37
TORSDOF 8
ENDMDL
MODEL 6
REMARK VINA RESULT:      -7.4      3.232      6.441
REMARK  8 active torsions:
REMARK  status: ('A' for Active; 'I' for Inactive)
REMARK    1  A    between atoms: N_4  and  C_6 
REMARK    2  A    between atoms: C_6  and  C_7 
REMARK       I    between atoms: C_7  and  N_8 
REMARK    3  A    between atoms: N_8  and  C_9 
REMARK    4  A    between atoms: C_15  and  C_16 
REMARK    5  A    between atoms: C_21  and  C_22 
REMARK       I    between atoms: C_22  and  N_23 
REMARK    6  A    between atoms: N_23  and  C_24 
REMARK    7  A    between atoms: C_25  and  O_26 
REMARK    8  A    between atoms: C_29  and  O_30 
ROOT
HETATM    1  C   UNL     1     -42.524  55.126 -54.102  1.00  0.00     0.093 C 
HETATM    2  S   UNL     1     -41.425  54.614 -55.286  1.00  0.00    -0.075 SA
HETATM    3  C   UNL     1     -40.637  53.586 -54.195  1.00  0.00    -0.008 C 
HETATM    4  C   UNL     1     -41.118  53.706 -52.903  1.00  0.00    -0.026 C 
HETATM    5  C   UNL     1     -40.444  52.974 -51.776  1.00  0.00     0.041 C 
HETATM    6  C   UNL     1     -39.116  52.333 -52.193  1.00  0.00     0.010 C 
HETATM    7  C   UNL     1     -39.140  51.638 -53.575  1.00  0.00    -0.002 C 
HETATM    8  C   UNL     1     -39.520  52.691 -54.651  1.00  0.00     0.052 C 
HETATM    9  C   UNL     1     -42.325  54.520 -52.863  1.00  0.00     0.073 C 
ENDROOT
BRANCH   9  10
HETATM   10  C   UNL     1     -43.309  54.718 -51.780  1.00  0.00     0.259 C 
HETATM   11  N   UNL     1     -43.083  55.763 -50.926  1.00  0.00    -0.320 N 
HETATM   12  H   UNL     1     -43.050  55.497 -49.946  1.00  0.00     0.169 HD
HETATM   13  O   UNL     1     -44.147  53.851 -51.517  1.00  0.00    -0.267 OA
BRANCH  11  14
HETATM   14  C   UNL     1     -43.648  57.057 -51.049  1.00  0.00     0.068 A 
HETATM   15  C   UNL     1     -42.759  58.113 -51.340  1.00  0.00     0.097 A 
HETATM   16  C   UNL     1     -43.252  59.402 -51.559  1.00  0.00     0.075 A 
HETATM   17  C   UNL     1     -44.626  59.642 -51.496  1.00  0.00     0.070 A 
HETATM   18  C   UNL     1     -45.497  58.598 -51.169  1.00  0.00     0.039 A 
HETATM   19  C   UNL     1     -45.016  57.306 -50.942  1.00  0.00     0.035 A 
BRANCH  15  20
HETATM   20  O   UNL     1     -41.429  57.761 -51.385  1.00  0.00    -0.354 OA
HETATM   21  C   UNL     1     -40.491  58.812 -51.588  1.00  0.00     0.210 C 
ENDBRANCH  15  20
BRANCH  17  22
HETATM   22  O   UNL     1     -45.238  60.845 -51.721  1.00  0.00    -0.356 OA
HETATM   23  C   UNL     1     -45.566  61.627 -50.578  1.00  0.00     0.210 C 
ENDBRANCH  17  22
ENDBRANCH  11  14
ENDBRANCH   9  10
BRANCH   1  24
HETATM   24  N   UNL     1     -43.584  55.949 -54.463  1.00  0.00    -0.319 N 
HETATM   25  C   UNL     1     -43.462  57.253 -54.888  1.00  0.00     0.248 C 
HETATM   26  O   UNL     1     -42.484  57.992 -54.774  1.00  0.00    -0.271 OA
HETATM   27  H   UNL     1     -44.497  55.599 -54.161  1.00  0.00     0.169 HD
BRANCH  25  28
HETATM   28  C   UNL     1     -44.724  57.805 -55.558  1.00  0.00     0.337 C 
BRANCH  28  29
HETATM   29  N   UNL     1     -44.779  57.414 -57.043  1.00  0.00    -0.062 N 
HETATM   30  C   UNL     1     -45.388  58.497 -57.910  1.00  0.00     0.239 C 
HETATM   31  C   UNL     1     -45.613  57.966 -59.331  1.00  0.00     0.007 C 
HETATM   32  C   UNL     1     -46.744  56.932 -59.389  1.00  0.00     0.011 C 
HETATM   33  C   UNL     1     -44.306  57.409 -59.911  1.00  0.00     0.007 C 
HETATM   34  C   UNL     1     -43.634  56.399 -58.984  1.00  0.00     0.028 C 
HETATM   35  C   UNL     1     -43.458  56.937 -57.571  1.00  0.00     0.235 C 
HETATM   36  H   UNL     1     -45.455  56.633 -57.054  1.00  0.00     0.280 HD
ENDBRANCH  28  29
ENDBRANCH  25  28
ENDBRANCH   1  24
BRANCH   7  37
HETATM   37  C   UNL     1     -39.918  50.265 -53.652  1.00  0.00    -0.047 C 
HETATM   38  C   UNL     1     -41.336  50.349 -54.243  1.00  0.00     0.015 C 
HETATM   39  C   UNL     1     -39.117  49.276 -54.534  1.00  0.00     0.015 C 
HETATM   40  C   UNL     1     -40.023  49.630 -52.246  1.00  0.00     0.015 C 
ENDBRANCH   7  37
TORSDOF 8
ENDMDL
MODEL 7
REMARK VINA RESULT:      -7.2     17.966     20.621
REMARK  8 active torsions:
REMARK  status: ('A' for Active; 'I' for Inactive)
REMARK    1  A    between atoms: N_4  and  C_6 
REMARK    2  A    between atoms: C_6  and  C_7 
REMARK       I    between atoms: C_7  and  N_8 
REMARK    3  A    between atoms: N_8  and  C_9 
REMARK    4  A    between atoms: C_15  and  C_16 
REMARK    5  A    between atoms: C_21  and  C_22 
REMARK       I    between atoms: C_22  and  N_23 
REMARK    6  A    between atoms: N_23  and  C_24 
REMARK    7  A    between atoms: C_25  and  O_26 
REMARK    8  A    between atoms: C_29  and  O_30 
ROOT
HETATM    1  C   UNL     1     -36.721  39.654 -52.756  1.00  0.00     0.093 C 
HETATM    2  S   UNL     1     -37.841  40.818 -53.269  1.00  0.00    -0.075 SA
HETATM    3  C   UNL     1     -36.891  41.227 -54.610  1.00  0.00    -0.008 C 
HETATM    4  C   UNL     1     -35.669  40.577 -54.619  1.00  0.00    -0.026 C 
HETATM    5  C   UNL     1     -34.638  40.923 -55.657  1.00  0.00     0.041 C 
HETATM    6  C   UNL     1     -35.009  42.165 -56.474  1.00  0.00     0.010 C 
HETATM    7  C   UNL     1     -36.495  42.237 -56.900  1.00  0.00    -0.002 C 
HETATM    8  C   UNL     1     -37.376  42.226 -55.622  1.00  0.00     0.052 C 
HETATM    9  C   UNL     1     -35.614  39.543 -53.595  1.00  0.00     0.073 C 
ENDROOT
BRANCH   9  10
HETATM   10  C   UNL     1     -34.641  38.451 -53.390  1.00  0.00     0.259 C 
HETATM   11  N   UNL     1     -33.410  38.806 -52.912  1.00  0.00    -0.320 N 
HETATM   12  H   UNL     1     -32.634  38.493 -53.490  1.00  0.00     0.169 HD
HETATM   13  O   UNL     1     -34.846  37.324 -53.850  1.00  0.00    -0.267 OA
BRANCH  11  14
HETATM   14  C   UNL     1     -33.024  38.783 -51.548  1.00  0.00     0.068 A 
HETATM   15  C   UNL     1     -32.960  40.027 -50.886  1.00  0.00     0.097 A 
HETATM   16  C   UNL     1     -32.670  40.077 -49.520  1.00  0.00     0.075 A 
HETATM   17  C   UNL     1     -32.449  38.895 -48.810  1.00  0.00     0.070 A 
HETATM   18  C   UNL     1     -32.477  37.669 -49.482  1.00  0.00     0.039 A 
HETATM   19  C   UNL     1     -32.760  37.606 -50.849  1.00  0.00     0.035 A 
BRANCH  15  20
HETATM   20  O   UNL     1     -33.202  41.125 -51.680  1.00  0.00    -0.354 OA
HETATM   21  C   UNL     1     -34.254  41.993 -51.275  1.00  0.00     0.210 C 
ENDBRANCH  15  20
BRANCH  17  22
HETATM   22  O   UNL     1     -32.189  38.804 -47.470  1.00  0.00    -0.356 OA
HETATM   23  C   UNL     1     -30.976  39.385 -47.006  1.00  0.00     0.210 C 
ENDBRANCH  17  22
ENDBRANCH  11  14
ENDBRANCH   9  10
BRANCH   1  24
HETATM   24  N   UNL     1     -37.036  38.828 -51.684  1.00  0.00    -0.319 N 
HETATM   25  C   UNL     1     -37.113  39.234 -50.371  1.00  0.00     0.248 C 
HETATM   26  O   UNL     1     -36.674  40.273 -49.879  1.00  0.00    -0.271 OA
HETATM   27  H   UNL     1     -36.973  37.830 -51.902  1.00  0.00     0.169 HD
BRANCH  25  28
HETATM   28  C   UNL     1     -37.820  38.231 -49.454  1.00  0.00     0.337 C 
BRANCH  28  29
HETATM   29  N   UNL     1     -39.340  38.454 -49.457  1.00  0.00    -0.062 N 
HETATM   30  C   UNL     1     -40.059  37.574 -50.460  1.00  0.00     0.239 C 
HETATM   31  C   UNL     1     -41.528  37.995 -50.569  1.00  0.00     0.007 C 
HETATM   32  C   UNL     1     -41.691  39.352 -51.264  1.00  0.00     0.011 C 
HETATM   33  C   UNL     1     -42.196  37.983 -49.188  1.00  0.00     0.007 C 
HETATM   34  C   UNL     1     -41.412  38.779 -48.147  1.00  0.00     0.028 C 
HETATM   35  C   UNL     1     -39.948  38.368 -48.088  1.00  0.00     0.235 C 
HETATM   36  H   UNL     1     -39.434  39.419 -49.813  1.00  0.00     0.280 HD
ENDBRANCH  28  29
ENDBRANCH  25  28
ENDBRANCH   1  24
BRANCH   7  37
HETATM   37  C   UNL     1     -36.940  41.250 -58.051  1.00  0.00    -0.047 C 
HETATM   38  C   UNL     1     -35.943  40.120 -58.365  1.00  0.00     0.015 C 
HETATM   39  C   UNL     1     -38.277  40.577 -57.655  1.00  0.00     0.015 C 
HETATM   40  C   UNL     1     -37.200  42.033 -59.357  1.00  0.00     0.015 C 
ENDBRANCH   7  37
TORSDOF 8
ENDMDL
MODEL 8
REMARK VINA RESULT:      -7.2      2.157      7.247
REMARK  8 active torsions:
REMARK  status: ('A' for Active; 'I' for Inactive)
REMARK    1  A    between atoms: N_4  and  C_6 
REMARK    2  A    between atoms: C_6  and  C_7 
REMARK       I    between atoms: C_7  and  N_8 
REMARK    3  A    between atoms: N_8  and  C_9 
REMARK    4  A    between atoms: C_15  and  C_16 
REMARK    5  A    between atoms: C_21  and  C_22 
REMARK       I    between atoms: C_22  and  N_23 
REMARK    6  A    between atoms: N_23  and  C_24 
REMARK    7  A    between atoms: C_25  and  O_26 
REMARK    8  A    between atoms: C_29  and  O_30 
ROOT
HETATM    1  C   UNL     1     -43.658  60.631 -57.033  1.00  0.00     0.093 C 
HETATM    2  S   UNL     1     -44.434  60.712 -58.538  1.00  0.00    -0.075 SA
HETATM    3  C   UNL     1     -43.727  59.260 -59.047  1.00  0.00    -0.008 C 
HETATM    4  C   UNL     1     -42.810  58.763 -58.137  1.00  0.00    -0.026 C 
HETATM    5  C   UNL     1     -41.981  57.558 -58.483  1.00  0.00     0.041 C 
HETATM    6  C   UNL     1     -42.110  57.149 -59.954  1.00  0.00     0.010 C 
HETATM    7  C   UNL     1     -43.551  57.202 -60.516  1.00  0.00    -0.002 C 
HETATM    8  C   UNL     1     -44.082  58.654 -60.375  1.00  0.00     0.052 C 
HETATM    9  C   UNL     1     -42.860  59.500 -56.882  1.00  0.00     0.073 C 
ENDROOT
BRANCH   9  10
HETATM   10  C   UNL     1     -42.265  59.189 -55.566  1.00  0.00     0.259 C 
HETATM   11  N   UNL     1     -42.904  58.246 -54.809  1.00  0.00    -0.320 N 
HETATM   12  H   UNL     1     -43.156  58.563 -53.877  1.00  0.00     0.169 HD
HETATM   13  O   UNL     1     -41.389  59.909 -55.081  1.00  0.00    -0.267 OA
BRANCH  11  14
HETATM   14  C   UNL     1     -42.571  56.868 -54.768  1.00  0.00     0.068 A 
HETATM   15  C   UNL     1     -41.775  56.440 -53.686  1.00  0.00     0.097 A 
HETATM   16  C   UNL     1     -41.476  55.084 -53.531  1.00  0.00     0.075 A 
HETATM   17  C   UNL     1     -41.973  54.152 -54.445  1.00  0.00     0.070 A 
HETATM   18  C   UNL     1     -42.730  54.590 -55.536  1.00  0.00     0.039 A 
HETATM   19  C   UNL     1     -43.029  55.943 -55.706  1.00  0.00     0.035 A 
BRANCH  15  20
HETATM   20  O   UNL     1     -41.347  57.441 -52.843  1.00  0.00    -0.354 OA
HETATM   21  C   UNL     1     -41.186  57.103 -51.470  1.00  0.00     0.210 C 
ENDBRANCH  15  20
BRANCH  17  22
HETATM   22  O   UNL     1     -41.782  52.799 -54.389  1.00  0.00    -0.356 OA
HETATM   23  C   UNL     1     -40.440  52.338 -54.285  1.00  0.00     0.210 C 
ENDBRANCH  17  22
ENDBRANCH  11  14
ENDBRANCH   9  10
BRANCH   1  24
HETATM   24  N   UNL     1     -43.973  61.563 -56.051  1.00  0.00    -0.319 N 
HETATM   25  C   UNL     1     -44.973  61.418 -55.116  1.00  0.00     0.248 C 
HETATM   26  O   UNL     1     -45.908  60.618 -55.134  1.00  0.00    -0.271 OA
HETATM   27  H   UNL     1     -43.567  62.488 -56.217  1.00  0.00     0.169 HD
BRANCH  25  28
HETATM   28  C   UNL     1     -44.873  62.403 -53.947  1.00  0.00     0.337 C 
BRANCH  28  29
HETATM   29  N   UNL     1     -44.883  61.665 -52.599  1.00  0.00    -0.062 N 
HETATM   30  C   UNL     1     -43.546  61.034 -52.269  1.00  0.00     0.239 C 
HETATM   31  C   UNL     1     -43.680  60.139 -51.032  1.00  0.00     0.007 C 
HETATM   32  C   UNL     1     -44.491  58.870 -51.322  1.00  0.00     0.011 C 
HETATM   33  C   UNL     1     -44.266  60.930 -49.856  1.00  0.00     0.007 C 
HETATM   34  C   UNL     1     -45.557  61.658 -50.221  1.00  0.00     0.028 C 
HETATM   35  C   UNL     1     -45.407  62.508 -51.474  1.00  0.00     0.235 C 
HETATM   36  H   UNL     1     -45.530  60.878 -52.768  1.00  0.00     0.280 HD
ENDBRANCH  28  29
ENDBRANCH  25  28
ENDBRANCH   1  24
BRANCH   7  37
HETATM   37  C   UNL     1     -44.531  56.061 -60.030  1.00  0.00    -0.047 C 
HETATM   38  C   UNL     1     -43.919  55.050 -59.044  1.00  0.00     0.015 C 
HETATM   39  C   UNL     1     -45.749  56.704 -59.323  1.00  0.00     0.015 C 
HETATM   40  C   UNL     1     -45.078  55.275 -61.243  1.00  0.00     0.015 C 
ENDBRANCH   7  37
TORSDOF 8
ENDMDL
MODEL 9
REMARK VINA RESULT:      -7.2      3.254      8.293
REMARK  8 active torsions:
REMARK  status: ('A' for Active; 'I' for Inactive)
REMARK    1  A    between atoms: N_4  and  C_6 
REMARK    2  A    between atoms: C_6  and  C_7 
REMARK       I    between atoms: C_7  and  N_8 
REMARK    3  A    between atoms: N_8  and  C_9 
REMARK    4  A    between atoms: C_15  and  C_16 
REMARK    5  A    between atoms: C_21  and  C_22 
REMARK       I    between atoms: C_22  and  N_23 
REMARK    6  A    between atoms: N_23  and  C_24 
REMARK    7  A    between atoms: C_25  and  O_26 
REMARK    8  A    between atoms: C_29  and  O_30 
ROOT
HETATM    1  C   UNL     1     -43.110  58.207 -52.528  1.00  0.00     0.093 C 
HETATM    2  S   UNL     1     -43.756  56.743 -51.969  1.00  0.00    -0.075 SA
HETATM    3  C   UNL     1     -43.138  55.895 -53.298  1.00  0.00    -0.008 C 
HETATM    4  C   UNL     1     -42.542  56.724 -54.233  1.00  0.00    -0.026 C 
HETATM    5  C   UNL     1     -42.063  56.163 -55.542  1.00  0.00     0.041 C 
HETATM    6  C   UNL     1     -42.517  54.717 -55.772  1.00  0.00     0.010 C 
HETATM    7  C   UNL     1     -42.412  53.802 -54.529  1.00  0.00    -0.002 C 
HETATM    8  C   UNL     1     -43.289  54.403 -53.398  1.00  0.00     0.052 C 
HETATM    9  C   UNL     1     -42.404  58.081 -53.722  1.00  0.00     0.073 C 
ENDROOT
BRANCH   9  10
HETATM   10  C   UNL     1     -41.627  59.224 -54.243  1.00  0.00     0.259 C 
HETATM   11  N   UNL     1     -41.987  59.703 -55.472  1.00  0.00    -0.320 N 
HETATM   12  H   UNL     1     -41.224  59.734 -56.144  1.00  0.00     0.169 HD
HETATM   13  O   UNL     1     -40.568  59.567 -53.710  1.00  0.00    -0.267 OA
BRANCH  11  14
HETATM   14  C   UNL     1     -42.866  60.791 -55.701  1.00  0.00     0.068 A 
HETATM   15  C   UNL     1     -42.780  61.422 -56.960  1.00  0.00     0.097 A 
HETATM   16  C   UNL     1     -43.672  62.447 -57.290  1.00  0.00     0.075 A 
HETATM   17  C   UNL     1     -44.650  62.841 -56.375  1.00  0.00     0.070 A 
HETATM   18  C   UNL     1     -44.703  62.237 -55.115  1.00  0.00     0.039 A 
HETATM   19  C   UNL     1     -43.814  61.216 -54.771  1.00  0.00     0.035 A 
BRANCH  15  20
HETATM   20  O   UNL     1     -41.785  60.949 -57.784  1.00  0.00    -0.354 OA
HETATM   21  C   UNL     1     -40.874  61.907 -58.310  1.00  0.00     0.210 C 
ENDBRANCH  15  20
BRANCH  17  22
HETATM   22  O   UNL     1     -45.599  63.804 -56.586  1.00  0.00    -0.356 OA
HETATM   23  C   UNL     1     -46.948  63.457 -56.292  1.00  0.00     0.210 C 
ENDBRANCH  17  22
ENDBRANCH  11  14
ENDBRANCH   9  10
BRANCH   1  24
HETATM   24  N   UNL     1     -43.190  59.339 -51.726  1.00  0.00    -0.319 N 
HETATM   25  C   UNL     1     -42.240  59.725 -50.808  1.00  0.00     0.248 C 
HETATM   26  O   UNL     1     -41.326  59.045 -50.341  1.00  0.00    -0.271 OA
HETATM   27  H   UNL     1     -44.127  59.749 -51.687  1.00  0.00     0.169 HD
BRANCH  25  28
HETATM   28  C   UNL     1     -42.394  61.173 -50.329  1.00  0.00     0.337 C 
BRANCH  28  29
HETATM   29  N   UNL     1     -43.705  61.788 -50.843  1.00  0.00    -0.062 N 
HETATM   30  C   UNL     1     -44.882  61.501 -49.934  1.00  0.00     0.239 C 
HETATM   31  C   UNL     1     -46.185  61.950 -50.605  1.00  0.00     0.007 C 
HETATM   32  C   UNL     1     -46.562  61.055 -51.792  1.00  0.00     0.011 C 
HETATM   33  C   UNL     1     -46.100  63.426 -51.014  1.00  0.00     0.007 C 
HETATM   34  C   UNL     1     -44.854  63.739 -51.838  1.00  0.00     0.028 C 
HETATM   35  C   UNL     1     -43.578  63.248 -51.167  1.00  0.00     0.235 C 
HETATM   36  H   UNL     1     -43.887  61.259 -51.712  1.00  0.00     0.280 HD
ENDBRANCH  28  29
ENDBRANCH  25  28
ENDBRANCH   1  24
BRANCH   7  37
HETATM   37  C   UNL     1     -40.954  53.361 -54.108  1.00  0.00    -0.047 C 
HETATM   38  C   UNL     1     -40.562  53.698 -52.659  1.00  0.00     0.015 C 
HETATM   39  C   UNL     1     -40.821  51.827 -54.269  1.00  0.00     0.015 C 
HETATM   40  C   UNL     1     -39.909  54.005 -55.047  1.00  0.00     0.015 C 
ENDBRANCH   7  37
TORSDOF 8
ENDMDL
MODEL 10
REMARK VINA RESULT:      -7.1      3.344      9.327
REMARK  8 active torsions:
REMARK  status: ('A' for Active; 'I' for Inactive)
REMARK    1  A    between atoms: N_4  and  C_6 
REMARK    2  A    between atoms: C_6  and  C_7 
REMARK       I    between atoms: C_7  and  N_8 
REMARK    3  A    between atoms: N_8  and  C_9 
REMARK    4  A    between atoms: C_15  and  C_16 
REMARK    5  A    between atoms: C_21  and  C_22 
REMARK       I    between atoms: C_22  and  N_23 
REMARK    6  A    between atoms: N_23  and  C_24 
REMARK    7  A    between atoms: C_25  and  O_26 
REMARK    8  A    between atoms: C_29  and  O_30 
ROOT
HETATM    1  C   UNL     1     -43.297  57.348 -57.191  1.00  0.00     0.093 C 
HETATM    2  S   UNL     1     -42.403  58.726 -56.771  1.00  0.00    -0.075 SA
HETATM    3  C   UNL     1     -42.371  59.265 -58.376  1.00  0.00    -0.008 C 
HETATM    4  C   UNL     1     -42.929  58.356 -59.259  1.00  0.00    -0.026 C 
HETATM    5  C   UNL     1     -42.861  58.603 -60.739  1.00  0.00     0.041 C 
HETATM    6  C   UNL     1     -41.947  59.777 -61.106  1.00  0.00     0.010 C 
HETATM    7  C   UNL     1     -42.085  61.015 -60.187  1.00  0.00    -0.002 C 
HETATM    8  C   UNL     1     -41.754  60.589 -58.731  1.00  0.00     0.052 C 
HETATM    9  C   UNL     1     -43.599  57.276 -58.549  1.00  0.00     0.073 C 
ENDROOT
BRANCH   9  10
HETATM   10  C   UNL     1     -44.525  56.237 -59.043  1.00  0.00     0.259 C 
HETATM   11  N   UNL     1     -45.862  56.486 -58.902  1.00  0.00    -0.320 N 
HETATM   12  H   UNL     1     -46.369  55.760 -58.403  1.00  0.00     0.169 HD
HETATM   13  O   UNL     1     -44.115  55.111 -59.341  1.00  0.00    -0.267 OA
BRANCH  11  14
HETATM   14  C   UNL     1     -46.698  57.051 -59.898  1.00  0.00     0.068 A 
HETATM   15  C   UNL     1     -47.015  58.418 -59.760  1.00  0.00     0.097 A 
HETATM   16  C   UNL     1     -47.764  59.065 -60.747  1.00  0.00     0.075 A 
HETATM   17  C   UNL     1     -48.194  58.357 -61.872  1.00  0.00     0.070 A 
HETATM   18  C   UNL     1     -47.908  56.993 -61.981  1.00  0.00     0.039 A 
HETATM   19  C   UNL     1     -47.166  56.333 -60.999  1.00  0.00     0.035 A 
BRANCH  15  20
HETATM   20  O   UNL     1     -46.534  59.017 -58.618  1.00  0.00    -0.354 OA
HETATM   21  C   UNL     1     -47.431  59.864 -57.908  1.00  0.00     0.210 C 
ENDBRANCH  15  20
BRANCH  17  22
HETATM   22  O   UNL     1     -48.902  58.877 -62.920  1.00  0.00    -0.356 OA
HETATM   23  C   UNL     1     -48.459  60.123 -63.445  1.00  0.00     0.210 C 
ENDBRANCH  17  22
ENDBRANCH  11  14
ENDBRANCH   9  10
BRANCH   1  24
HETATM   24  N   UNL     1     -43.774  56.511 -56.188  1.00  0.00    -0.319 N 
HETATM   25  C   UNL     1     -43.097  55.428 -55.675  1.00  0.00     0.248 C 
HETATM   26  O   UNL     1     -42.123  54.852 -56.161  1.00  0.00    -0.271 OA
HETATM   27  H   UNL     1     -44.778  56.607 -56.016  1.00  0.00     0.169 HD
BRANCH  25  28
HETATM   28  C   UNL     1     -43.675  54.905 -54.356  1.00  0.00     0.337 C 
BRANCH  28  29
HETATM   29  N   UNL     1     -42.708  55.159 -53.190  1.00  0.00    -0.062 N 
HETATM   30  C   UNL     1     -43.314  56.025 -52.105  1.00  0.00     0.239 C 
HETATM   31  C   UNL     1     -42.239  56.418 -51.085  1.00  0.00     0.007 C 
HETATM   32  C   UNL     1     -41.229  57.415 -51.665  1.00  0.00     0.011 C 
HETATM   33  C   UNL     1     -41.546  55.170 -50.525  1.00  0.00     0.007 C 
HETATM   34  C   UNL     1     -41.032  54.240 -51.621  1.00  0.00     0.028 C 
HETATM   35  C   UNL     1     -42.109  53.897 -52.641  1.00  0.00     0.235 C 
HETATM   36  H   UNL     1     -41.964  55.731 -53.622  1.00  0.00     0.280 HD
ENDBRANCH  28  29
ENDBRANCH  25  28
ENDBRANCH   1  24
BRANCH   7  37
HETATM   37  C   UNL     1     -43.397  61.877 -60.370  1.00  0.00    -0.047 C 
HETATM   38  C   UNL     1     -44.467  61.677 -59.282  1.00  0.00     0.015 C 
HETATM   39  C   UNL     1     -43.023  63.379 -60.367  1.00  0.00     0.015 C 
HETATM   40  C   UNL     1     -44.047  61.577 -61.739  1.00  0.00     0.015 C 
ENDBRANCH   7  37
TORSDOF 8
ENDMDL
