MODEL 1
REMARK VINA RESULT:      -7.9      0.000      0.000
REMARK  8 active torsions:
REMARK  status: ('A' for Active; 'I' for Inactive)
REMARK    1  A    between atoms: C_5  and  O_6 
REMARK    2  A    between atoms: O_6  and  C_7 
REMARK    3  A    between atoms: C_7  and  C_8 
REMARK    4  A    between atoms: C_8  and  C_9 
REMARK    5  A    between atoms: C_9  and  C_10 
REMARK    6  A    between atoms: C_10  and  N_11 
REMARK       I    between atoms: N_11  and  C_12 
REMARK    7  A    between atoms: C_12  and  C_13 
REMARK    8  A    between atoms: C_17  and  C_18 
ROOT
HETATM    1  C   UNL     1     -41.081  57.053 -53.504  1.00  0.00     0.120 A 
HETATM    2  N   UNL     1     -41.487  56.733 -52.240  1.00  0.00    -0.272 N 
HETATM    3  H   UNL     1     -41.876  57.368 -51.548  1.00  0.00     0.189 HD
HETATM    4  N   UNL     1     -41.329  55.441 -51.919  1.00  0.00    -0.174 NA
HETATM    5  C   UNL     1     -40.814  54.877 -53.023  1.00  0.00     0.089 A 
HETATM    6  C   UNL     1     -40.637  55.859 -54.039  1.00  0.00     0.071 A 
ENDROOT
BRANCH   1   7
HETATM    7  C   UNL     1     -41.170  58.395 -54.008  1.00  0.00     0.270 C 
HETATM    8  N   UNL     1     -42.017  58.569 -55.071  1.00  0.00    -0.345 N 
HETATM    9  H   UNL     1     -42.553  57.794 -55.431  1.00  0.00     0.163 HD
HETATM   10  O   UNL     1     -40.530  59.321 -53.518  1.00  0.00    -0.266 OA
BRANCH   8  11
HETATM   11  C   UNL     1     -42.219  59.871 -55.646  1.00  0.00     0.217 C 
BRANCH  11  12
HETATM   12  C   UNL     1     -42.185  59.759 -57.162  1.00  0.00    -0.085 C 
BRANCH  12  13
HETATM   13  C   UNL     1     -42.155  59.664 -58.462  1.00  0.00    -0.078 C 
BRANCH  13  14
HETATM   14  C   UNL     1     -42.120  59.552 -59.977  1.00  0.00     0.269 C 
BRANCH  14  15
HETATM   15  O   UNL     1     -41.837  58.200 -60.324  1.00  0.00    -0.338 OA
BRANCH  15  16
HETATM   16  C   UNL     1     -42.840  57.295 -60.135  1.00  0.00     0.087 A 
HETATM   17  C   UNL     1     -44.124  57.734 -60.444  1.00  0.00     0.152 A 
HETATM   18  N   UNL     1     -45.245  56.981 -60.323  1.00  0.00    -0.270 NA
HETATM   19  C   UNL     1     -45.077  55.724 -59.870  1.00  0.00     0.116 A 
HETATM   20  C   UNL     1     -43.843  55.188 -59.535  1.00  0.00     0.022 A 
HETATM   21  C   UNL     1     -42.709  55.990 -59.671  1.00  0.00     0.040 A 
ENDBRANCH  15  16
ENDBRANCH  14  15
ENDBRANCH  13  14
ENDBRANCH  12  13
ENDBRANCH  11  12
ENDBRANCH   8  11
ENDBRANCH   1   7
BRANCH   5  22
HETATM   22  C   UNL     1     -40.503  53.445 -53.085  1.00  0.00    -0.003 A 
HETATM   23  C   UNL     1     -40.193  52.727 -51.918  1.00  0.00     0.053 A 
HETATM   24  C   UNL     1     -39.910  51.380 -52.036  1.00  0.00     0.106 A 
HETATM   25  C   UNL     1     -39.927  50.735 -53.249  1.00  0.00     0.105 A 
HETATM   26  O   UNL     1     -39.589  50.548 -51.009  1.00  0.00    -0.323 OA
HETATM   27  O   UNL     1     -39.620  49.415 -53.139  1.00  0.00    -0.323 OA
HETATM   28  C   UNL     1     -40.223  51.400 -54.416  1.00  0.00     0.040 A 
HETATM   29  C   UNL     1     -39.404  49.304 -51.717  1.00  0.00     0.352 A 
HETATM   30  C   UNL     1     -40.511  52.768 -54.328  1.00  0.00     0.017 A 
ENDBRANCH   5  22
TORSDOF 8
ENDMDL
MODEL 2
REMARK VINA RESULT:      -7.5      5.781      8.830
REMARK  8 active torsions:
REMARK  status: ('A' for Active; 'I' for Inactive)
REMARK    1  A    between atoms: C_5  and  O_6 
REMARK    2  A    between atoms: O_6  and  C_7 
REMARK    3  A    between atoms: C_7  and  C_8 
REMARK    4  A    between atoms: C_8  and  C_9 
REMARK    5  A    between atoms: C_9  and  C_10 
REMARK    6  A    between atoms: C_10  and  N_11 
REMARK       I    between atoms: N_11  and  C_12 
REMARK    7  A    between atoms: C_12  and  C_13 
REMARK    8  A    between atoms: C_17  and  C_18 
ROOT
HETATM    1  C   UNL     1     -41.641  57.149 -51.386  1.00  0.00     0.120 A 
HETATM    2  N   UNL     1     -42.009  56.518 -50.232  1.00  0.00    -0.272 N 
HETATM    3  H   UNL     1     -42.461  56.941 -49.426  1.00  0.00     0.189 HD
HETATM    4  N   UNL     1     -41.719  55.210 -50.201  1.00  0.00    -0.174 NA
HETATM    5  C   UNL     1     -41.151  54.959 -51.391  1.00  0.00     0.089 A 
HETATM    6  C   UNL     1     -41.078  56.154 -52.162  1.00  0.00     0.071 A 
ENDROOT
BRANCH   1   7
HETATM    7  C   UNL     1     -41.869  58.554 -51.583  1.00  0.00     0.270 C 
HETATM    8  N   UNL     1     -42.086  59.279 -50.440  1.00  0.00    -0.345 N 
HETATM    9  H   UNL     1     -42.050  58.833 -49.536  1.00  0.00     0.163 HD
HETATM   10  O   UNL     1     -41.867  59.067 -52.698  1.00  0.00    -0.266 OA
BRANCH   8  11
HETATM   11  C   UNL     1     -42.295  60.700 -50.498  1.00  0.00     0.217 C 
BRANCH  11  12
HETATM   12  C   UNL     1     -43.604  61.043 -49.806  1.00  0.00    -0.085 C 
BRANCH  12  13
HETATM   13  C   UNL     1     -44.727  61.336 -49.211  1.00  0.00    -0.078 C 
BRANCH  13  14
HETATM   14  C   UNL     1     -46.034  61.679 -48.517  1.00  0.00     0.269 C 
BRANCH  14  15
HETATM   15  O   UNL     1     -46.104  60.946 -47.297  1.00  0.00    -0.338 OA
BRANCH  15  16
HETATM   16  C   UNL     1     -45.546  61.531 -46.198  1.00  0.00     0.087 A 
HETATM   17  C   UNL     1     -45.891  62.859 -45.971  1.00  0.00     0.152 A 
HETATM   18  N   UNL     1     -45.440  63.606 -44.934  1.00  0.00    -0.270 NA
HETATM   19  C   UNL     1     -44.600  62.995 -44.076  1.00  0.00     0.116 A 
HETATM   20  C   UNL     1     -44.193  61.677 -44.209  1.00  0.00     0.022 A 
HETATM   21  C   UNL     1     -44.676  60.935 -45.289  1.00  0.00     0.040 A 
ENDBRANCH  15  16
ENDBRANCH  14  15
ENDBRANCH  13  14
ENDBRANCH  12  13
ENDBRANCH  11  12
ENDBRANCH   8  11
ENDBRANCH   1   7
BRANCH   5  22
HETATM   22  C   UNL     1     -40.694  53.615 -51.760  1.00  0.00    -0.003 A 
HETATM   23  C   UNL     1     -40.692  53.200 -53.102  1.00  0.00     0.053 A 
HETATM   24  C   UNL     1     -40.248  51.924 -53.390  1.00  0.00     0.106 A 
HETATM   25  C   UNL     1     -39.812  51.065 -52.411  1.00  0.00     0.105 A 
HETATM   26  O   UNL     1     -40.186  51.372 -54.632  1.00  0.00    -0.323 OA
HETATM   27  O   UNL     1     -39.420  49.863 -52.911  1.00  0.00    -0.323 OA
HETATM   28  C   UNL     1     -39.799  51.430 -51.084  1.00  0.00     0.040 A 
HETATM   29  C   UNL     1     -39.663  50.063 -54.319  1.00  0.00     0.352 A 
HETATM   30  C   UNL     1     -40.247  52.716 -50.761  1.00  0.00     0.017 A 
ENDBRANCH   5  22
TORSDOF 8
ENDMDL
MODEL 3
REMARK VINA RESULT:      -7.3     15.252     19.556
REMARK  8 active torsions:
REMARK  status: ('A' for Active; 'I' for Inactive)
REMARK    1  A    between atoms: C_5  and  O_6 
REMARK    2  A    between atoms: O_6  and  C_7 
REMARK    3  A    between atoms: C_7  and  C_8 
REMARK    4  A    between atoms: C_8  and  C_9 
REMARK    5  A    between atoms: C_9  and  C_10 
REMARK    6  A    between atoms: C_10  and  N_11 
REMARK       I    between atoms: N_11  and  C_12 
REMARK    7  A    between atoms: C_12  and  C_13 
REMARK    8  A    between atoms: C_17  and  C_18 
ROOT
HETATM    1  C   UNL     1     -35.499  41.708 -54.724  1.00  0.00     0.120 A 
HETATM    2  N   UNL     1     -34.305  41.714 -55.388  1.00  0.00    -0.272 N 
HETATM    3  H   UNL     1     -33.394  41.939 -54.997  1.00  0.00     0.189 HD
HETATM    4  N   UNL     1     -34.393  41.393 -56.686  1.00  0.00    -0.174 NA
HETATM    5  C   UNL     1     -35.697  41.145 -56.888  1.00  0.00     0.089 A 
HETATM    6  C   UNL     1     -36.426  41.339 -55.680  1.00  0.00     0.071 A 
ENDROOT
BRANCH   1   7
HETATM    7  C   UNL     1     -35.588  42.039 -53.329  1.00  0.00     0.270 C 
HETATM    8  N   UNL     1     -34.529  41.631 -52.560  1.00  0.00    -0.345 N 
HETATM    9  H   UNL     1     -33.741  41.162 -52.980  1.00  0.00     0.163 HD
HETATM   10  O   UNL     1     -36.547  42.645 -52.860  1.00  0.00    -0.266 OA
BRANCH   8  11
HETATM   11  C   UNL     1     -34.481  41.929 -51.155  1.00  0.00     0.217 C 
BRANCH  11  12
HETATM   12  C   UNL     1     -33.586  40.916 -50.458  1.00  0.00    -0.085 C 
BRANCH  12  13
HETATM   13  C   UNL     1     -32.818  40.048 -49.860  1.00  0.00    -0.078 C 
BRANCH  13  14
HETATM   14  C   UNL     1     -31.924  39.036 -49.164  1.00  0.00     0.269 C 
BRANCH  14  15
HETATM   15  O   UNL     1     -30.837  39.733 -48.561  1.00  0.00    -0.338 OA
BRANCH  15  16
HETATM   16  C   UNL     1     -30.766  39.697 -47.199  1.00  0.00     0.087 A 
HETATM   17  C   UNL     1     -31.520  38.709 -46.574  1.00  0.00     0.152 A 
HETATM   18  N   UNL     1     -31.577  38.515 -45.234  1.00  0.00    -0.270 NA
HETATM   19  C   UNL     1     -30.842  39.351 -44.476  1.00  0.00     0.116 A 
HETATM   20  C   UNL     1     -30.055  40.367 -44.997  1.00  0.00     0.022 A 
HETATM   21  C   UNL     1     -30.019  40.540 -46.381  1.00  0.00     0.040 A 
ENDBRANCH  15  16
ENDBRANCH  14  15
ENDBRANCH  13  14
ENDBRANCH  12  13
ENDBRANCH  11  12
ENDBRANCH   8  11
ENDBRANCH   1   7
BRANCH   5  22
HETATM   22  C   UNL     1     -36.212  40.743 -58.201  1.00  0.00    -0.003 A 
HETATM   23  C   UNL     1     -35.926  39.472 -58.726  1.00  0.00     0.053 A 
HETATM   24  C   UNL     1     -36.440  39.147 -59.966  1.00  0.00     0.106 A 
HETATM   25  C   UNL     1     -37.214  40.023 -60.687  1.00  0.00     0.105 A 
HETATM   26  O   UNL     1     -36.254  37.964 -60.612  1.00  0.00    -0.323 OA
HETATM   27  O   UNL     1     -37.615  39.504 -61.878  1.00  0.00    -0.323 OA
HETATM   28  C   UNL     1     -37.517  41.279 -60.211  1.00  0.00     0.040 A 
HETATM   29  C   UNL     1     -37.000  38.200 -61.826  1.00  0.00     0.352 A 
HETATM   30  C   UNL     1     -37.006  41.637 -58.958  1.00  0.00     0.017 A 
ENDBRANCH   5  22
TORSDOF 8
ENDMDL
MODEL 4
REMARK VINA RESULT:      -7.2      2.097      2.326
REMARK  8 active torsions:
REMARK  status: ('A' for Active; 'I' for Inactive)
REMARK    1  A    between atoms: C_5  and  O_6 
REMARK    2  A    between atoms: O_6  and  C_7 
REMARK    3  A    between atoms: C_7  and  C_8 
REMARK    4  A    between atoms: C_8  and  C_9 
REMARK    5  A    between atoms: C_9  and  C_10 
REMARK    6  A    between atoms: C_10  and  N_11 
REMARK       I    between atoms: N_11  and  C_12 
REMARK    7  A    between atoms: C_12  and  C_13 
REMARK    8  A    between atoms: C_17  and  C_18 
ROOT
HETATM    1  C   UNL     1     -41.941  56.118 -54.410  1.00  0.00     0.120 A 
HETATM    2  N   UNL     1     -40.752  56.058 -55.081  1.00  0.00    -0.272 N 
HETATM    3  H   UNL     1     -40.347  56.782 -55.666  1.00  0.00     0.189 HD
HETATM    4  N   UNL     1     -40.089  54.902 -54.928  1.00  0.00    -0.174 NA
HETATM    5  C   UNL     1     -40.862  54.173 -54.107  1.00  0.00     0.089 A 
HETATM    6  C   UNL     1     -42.038  54.900 -53.765  1.00  0.00     0.071 A 
ENDROOT
BRANCH   1   7
HETATM    7  C   UNL     1     -42.783  57.279 -54.474  1.00  0.00     0.270 C 
HETATM    8  N   UNL     1     -44.117  57.050 -54.253  1.00  0.00    -0.345 N 
HETATM    9  H   UNL     1     -44.448  56.123 -54.032  1.00  0.00     0.163 HD
HETATM   10  O   UNL     1     -42.338  58.399 -54.709  1.00  0.00    -0.266 OA
BRANCH   8  11
HETATM   11  C   UNL     1     -45.061  58.134 -54.258  1.00  0.00     0.217 C 
BRANCH  11  12
HETATM   12  C   UNL     1     -45.578  58.342 -55.672  1.00  0.00    -0.085 C 
BRANCH  12  13
HETATM   13  C   UNL     1     -46.021  58.521 -56.885  1.00  0.00    -0.078 C 
BRANCH  13  14
HETATM   14  C   UNL     1     -46.539  58.731 -58.298  1.00  0.00     0.269 C 
BRANCH  14  15
HETATM   15  O   UNL     1     -45.446  58.611 -59.203  1.00  0.00    -0.338 OA
BRANCH  15  16
HETATM   16  C   UNL     1     -44.971  57.352 -59.429  1.00  0.00     0.087 A 
HETATM   17  C   UNL     1     -45.897  56.426 -59.900  1.00  0.00     0.152 A 
HETATM   18  N   UNL     1     -45.616  55.131 -60.183  1.00  0.00    -0.270 NA
HETATM   19  C   UNL     1     -44.342  54.737 -59.986  1.00  0.00     0.116 A 
HETATM   20  C   UNL     1     -43.343  55.578 -59.521  1.00  0.00     0.022 A 
HETATM   21  C   UNL     1     -43.666  56.906 -59.239  1.00  0.00     0.040 A 
ENDBRANCH  15  16
ENDBRANCH  14  15
ENDBRANCH  13  14
ENDBRANCH  12  13
ENDBRANCH  11  12
ENDBRANCH   8  11
ENDBRANCH   1   7
BRANCH   5  22
HETATM   22  C   UNL     1     -40.475  52.825 -53.678  1.00  0.00    -0.003 A 
HETATM   23  C   UNL     1     -40.254  52.538 -52.321  1.00  0.00     0.053 A 
HETATM   24  C   UNL     1     -39.894  51.250 -51.976  1.00  0.00     0.106 A 
HETATM   25  C   UNL     1     -39.752  50.256 -52.914  1.00  0.00     0.105 A 
HETATM   26  O   UNL     1     -39.642  50.812 -50.713  1.00  0.00    -0.323 OA
HETATM   27  O   UNL     1     -39.394  49.067 -52.361  1.00  0.00    -0.323 OA
HETATM   28  C   UNL     1     -39.957  50.494 -54.254  1.00  0.00     0.040 A 
HETATM   29  C   UNL     1     -39.322  49.428 -50.966  1.00  0.00     0.352 A 
HETATM   30  C   UNL     1     -40.319  51.792 -54.634  1.00  0.00     0.017 A 
ENDBRANCH   5  22
TORSDOF 8
ENDMDL
MODEL 5
REMARK VINA RESULT:      -7.2      1.793      2.364
REMARK  8 active torsions:
REMARK  status: ('A' for Active; 'I' for Inactive)
REMARK    1  A    between atoms: C_5  and  O_6 
REMARK    2  A    between atoms: O_6  and  C_7 
REMARK    3  A    between atoms: C_7  and  C_8 
REMARK    4  A    between atoms: C_8  and  C_9 
REMARK    5  A    between atoms: C_9  and  C_10 
REMARK    6  A    between atoms: C_10  and  N_11 
REMARK       I    between atoms: N_11  and  C_12 
REMARK    7  A    between atoms: C_12  and  C_13 
REMARK    8  A    between atoms: C_17  and  C_18 
ROOT
HETATM    1  C   UNL     1     -42.008  57.372 -51.661  1.00  0.00     0.120 A 
HETATM    2  N   UNL     1     -41.754  57.023 -50.365  1.00  0.00    -0.272 N 
HETATM    3  H   UNL     1     -41.889  57.604 -49.542  1.00  0.00     0.189 HD
HETATM    4  N   UNL     1     -41.272  55.782 -50.212  1.00  0.00    -0.174 NA
HETATM    5  C   UNL     1     -41.222  55.281 -51.456  1.00  0.00     0.089 A 
HETATM    6  C   UNL     1     -41.669  56.253 -52.395  1.00  0.00     0.071 A 
ENDROOT
BRANCH   1   7
HETATM    7  C   UNL     1     -42.518  58.670 -52.006  1.00  0.00     0.270 C 
HETATM    8  N   UNL     1     -41.844  59.319 -53.008  1.00  0.00    -0.345 N 
HETATM    9  H   UNL     1     -41.067  58.875 -53.473  1.00  0.00     0.163 HD
HETATM   10  O   UNL     1     -43.491  59.162 -51.441  1.00  0.00    -0.266 OA
BRANCH   8  11
HETATM   11  C   UNL     1     -42.274  60.611 -53.468  1.00  0.00     0.217 C 
BRANCH  11  12
HETATM   12  C   UNL     1     -42.519  60.553 -54.967  1.00  0.00    -0.085 C 
BRANCH  12  13
HETATM   13  C   UNL     1     -42.729  60.503 -56.253  1.00  0.00    -0.078 C 
BRANCH  13  14
HETATM   14  C   UNL     1     -42.975  60.446 -57.752  1.00  0.00     0.269 C 
BRANCH  14  15
HETATM   15  O   UNL     1     -41.986  59.606 -58.340  1.00  0.00    -0.338 OA
BRANCH  15  16
HETATM   16  C   UNL     1     -42.375  58.342 -58.674  1.00  0.00     0.087 A 
HETATM   17  C   UNL     1     -41.828  57.824 -59.844  1.00  0.00     0.152 A 
HETATM   18  N   UNL     1     -42.093  56.589 -60.337  1.00  0.00    -0.270 NA
HETATM   19  C   UNL     1     -42.948  55.830 -59.626  1.00  0.00     0.116 A 
HETATM   20  C   UNL     1     -43.548  56.249 -58.448  1.00  0.00     0.022 A 
HETATM   21  C   UNL     1     -43.254  57.526 -57.967  1.00  0.00     0.040 A 
ENDBRANCH  15  16
ENDBRANCH  14  15
ENDBRANCH  13  14
ENDBRANCH  12  13
ENDBRANCH  11  12
ENDBRANCH   8  11
ENDBRANCH   1   7
BRANCH   5  22
HETATM   22  C   UNL     1     -40.752  53.916 -51.719  1.00  0.00    -0.003 A 
HETATM   23  C   UNL     1     -40.704  53.414 -53.030  1.00  0.00     0.053 A 
HETATM   24  C   UNL     1     -40.250  52.123 -53.218  1.00  0.00     0.106 A 
HETATM   25  C   UNL     1     -39.848  51.331 -52.170  1.00  0.00     0.105 A 
HETATM   26  O   UNL     1     -40.147  51.489 -54.418  1.00  0.00    -0.323 OA
HETATM   27  O   UNL     1     -39.439  50.100 -52.576  1.00  0.00    -0.323 OA
HETATM   28  C   UNL     1     -39.881  51.782 -50.871  1.00  0.00     0.040 A 
HETATM   29  C   UNL     1     -39.635  50.205 -54.002  1.00  0.00     0.352 A 
HETATM   30  C   UNL     1     -40.339  53.087 -50.649  1.00  0.00     0.017 A 
ENDBRANCH   5  22
TORSDOF 8
ENDMDL
MODEL 6
REMARK VINA RESULT:      -7.0      3.348      5.198
REMARK  8 active torsions:
REMARK  status: ('A' for Active; 'I' for Inactive)
REMARK    1  A    between atoms: C_5  and  O_6 
REMARK    2  A    between atoms: O_6  and  C_7 
REMARK    3  A    between atoms: C_7  and  C_8 
REMARK    4  A    between atoms: C_8  and  C_9 
REMARK    5  A    between atoms: C_9  and  C_10 
REMARK    6  A    between atoms: C_10  and  N_11 
REMARK       I    between atoms: N_11  and  C_12 
REMARK    7  A    between atoms: C_12  and  C_13 
REMARK    8  A    between atoms: C_17  and  C_18 
ROOT
HETATM    1  C   UNL     1     -42.552  56.506 -56.638  1.00  0.00     0.120 A 
HETATM    2  N   UNL     1     -42.240  57.450 -55.701  1.00  0.00    -0.272 N 
HETATM    3  H   UNL     1     -42.350  58.456 -55.791  1.00  0.00     0.189 HD
HETATM    4  N   UNL     1     -41.733  56.952 -54.564  1.00  0.00    -0.174 NA
HETATM    5  C   UNL     1     -41.726  55.623 -54.748  1.00  0.00     0.089 A 
HETATM    6  C   UNL     1     -42.226  55.303 -56.043  1.00  0.00     0.071 A 
ENDROOT
BRANCH   1   7
HETATM    7  C   UNL     1     -43.095  56.866 -57.918  1.00  0.00     0.270 C 
HETATM    8  N   UNL     1     -42.188  56.933 -58.944  1.00  0.00    -0.345 N 
HETATM    9  H   UNL     1     -41.218  56.707 -58.785  1.00  0.00     0.163 HD
HETATM   10  O   UNL     1     -44.290  57.097 -58.080  1.00  0.00    -0.266 OA
BRANCH   8  11
HETATM   11  C   UNL     1     -42.610  57.251 -60.281  1.00  0.00     0.217 C 
BRANCH  11  12
HETATM   12  C   UNL     1     -42.262  58.700 -60.583  1.00  0.00    -0.085 C 
BRANCH  12  13
HETATM   13  C   UNL     1     -41.964  59.943 -60.842  1.00  0.00    -0.078 C 
BRANCH  13  14
HETATM   14  C   UNL     1     -41.616  61.390 -61.145  1.00  0.00     0.269 C 
BRANCH  14  15
HETATM   15  O   UNL     1     -41.009  61.960 -59.989  1.00  0.00    -0.338 OA
BRANCH  15  16
HETATM   16  C   UNL     1     -39.999  62.852 -60.203  1.00  0.00     0.087 A 
HETATM   17  C   UNL     1     -39.627  63.047 -61.530  1.00  0.00     0.152 A 
HETATM   18  N   UNL     1     -38.649  63.890 -61.940  1.00  0.00    -0.270 NA
HETATM   19  C   UNL     1     -38.006  64.577 -60.976  1.00  0.00     0.116 A 
HETATM   20  C   UNL     1     -38.298  64.459 -59.626  1.00  0.00     0.022 A 
HETATM   21  C   UNL     1     -39.311  63.581 -59.237  1.00  0.00     0.040 A 
ENDBRANCH  15  16
ENDBRANCH  14  15
ENDBRANCH  13  14
ENDBRANCH  12  13
ENDBRANCH  11  12
ENDBRANCH   8  11
ENDBRANCH   1   7
BRANCH   5  22
HETATM   22  C   UNL     1     -41.246  54.703 -53.711  1.00  0.00    -0.003 A 
HETATM   23  C   UNL     1     -40.709  53.451 -54.053  1.00  0.00     0.053 A 
HETATM   24  C   UNL     1     -40.271  52.628 -53.035  1.00  0.00     0.106 A 
HETATM   25  C   UNL     1     -40.344  52.999 -51.714  1.00  0.00     0.105 A 
HETATM   26  O   UNL     1     -39.731  51.389 -53.197  1.00  0.00    -0.323 OA
HETATM   27  O   UNL     1     -39.859  52.043 -50.878  1.00  0.00    -0.323 OA
HETATM   28  C   UNL     1     -40.864  54.215 -51.334  1.00  0.00     0.040 A 
HETATM   29  C   UNL     1     -39.476  51.024 -51.824  1.00  0.00     0.352 A 
HETATM   30  C   UNL     1     -41.320  55.069 -52.345  1.00  0.00     0.017 A 
ENDBRANCH   5  22
TORSDOF 8
ENDMDL
MODEL 7
REMARK VINA RESULT:      -7.0     15.079     18.477
REMARK  8 active torsions:
REMARK  status: ('A' for Active; 'I' for Inactive)
REMARK    1  A    between atoms: C_5  and  O_6 
REMARK    2  A    between atoms: O_6  and  C_7 
REMARK    3  A    between atoms: C_7  and  C_8 
REMARK    4  A    between atoms: C_8  and  C_9 
REMARK    5  A    between atoms: C_9  and  C_10 
REMARK    6  A    between atoms: C_10  and  N_11 
REMARK       I    between atoms: N_11  and  C_12 
REMARK    7  A    between atoms: C_12  and  C_13 
REMARK    8  A    between atoms: C_17  and  C_18 
ROOT
HETATM    1  C   UNL     1     -35.725  41.779 -54.198  1.00  0.00     0.120 A 
HETATM    2  N   UNL     1     -34.891  42.601 -54.902  1.00  0.00    -0.272 N 
HETATM    3  H   UNL     1     -34.217  43.257 -54.517  1.00  0.00     0.189 HD
HETATM    4  N   UNL     1     -35.015  42.505 -56.233  1.00  0.00    -0.174 NA
HETATM    5  C   UNL     1     -35.957  41.567 -56.420  1.00  0.00     0.089 A 
HETATM    6  C   UNL     1     -36.433  41.092 -55.165  1.00  0.00     0.071 A 
ENDROOT
BRANCH   1   7
HETATM    7  C   UNL     1     -35.731  41.762 -52.762  1.00  0.00     0.270 C 
HETATM    8  N   UNL     1     -36.384  40.701 -52.190  1.00  0.00    -0.345 N 
HETATM    9  H   UNL     1     -36.795  39.981 -52.765  1.00  0.00     0.163 HD
HETATM   10  O   UNL     1     -35.187  42.638 -52.095  1.00  0.00    -0.266 OA
BRANCH   8  11
HETATM   11  C   UNL     1     -36.435  40.551 -50.761  1.00  0.00     0.217 C 
BRANCH  11  12
HETATM   12  C   UNL     1     -35.175  39.844 -50.287  1.00  0.00    -0.085 C 
BRANCH  12  13
HETATM   13  C   UNL     1     -34.095  39.238 -49.880  1.00  0.00    -0.078 C 
BRANCH  13  14
HETATM   14  C   UNL     1     -32.835  38.534 -49.405  1.00  0.00     0.269 C 
BRANCH  14  15
HETATM   15  O   UNL     1     -31.723  39.067 -50.118  1.00  0.00    -0.338 OA
BRANCH  15  16
HETATM   16  C   UNL     1     -31.846  39.151 -51.474  1.00  0.00     0.087 A 
HETATM   17  C   UNL     1     -31.804  37.946 -52.167  1.00  0.00     0.152 A 
HETATM   18  N   UNL     1     -31.911  37.827 -53.513  1.00  0.00    -0.270 NA
HETATM   19  C   UNL     1     -32.069  38.973 -54.205  1.00  0.00     0.116 A 
HETATM   20  C   UNL     1     -32.125  40.225 -53.613  1.00  0.00     0.022 A 
HETATM   21  C   UNL     1     -32.012  40.312 -52.225  1.00  0.00     0.040 A 
ENDBRANCH  15  16
ENDBRANCH  14  15
ENDBRANCH  13  14
ENDBRANCH  12  13
ENDBRANCH  11  12
ENDBRANCH   8  11
ENDBRANCH   1   7
BRANCH   5  22
HETATM   22  C   UNL     1     -36.380  41.156 -57.763  1.00  0.00    -0.003 A 
HETATM   23  C   UNL     1     -36.147  39.849 -58.221  1.00  0.00     0.053 A 
HETATM   24  C   UNL     1     -36.570  39.517 -59.493  1.00  0.00     0.106 A 
HETATM   25  C   UNL     1     -37.206  40.421 -60.310  1.00  0.00     0.105 A 
HETATM   26  O   UNL     1     -36.418  38.300 -60.084  1.00  0.00    -0.323 OA
HETATM   27  O   UNL     1     -37.536  39.889 -61.516  1.00  0.00    -0.323 OA
HETATM   28  C   UNL     1     -37.452  41.712 -59.902  1.00  0.00     0.040 A 
HETATM   29  C   UNL     1     -37.030  38.546 -61.368  1.00  0.00     0.352 A 
HETATM   30  C   UNL     1     -37.031  42.078 -58.618  1.00  0.00     0.017 A 
ENDBRANCH   5  22
TORSDOF 8
ENDMDL
MODEL 8
REMARK VINA RESULT:      -6.8     15.115     19.199
REMARK  8 active torsions:
REMARK  status: ('A' for Active; 'I' for Inactive)
REMARK    1  A    between atoms: C_5  and  O_6 
REMARK    2  A    between atoms: O_6  and  C_7 
REMARK    3  A    between atoms: C_7  and  C_8 
REMARK    4  A    between atoms: C_8  and  C_9 
REMARK    5  A    between atoms: C_9  and  C_10 
REMARK    6  A    between atoms: C_10  and  N_11 
REMARK       I    between atoms: N_11  and  C_12 
REMARK    7  A    between atoms: C_12  and  C_13 
REMARK    8  A    between atoms: C_17  and  C_18 
ROOT
HETATM    1  C   UNL     1     -35.659  41.871 -54.679  1.00  0.00     0.120 A 
HETATM    2  N   UNL     1     -34.625  42.363 -55.425  1.00  0.00    -0.272 N 
HETATM    3  H   UNL     1     -33.824  42.885 -55.083  1.00  0.00     0.189 HD
HETATM    4  N   UNL     1     -34.725  42.115 -56.739  1.00  0.00    -0.174 NA
HETATM    5  C   UNL     1     -35.862  41.414 -56.867  1.00  0.00     0.089 A 
HETATM    6  C   UNL     1     -36.482  41.246 -55.596  1.00  0.00     0.071 A 
ENDROOT
BRANCH   1   7
HETATM    7  C   UNL     1     -35.716  42.056 -53.256  1.00  0.00     0.270 C 
HETATM    8  N   UNL     1     -34.522  41.917 -52.597  1.00  0.00    -0.345 N 
HETATM    9  H   UNL     1     -33.673  41.729 -53.109  1.00  0.00     0.163 HD
HETATM   10  O   UNL     1     -36.763  42.321 -52.672  1.00  0.00    -0.266 OA
BRANCH   8  11
HETATM   11  C   UNL     1     -34.439  42.109 -51.175  1.00  0.00     0.217 C 
BRANCH  11  12
HETATM   12  C   UNL     1     -33.865  40.856 -50.533  1.00  0.00    -0.085 C 
BRANCH  12  13
HETATM   13  C   UNL     1     -33.374  39.781 -49.983  1.00  0.00    -0.078 C 
BRANCH  13  14
HETATM   14  C   UNL     1     -32.802  38.528 -49.340  1.00  0.00     0.269 C 
BRANCH  14  15
HETATM   15  O   UNL     1     -33.883  37.697 -48.930  1.00  0.00    -0.338 OA
BRANCH  15  16
HETATM   16  C   UNL     1     -34.266  37.789 -47.624  1.00  0.00     0.087 A 
HETATM   17  C   UNL     1     -35.611  38.069 -47.400  1.00  0.00     0.152 A 
HETATM   18  N   UNL     1     -36.178  38.197 -46.175  1.00  0.00    -0.270 NA
HETATM   19  C   UNL     1     -35.360  38.037 -45.116  1.00  0.00     0.116 A 
HETATM   20  C   UNL     1     -34.007  37.756 -45.228  1.00  0.00     0.022 A 
HETATM   21  C   UNL     1     -33.455  37.630 -46.504  1.00  0.00     0.040 A 
ENDBRANCH  15  16
ENDBRANCH  14  15
ENDBRANCH  13  14
ENDBRANCH  12  13
ENDBRANCH  11  12
ENDBRANCH   8  11
ENDBRANCH   1   7
BRANCH   5  22
HETATM   22  C   UNL     1     -36.329  40.933 -58.172  1.00  0.00    -0.003 A 
HETATM   23  C   UNL     1     -36.041  39.627 -58.602  1.00  0.00     0.053 A 
HETATM   24  C   UNL     1     -36.508  39.228 -59.838  1.00  0.00     0.106 A 
HETATM   25  C   UNL     1     -37.240  40.065 -60.646  1.00  0.00     0.105 A 
HETATM   26  O   UNL     1     -36.313  38.004 -60.399  1.00  0.00    -0.323 OA
HETATM   27  O   UNL     1     -37.599  39.474 -61.816  1.00  0.00    -0.323 OA
HETATM   28  C   UNL     1     -37.543  41.352 -60.265  1.00  0.00     0.040 A 
HETATM   29  C   UNL     1     -37.006  38.169 -61.655  1.00  0.00     0.352 A 
HETATM   30  C   UNL     1     -37.079  41.786 -59.017  1.00  0.00     0.017 A 
ENDBRANCH   5  22
TORSDOF 8
ENDMDL
MODEL 9
REMARK VINA RESULT:      -6.7      2.299      2.729
REMARK  8 active torsions:
REMARK  status: ('A' for Active; 'I' for Inactive)
REMARK    1  A    between atoms: C_5  and  O_6 
REMARK    2  A    between atoms: O_6  and  C_7 
REMARK    3  A    between atoms: C_7  and  C_8 
REMARK    4  A    between atoms: C_8  and  C_9 
REMARK    5  A    between atoms: C_9  and  C_10 
REMARK    6  A    between atoms: C_10  and  N_11 
REMARK       I    between atoms: N_11  and  C_12 
REMARK    7  A    between atoms: C_12  and  C_13 
REMARK    8  A    between atoms: C_17  and  C_18 
ROOT
HETATM    1  C   UNL     1     -41.735  57.226 -51.231  1.00  0.00     0.120 A 
HETATM    2  N   UNL     1     -41.524  56.706 -49.985  1.00  0.00    -0.272 N 
HETATM    3  H   UNL     1     -41.650  57.184 -49.098  1.00  0.00     0.189 HD
HETATM    4  N   UNL     1     -41.103  55.433 -49.982  1.00  0.00    -0.174 NA
HETATM    5  C   UNL     1     -41.049  55.090 -51.279  1.00  0.00     0.089 A 
HETATM    6  C   UNL     1     -41.431  56.192 -52.095  1.00  0.00     0.071 A 
ENDROOT
BRANCH   1   7
HETATM    7  C   UNL     1     -42.177  58.580 -51.417  1.00  0.00     0.270 C 
HETATM    8  N   UNL     1     -43.058  58.772 -52.449  1.00  0.00    -0.345 N 
HETATM    9  H   UNL     1     -43.380  57.992 -53.002  1.00  0.00     0.163 HD
HETATM   10  O   UNL     1     -41.793  59.499 -50.700  1.00  0.00    -0.266 OA
BRANCH   8  11
HETATM   11  C   UNL     1     -43.601  60.075 -52.721  1.00  0.00     0.217 C 
BRANCH  11  12
HETATM   12  C   UNL     1     -44.210  60.084 -54.114  1.00  0.00    -0.085 C 
BRANCH  12  13
HETATM   13  C   UNL     1     -44.733  60.092 -55.308  1.00  0.00    -0.078 C 
BRANCH  13  14
HETATM   14  C   UNL     1     -45.343  60.100 -56.700  1.00  0.00     0.269 C 
BRANCH  14  15
HETATM   15  O   UNL     1     -46.233  58.993 -56.810  1.00  0.00    -0.338 OA
BRANCH  15  16
HETATM   16  C   UNL     1     -46.012  58.128 -57.841  1.00  0.00     0.087 A 
HETATM   17  C   UNL     1     -44.702  57.686 -57.997  1.00  0.00     0.152 A 
HETATM   18  N   UNL     1     -44.288  56.826 -58.959  1.00  0.00    -0.270 NA
HETATM   19  C   UNL     1     -45.232  56.383 -59.813  1.00  0.00     0.116 A 
HETATM   20  C   UNL     1     -46.564  56.760 -59.746  1.00  0.00     0.022 A 
HETATM   21  C   UNL     1     -46.957  57.647 -58.743  1.00  0.00     0.040 A 
ENDBRANCH  15  16
ENDBRANCH  14  15
ENDBRANCH  13  14
ENDBRANCH  12  13
ENDBRANCH  11  12
ENDBRANCH   8  11
ENDBRANCH   1   7
BRANCH   5  22
HETATM   22  C   UNL     1     -40.636  53.748 -51.705  1.00  0.00    -0.003 A 
HETATM   23  C   UNL     1     -40.459  52.719 -50.766  1.00  0.00     0.053 A 
HETATM   24  C   UNL     1     -40.072  51.475 -51.225  1.00  0.00     0.106 A 
HETATM   25  C   UNL     1     -39.862  51.223 -52.560  1.00  0.00     0.105 A 
HETATM   26  O   UNL     1     -39.856  50.379 -50.449  1.00  0.00    -0.323 OA
HETATM   27  O   UNL     1     -39.488  49.937 -52.793  1.00  0.00    -0.323 OA
HETATM   28  C   UNL     1     -40.022  52.203 -53.513  1.00  0.00     0.040 A 
HETATM   29  C   UNL     1     -39.482  49.409 -51.451  1.00  0.00     0.352 A 
HETATM   30  C   UNL     1     -40.410  53.475 -53.076  1.00  0.00     0.017 A 
ENDBRANCH   5  22
TORSDOF 8
ENDMDL
MODEL 10
REMARK VINA RESULT:      -6.6      5.314      8.153
REMARK  8 active torsions:
REMARK  status: ('A' for Active; 'I' for Inactive)
REMARK    1  A    between atoms: C_5  and  O_6 
REMARK    2  A    between atoms: O_6  and  C_7 
REMARK    3  A    between atoms: C_7  and  C_8 
REMARK    4  A    between atoms: C_8  and  C_9 
REMARK    5  A    between atoms: C_9  and  C_10 
REMARK    6  A    between atoms: C_10  and  N_11 
REMARK       I    between atoms: N_11  and  C_12 
REMARK    7  A    between atoms: C_12  and  C_13 
REMARK    8  A    between atoms: C_17  and  C_18 
ROOT
HETATM    1  C   UNL     1     -42.660  56.332 -54.075  1.00  0.00     0.120 A 
HETATM    2  N   UNL     1     -41.399  56.528 -54.563  1.00  0.00    -0.272 N 
HETATM    3  H   UNL     1     -41.044  57.371 -55.006  1.00  0.00     0.189 HD
HETATM    4  N   UNL     1     -40.585  55.472 -54.431  1.00  0.00    -0.174 NA
HETATM    5  C   UNL     1     -41.331  54.543 -53.811  1.00  0.00     0.089 A 
HETATM    6  C   UNL     1     -42.643  55.044 -53.578  1.00  0.00     0.071 A 
ENDROOT
BRANCH   1   7
HETATM    7  C   UNL     1     -43.664  57.357 -54.145  1.00  0.00     0.270 C 
HETATM    8  N   UNL     1     -43.938  57.993 -52.962  1.00  0.00    -0.345 N 
HETATM    9  H   UNL     1     -43.430  57.757 -52.123  1.00  0.00     0.163 HD
HETATM   10  O   UNL     1     -44.235  57.643 -55.194  1.00  0.00    -0.266 OA
BRANCH   8  11
HETATM   11  C   UNL     1     -44.901  59.059 -52.905  1.00  0.00     0.217 C 
BRANCH  11  12
HETATM   12  C   UNL     1     -44.612  59.930 -51.693  1.00  0.00    -0.085 C 
BRANCH  12  13
HETATM   13  C   UNL     1     -44.365  60.677 -50.653  1.00  0.00    -0.078 C 
BRANCH  13  14
HETATM   14  C   UNL     1     -44.077  61.548 -49.442  1.00  0.00     0.269 C 
BRANCH  14  15
HETATM   15  O   UNL     1     -45.025  61.238 -48.425  1.00  0.00    -0.338 OA
BRANCH  15  16
HETATM   16  C   UNL     1     -45.040  62.052 -47.331  1.00  0.00     0.087 A 
HETATM   17  C   UNL     1     -45.066  63.420 -47.588  1.00  0.00     0.152 A 
HETATM   18  N   UNL     1     -45.085  64.383 -46.634  1.00  0.00    -0.270 NA
HETATM   19  C   UNL     1     -45.078  63.960 -45.355  1.00  0.00     0.116 A 
HETATM   20  C   UNL     1     -45.053  62.622 -44.990  1.00  0.00     0.022 A 
HETATM   21  C   UNL     1     -45.034  61.656 -45.996  1.00  0.00     0.040 A 
ENDBRANCH  15  16
ENDBRANCH  14  15
ENDBRANCH  13  14
ENDBRANCH  12  13
ENDBRANCH  11  12
ENDBRANCH   8  11
ENDBRANCH   1   7
BRANCH   5  22
HETATM   22  C   UNL     1     -40.791  53.223 -53.468  1.00  0.00    -0.003 A 
HETATM   23  C   UNL     1     -40.587  52.857 -52.128  1.00  0.00     0.053 A 
HETATM   24  C   UNL     1     -40.079  51.600 -51.865  1.00  0.00     0.106 A 
HETATM   25  C   UNL     1     -39.774  50.711 -52.868  1.00  0.00     0.105 A 
HETATM   26  O   UNL     1     -39.822  51.095 -50.628  1.00  0.00    -0.323 OA
HETATM   27  O   UNL     1     -39.288  49.535 -52.390  1.00  0.00    -0.323 OA
HETATM   28  C   UNL     1     -39.956  51.030 -54.194  1.00  0.00     0.040 A 
HETATM   29  C   UNL     1     -39.317  49.787 -50.969  1.00  0.00     0.352 A 
HETATM   30  C   UNL     1     -40.467  52.300 -54.491  1.00  0.00     0.017 A 
ENDBRANCH   5  22
TORSDOF 8
ENDMDL
