MODEL 1
REMARK VINA RESULT:      -9.2      0.000      0.000
REMARK  2 active torsions:
REMARK  status: ('A' for Active; 'I' for Inactive)
REMARK    1  A    between atoms: C_4  and  C_5 
REMARK       I    between atoms: N_12  and  C_13 
REMARK    2  A    between atoms: C_13  and  C_14 
ROOT
HETATM    1  C   UNL     1     -43.113  61.428 -51.906  1.00  0.00     0.097 A 
HETATM    2  N   UNL     1     -43.083  62.269 -52.960  1.00  0.00    -0.173 NA
HETATM    3  N   UNL     1     -42.559  61.556 -53.967  1.00  0.00    -0.281 N 
HETATM    4  H   UNL     1     -42.454  62.008 -54.870  1.00  0.00     0.189 HD
HETATM    5  C   UNL     1     -42.253  60.287 -53.608  1.00  0.00     0.039 A 
HETATM    6  C   UNL     1     -42.588  60.154 -52.281  1.00  0.00     0.015 A 
HETATM    7  C   UNL     1     -42.406  58.892 -51.518  1.00  0.00     0.168 C 
HETATM    8  N   UNL     1     -41.948  57.781 -52.385  1.00  0.00    -0.347 N 
HETATM    9  C   UNL     1     -41.885  56.545 -51.738  1.00  0.00     0.226 C 
HETATM   10  O   UNL     1     -42.324  56.402 -50.594  1.00  0.00    -0.273 OA
HETATM   11  C   UNL     1     -41.100  58.127 -53.555  1.00  0.00     0.132 C 
HETATM   12  C   UNL     1     -41.702  59.219 -54.462  1.00  0.00     0.079 C 
ENDROOT
BRANCH   9  13
HETATM   13  C   UNL     1     -41.288  55.364 -52.485  1.00  0.00     0.106 C 
HETATM   14  C   UNL     1     -42.307  54.766 -53.447  1.00  0.00     0.190 C 
HETATM   15  O   UNL     1     -41.716  53.765 -54.286  1.00  0.00    -0.350 OA
HETATM   16  C   UNL     1     -40.949  52.843 -53.621  1.00  0.00     0.075 A 
HETATM   17  C   UNL     1     -40.493  53.020 -52.308  1.00  0.00    -0.024 A 
HETATM   18  C   UNL     1     -40.594  51.704 -54.341  1.00  0.00     0.037 A 
HETATM   19  C   UNL     1     -40.864  54.249 -51.527  1.00  0.00     0.057 C 
HETATM   20  C   UNL     1     -39.709  52.021 -51.715  1.00  0.00     0.010 A 
HETATM   21  C   UNL     1     -39.362  50.877 -52.435  1.00  0.00     0.001 A 
HETATM   22  C   UNL     1     -39.802  50.720 -53.748  1.00  0.00     0.003 A 
ENDBRANCH   9  13
BRANCH   1  23
HETATM   23  C   UNL     1     -43.660  61.874 -50.617  1.00  0.00    -0.005 A 
HETATM   24  C   UNL     1     -43.399  63.177 -50.163  1.00  0.00     0.014 A 
HETATM   25  C   UNL     1     -43.918  63.635 -48.948  1.00  0.00     0.001 A 
HETATM   26  C   UNL     1     -44.705  62.794 -48.167  1.00  0.00     0.000 A 
HETATM   27  C   UNL     1     -44.965  61.495 -48.596  1.00  0.00     0.001 A 
HETATM   28  C   UNL     1     -44.440  61.035 -49.809  1.00  0.00     0.014 A 
ENDBRANCH   1  23
TORSDOF 2
ENDMDL
MODEL 2
REMARK VINA RESULT:      -8.8      4.403      5.714
REMARK  2 active torsions:
REMARK  status: ('A' for Active; 'I' for Inactive)
REMARK    1  A    between atoms: C_4  and  C_5 
REMARK       I    between atoms: N_12  and  C_13 
REMARK    2  A    between atoms: C_13  and  C_14 
ROOT
HETATM    1  C   UNL     1     -43.802  58.730 -56.564  1.00  0.00     0.097 A 
HETATM    2  N   UNL     1     -45.021  59.174 -56.199  1.00  0.00    -0.173 NA
HETATM    3  N   UNL     1     -45.429  58.340 -55.233  1.00  0.00    -0.281 N 
HETATM    4  H   UNL     1     -46.336  58.504 -54.808  1.00  0.00     0.189 HD
HETATM    5  C   UNL     1     -44.520  57.375 -54.956  1.00  0.00     0.039 A 
HETATM    6  C   UNL     1     -43.449  57.580 -55.794  1.00  0.00     0.015 A 
HETATM    7  C   UNL     1     -42.236  56.723 -55.788  1.00  0.00     0.168 C 
HETATM    8  N   UNL     1     -42.270  55.720 -54.698  1.00  0.00    -0.347 N 
HETATM    9  C   UNL     1     -41.095  54.976 -54.574  1.00  0.00     0.226 C 
HETATM   10  O   UNL     1     -40.089  55.261 -55.229  1.00  0.00    -0.273 OA
HETATM   11  C   UNL     1     -43.599  55.210 -54.276  1.00  0.00     0.132 C 
HETATM   12  C   UNL     1     -44.614  56.319 -53.931  1.00  0.00     0.079 C 
ENDROOT
BRANCH   9  13
HETATM   13  C   UNL     1     -41.069  53.818 -53.590  1.00  0.00     0.106 C 
HETATM   14  C   UNL     1     -40.459  54.254 -52.264  1.00  0.00     0.190 C 
HETATM   15  O   UNL     1     -40.582  53.232 -51.266  1.00  0.00    -0.350 OA
HETATM   16  C   UNL     1     -40.209  51.980 -51.682  1.00  0.00     0.075 A 
HETATM   17  C   UNL     1     -40.039  51.631 -53.028  1.00  0.00    -0.024 A 
HETATM   18  C   UNL     1     -40.040  51.024 -50.681  1.00  0.00     0.037 A 
HETATM   19  C   UNL     1     -40.226  52.654 -54.114  1.00  0.00     0.057 C 
HETATM   20  C   UNL     1     -39.661  50.322 -53.354  1.00  0.00     0.010 A 
HETATM   21  C   UNL     1     -39.484  49.369 -52.350  1.00  0.00     0.001 A 
HETATM   22  C   UNL     1     -39.677  49.719 -51.015  1.00  0.00     0.003 A 
ENDBRANCH   9  13
BRANCH   1  23
HETATM   23  C   UNL     1     -43.034  59.435 -57.600  1.00  0.00    -0.005 A 
HETATM   24  C   UNL     1     -43.119  59.013 -58.938  1.00  0.00     0.014 A 
HETATM   25  C   UNL     1     -42.413  59.673 -59.948  1.00  0.00     0.001 A 
HETATM   26  C   UNL     1     -41.608  60.764 -59.635  1.00  0.00     0.000 A 
HETATM   27  C   UNL     1     -41.502  61.189 -58.313  1.00  0.00     0.001 A 
HETATM   28  C   UNL     1     -42.205  60.524 -57.301  1.00  0.00     0.014 A 
ENDBRANCH   1  23
TORSDOF 2
ENDMDL
MODEL 3
REMARK VINA RESULT:      -8.7      2.262      9.011
REMARK  2 active torsions:
REMARK  status: ('A' for Active; 'I' for Inactive)
REMARK    1  A    between atoms: C_4  and  C_5 
REMARK       I    between atoms: N_12  and  C_13 
REMARK    2  A    between atoms: C_13  and  C_14 
ROOT
HETATM    1  C   UNL     1     -40.383  53.236 -53.893  1.00  0.00     0.097 A 
HETATM    2  N   UNL     1     -40.151  53.142 -55.218  1.00  0.00    -0.173 NA
HETATM    3  N   UNL     1     -40.472  54.343 -55.720  1.00  0.00    -0.281 N 
HETATM    4  H   UNL     1     -40.361  54.491 -56.718  1.00  0.00     0.189 HD
HETATM    5  C   UNL     1     -40.898  55.211 -54.772  1.00  0.00     0.039 A 
HETATM    6  C   UNL     1     -40.864  54.542 -53.571  1.00  0.00     0.015 A 
HETATM    7  C   UNL     1     -41.256  55.166 -52.281  1.00  0.00     0.168 C 
HETATM    8  N   UNL     1     -41.558  56.609 -52.432  1.00  0.00    -0.347 N 
HETATM    9  C   UNL     1     -41.808  57.265 -51.225  1.00  0.00     0.226 C 
HETATM   10  O   UNL     1     -41.634  56.697 -50.143  1.00  0.00    -0.273 OA
HETATM   11  C   UNL     1     -42.118  57.062 -53.730  1.00  0.00     0.132 C 
HETATM   12  C   UNL     1     -41.291  56.620 -54.955  1.00  0.00     0.079 C 
ENDROOT
BRANCH   9  13
HETATM   13  C   UNL     1     -42.274  58.711 -51.267  1.00  0.00     0.106 C 
HETATM   14  C   UNL     1     -41.529  59.546 -50.235  1.00  0.00     0.190 C 
HETATM   15  O   UNL     1     -41.823  60.942 -50.373  1.00  0.00    -0.350 OA
HETATM   16  C   UNL     1     -43.158  61.235 -50.488  1.00  0.00     0.075 A 
HETATM   17  C   UNL     1     -44.137  60.277 -50.781  1.00  0.00    -0.024 A 
HETATM   18  C   UNL     1     -43.509  62.576 -50.339  1.00  0.00     0.037 A 
HETATM   19  C   UNL     1     -43.766  58.830 -50.952  1.00  0.00     0.057 C 
HETATM   20  C   UNL     1     -45.476  60.676 -50.884  1.00  0.00     0.010 A 
HETATM   21  C   UNL     1     -45.827  62.018 -50.726  1.00  0.00     0.001 A 
HETATM   22  C   UNL     1     -44.843  62.967 -50.456  1.00  0.00     0.003 A 
ENDBRANCH   9  13
BRANCH   1  23
HETATM   23  C   UNL     1     -40.111  52.094 -53.009  1.00  0.00    -0.005 A 
HETATM   24  C   UNL     1     -39.864  50.828 -53.565  1.00  0.00     0.014 A 
HETATM   25  C   UNL     1     -39.588  49.725 -52.751  1.00  0.00     0.001 A 
HETATM   26  C   UNL     1     -39.557  49.872 -51.367  1.00  0.00     0.000 A 
HETATM   27  C   UNL     1     -39.812  51.118 -50.798  1.00  0.00     0.001 A 
HETATM   28  C   UNL     1     -40.094  52.220 -51.613  1.00  0.00     0.014 A 
ENDBRANCH   1  23
TORSDOF 2
ENDMDL
MODEL 4
REMARK VINA RESULT:      -8.7      4.026      9.122
REMARK  2 active torsions:
REMARK  status: ('A' for Active; 'I' for Inactive)
REMARK    1  A    between atoms: C_4  and  C_5 
REMARK       I    between atoms: N_12  and  C_13 
REMARK    2  A    between atoms: C_13  and  C_14 
ROOT
HETATM    1  C   UNL     1     -40.690  53.902 -52.368  1.00  0.00     0.097 A 
HETATM    2  N   UNL     1     -40.596  54.306 -51.085  1.00  0.00    -0.173 NA
HETATM    3  N   UNL     1     -41.003  55.584 -51.085  1.00  0.00    -0.281 N 
HETATM    4  H   UNL     1     -41.017  56.082 -50.201  1.00  0.00     0.189 HD
HETATM    5  C   UNL     1     -41.361  56.020 -52.316  1.00  0.00     0.039 A 
HETATM    6  C   UNL     1     -41.172  54.971 -53.184  1.00  0.00     0.015 A 
HETATM    7  C   UNL     1     -41.462  55.057 -54.639  1.00  0.00     0.168 C 
HETATM    8  N   UNL     1     -42.090  56.348 -55.004  1.00  0.00    -0.347 N 
HETATM    9  C   UNL     1     -42.495  56.424 -56.338  1.00  0.00     0.226 C 
HETATM   10  O   UNL     1     -42.457  55.433 -57.073  1.00  0.00    -0.273 OA
HETATM   11  C   UNL     1     -41.723  57.542 -54.200  1.00  0.00     0.132 C 
HETATM   12  C   UNL     1     -41.891  57.347 -52.680  1.00  0.00     0.079 C 
ENDROOT
BRANCH   9  13
HETATM   13  C   UNL     1     -43.015  57.752 -56.865  1.00  0.00     0.106 C 
HETATM   14  C   UNL     1     -44.382  57.575 -57.511  1.00  0.00     0.190 C 
HETATM   15  O   UNL     1     -44.969  58.836 -57.858  1.00  0.00    -0.350 OA
HETATM   16  C   UNL     1     -44.130  59.692 -58.523  1.00  0.00     0.075 A 
HETATM   17  C   UNL     1     -42.740  59.523 -58.582  1.00  0.00    -0.024 A 
HETATM   18  C   UNL     1     -44.729  60.798 -59.125  1.00  0.00     0.037 A 
HETATM   19  C   UNL     1     -42.085  58.338 -57.929  1.00  0.00     0.057 C 
HETATM   20  C   UNL     1     -41.965  60.456 -59.283  1.00  0.00     0.010 A 
HETATM   21  C   UNL     1     -42.568  61.558 -59.892  1.00  0.00     0.001 A 
HETATM   22  C   UNL     1     -43.949  61.730 -59.810  1.00  0.00     0.003 A 
ENDBRANCH   9  13
BRANCH   1  23
HETATM   23  C   UNL     1     -40.343  52.523 -52.739  1.00  0.00    -0.005 A 
HETATM   24  C   UNL     1     -39.801  51.658 -51.774  1.00  0.00     0.014 A 
HETATM   25  C   UNL     1     -39.475  50.337 -52.093  1.00  0.00     0.001 A 
HETATM   26  C   UNL     1     -39.684  49.860 -53.383  1.00  0.00     0.000 A 
HETATM   27  C   UNL     1     -40.210  50.707 -54.356  1.00  0.00     0.001 A 
HETATM   28  C   UNL     1     -40.531  52.032 -54.038  1.00  0.00     0.014 A 
ENDBRANCH   1  23
TORSDOF 2
ENDMDL
MODEL 5
REMARK VINA RESULT:      -8.6      4.707      9.280
REMARK  2 active torsions:
REMARK  status: ('A' for Active; 'I' for Inactive)
REMARK    1  A    between atoms: C_4  and  C_5 
REMARK       I    between atoms: N_12  and  C_13 
REMARK    2  A    between atoms: C_13  and  C_14 
ROOT
HETATM    1  C   UNL     1     -42.392  54.540 -53.017  1.00  0.00     0.097 A 
HETATM    2  N   UNL     1     -42.965  54.832 -51.832  1.00  0.00    -0.173 NA
HETATM    3  N   UNL     1     -43.781  55.867 -52.077  1.00  0.00    -0.281 N 
HETATM    4  H   UNL     1     -44.323  56.243 -51.306  1.00  0.00     0.189 HD
HETATM    5  C   UNL     1     -43.759  56.255 -53.374  1.00  0.00     0.039 A 
HETATM    6  C   UNL     1     -42.872  55.431 -54.025  1.00  0.00     0.015 A 
HETATM    7  C   UNL     1     -42.577  55.539 -55.477  1.00  0.00     0.168 C 
HETATM    8  N   UNL     1     -43.439  56.541 -56.146  1.00  0.00    -0.347 N 
HETATM    9  C   UNL     1     -43.284  56.587 -57.532  1.00  0.00     0.226 C 
HETATM   10  O   UNL     1     -42.599  55.750 -58.125  1.00  0.00    -0.273 OA
HETATM   11  C   UNL     1     -43.886  57.707 -55.342  1.00  0.00     0.132 C 
HETATM   12  C   UNL     1     -44.553  57.326 -54.005  1.00  0.00     0.079 C 
ENDROOT
BRANCH   9  13
HETATM   13  C   UNL     1     -44.006  57.677 -58.308  1.00  0.00     0.106 C 
HETATM   14  C   UNL     1     -45.291  57.139 -58.922  1.00  0.00     0.190 C 
HETATM   15  O   UNL     1     -46.074  58.186 -59.510  1.00  0.00    -0.350 OA
HETATM   16  C   UNL     1     -45.369  59.041 -60.318  1.00  0.00     0.075 A 
HETATM   17  C   UNL     1     -43.971  59.118 -60.328  1.00  0.00    -0.024 A 
HETATM   18  C   UNL     1     -46.126  59.889 -61.125  1.00  0.00     0.037 A 
HETATM   19  C   UNL     1     -43.147  58.213 -59.455  1.00  0.00     0.057 C 
HETATM   20  C   UNL     1     -43.341  60.029 -61.187  1.00  0.00     0.010 A 
HETATM   21  C   UNL     1     -44.101  60.871 -62.001  1.00  0.00     0.001 A 
HETATM   22  C   UNL     1     -45.492  60.802 -61.968  1.00  0.00     0.003 A 
ENDBRANCH   9  13
BRANCH   1  23
HETATM   23  C   UNL     1     -41.445  53.422 -53.128  1.00  0.00    -0.005 A 
HETATM   24  C   UNL     1     -40.605  53.111 -52.046  1.00  0.00     0.014 A 
HETATM   25  C   UNL     1     -39.704  52.044 -52.116  1.00  0.00     0.001 A 
HETATM   26  C   UNL     1     -39.628  51.273 -53.271  1.00  0.00     0.000 A 
HETATM   27  C   UNL     1     -40.445  51.574 -54.359  1.00  0.00     0.001 A 
HETATM   28  C   UNL     1     -41.342  52.646 -54.290  1.00  0.00     0.014 A 
ENDBRANCH   1  23
TORSDOF 2
ENDMDL
MODEL 6
REMARK VINA RESULT:      -8.5      2.465      3.654
REMARK  2 active torsions:
REMARK  status: ('A' for Active; 'I' for Inactive)
REMARK    1  A    between atoms: C_4  and  C_5 
REMARK       I    between atoms: N_12  and  C_13 
REMARK    2  A    between atoms: C_13  and  C_14 
ROOT
HETATM    1  C   UNL     1     -44.354  59.620 -52.273  1.00  0.00     0.097 A 
HETATM    2  N   UNL     1     -45.219  59.838 -51.261  1.00  0.00    -0.173 NA
HETATM    3  N   UNL     1     -45.274  58.680 -50.587  1.00  0.00    -0.281 N 
HETATM    4  H   UNL     1     -45.873  58.630 -49.769  1.00  0.00     0.189 HD
HETATM    5  C   UNL     1     -44.478  57.724 -51.120  1.00  0.00     0.039 A 
HETATM    6  C   UNL     1     -43.863  58.281 -52.217  1.00  0.00     0.015 A 
HETATM    7  C   UNL     1     -42.899  57.541 -53.072  1.00  0.00     0.168 C 
HETATM    8  N   UNL     1     -42.592  56.198 -52.527  1.00  0.00    -0.347 N 
HETATM    9  C   UNL     1     -41.595  55.516 -53.228  1.00  0.00     0.226 C 
HETATM   10  O   UNL     1     -40.947  56.073 -54.118  1.00  0.00    -0.273 OA
HETATM   11  C   UNL     1     -43.660  55.506 -51.761  1.00  0.00     0.132 C 
HETATM   12  C   UNL     1     -44.260  56.354 -50.621  1.00  0.00     0.079 C 
ENDROOT
BRANCH   9  13
HETATM   13  C   UNL     1     -41.301  54.072 -52.853  1.00  0.00     0.106 C 
HETATM   14  C   UNL     1     -40.290  54.008 -51.716  1.00  0.00     0.190 C 
HETATM   15  O   UNL     1     -40.129  52.669 -51.229  1.00  0.00    -0.350 OA
HETATM   16  C   UNL     1     -39.950  51.724 -52.206  1.00  0.00     0.075 A 
HETATM   17  C   UNL     1     -40.224  51.951 -53.561  1.00  0.00    -0.024 A 
HETATM   18  C   UNL     1     -39.510  50.473 -51.778  1.00  0.00     0.037 A 
HETATM   19  C   UNL     1     -40.708  53.295 -54.030  1.00  0.00     0.057 C 
HETATM   20  C   UNL     1     -40.015  50.919 -54.484  1.00  0.00     0.010 A 
HETATM   21  C   UNL     1     -39.565  49.669 -54.055  1.00  0.00     0.001 A 
HETATM   22  C   UNL     1     -39.315  49.446 -52.702  1.00  0.00     0.003 A 
ENDBRANCH   9  13
BRANCH   1  23
HETATM   23  C   UNL     1     -44.027  60.701 -53.214  1.00  0.00    -0.005 A 
HETATM   24  C   UNL     1     -43.421  61.876 -52.740  1.00  0.00     0.014 A 
HETATM   25  C   UNL     1     -43.084  62.915 -53.613  1.00  0.00     0.001 A 
HETATM   26  C   UNL     1     -43.351  62.795 -54.974  1.00  0.00     0.000 A 
HETATM   27  C   UNL     1     -43.963  61.641 -55.459  1.00  0.00     0.001 A 
HETATM   28  C   UNL     1     -44.305  60.604 -54.584  1.00  0.00     0.014 A 
ENDBRANCH   1  23
TORSDOF 2
ENDMDL
MODEL 7
REMARK VINA RESULT:      -8.5      2.235      8.996
REMARK  2 active torsions:
REMARK  status: ('A' for Active; 'I' for Inactive)
REMARK    1  A    between atoms: C_4  and  C_5 
REMARK       I    between atoms: N_12  and  C_13 
REMARK    2  A    between atoms: C_13  and  C_14 
ROOT
HETATM    1  C   UNL     1     -42.258  54.221 -54.036  1.00  0.00     0.097 A 
HETATM    2  N   UNL     1     -42.854  53.817 -55.175  1.00  0.00    -0.173 NA
HETATM    3  N   UNL     1     -43.666  54.825 -55.528  1.00  0.00    -0.281 N 
HETATM    4  H   UNL     1     -44.212  54.726 -56.378  1.00  0.00     0.189 HD
HETATM    5  C   UNL     1     -43.615  55.865 -54.663  1.00  0.00     0.039 A 
HETATM    6  C   UNL     1     -42.721  55.523 -53.676  1.00  0.00     0.015 A 
HETATM    7  C   UNL     1     -42.386  56.417 -52.537  1.00  0.00     0.168 C 
HETATM    8  N   UNL     1     -43.024  57.747 -52.669  1.00  0.00    -0.347 N 
HETATM    9  C   UNL     1     -42.637  58.662 -51.689  1.00  0.00     0.226 C 
HETATM   10  O   UNL     1     -41.729  58.399 -50.895  1.00  0.00    -0.273 OA
HETATM   11  C   UNL     1     -44.334  57.815 -53.366  1.00  0.00     0.132 C 
HETATM   12  C   UNL     1     -44.337  57.148 -54.757  1.00  0.00     0.079 C 
ENDROOT
BRANCH   9  13
HETATM   13  C   UNL     1     -43.337  60.010 -51.634  1.00  0.00     0.106 C 
HETATM   14  C   UNL     1     -42.714  60.981 -52.628  1.00  0.00     0.190 C 
HETATM   15  O   UNL     1     -43.466  62.197 -52.720  1.00  0.00    -0.350 OA
HETATM   16  C   UNL     1     -43.802  62.753 -51.512  1.00  0.00     0.075 A 
HETATM   17  C   UNL     1     -43.727  62.063 -50.296  1.00  0.00    -0.024 A 
HETATM   18  C   UNL     1     -44.276  64.064 -51.549  1.00  0.00     0.037 A 
HETATM   19  C   UNL     1     -43.224  60.648 -50.248  1.00  0.00     0.057 C 
HETATM   20  C   UNL     1     -44.098  62.717 -49.113  1.00  0.00     0.010 A 
HETATM   21  C   UNL     1     -44.564  64.032 -49.151  1.00  0.00     0.001 A 
HETATM   22  C   UNL     1     -44.656  64.704 -50.369  1.00  0.00     0.003 A 
ENDBRANCH   9  13
BRANCH   1  23
HETATM   23  C   UNL     1     -41.268  53.362 -53.371  1.00  0.00    -0.005 A 
HETATM   24  C   UNL     1     -40.583  52.386 -54.114  1.00  0.00     0.014 A 
HETATM   25  C   UNL     1     -39.625  51.564 -53.514  1.00  0.00     0.001 A 
HETATM   26  C   UNL     1     -39.339  51.703 -52.159  1.00  0.00     0.000 A 
HETATM   27  C   UNL     1     -40.018  52.657 -51.404  1.00  0.00     0.001 A 
HETATM   28  C   UNL     1     -40.980  53.477 -52.005  1.00  0.00     0.014 A 
ENDBRANCH   1  23
TORSDOF 2
ENDMDL
MODEL 8
REMARK VINA RESULT:      -8.3      1.817      2.694
REMARK  2 active torsions:
REMARK  status: ('A' for Active; 'I' for Inactive)
REMARK    1  A    between atoms: C_4  and  C_5 
REMARK       I    between atoms: N_12  and  C_13 
REMARK    2  A    between atoms: C_13  and  C_14 
ROOT
HETATM    1  C   UNL     1     -44.183  59.548 -52.821  1.00  0.00     0.097 A 
HETATM    2  N   UNL     1     -45.113  59.637 -53.794  1.00  0.00    -0.173 NA
HETATM    3  N   UNL     1     -45.176  58.413 -54.337  1.00  0.00    -0.281 N 
HETATM    4  H   UNL     1     -45.832  58.259 -55.096  1.00  0.00     0.189 HD
HETATM    5  C   UNL     1     -44.327  57.535 -53.752  1.00  0.00     0.039 A 
HETATM    6  C   UNL     1     -43.657  58.221 -52.767  1.00  0.00     0.015 A 
HETATM    7  C   UNL     1     -42.636  57.593 -51.890  1.00  0.00     0.168 C 
HETATM    8  N   UNL     1     -42.527  56.134 -52.121  1.00  0.00    -0.347 N 
HETATM    9  C   UNL     1     -41.671  55.481 -51.232  1.00  0.00     0.226 C 
HETATM   10  O   UNL     1     -41.188  56.072 -50.263  1.00  0.00    -0.273 OA
HETATM   11  C   UNL     1     -42.808  55.632 -53.490  1.00  0.00     0.132 C 
HETATM   12  C   UNL     1     -44.160  56.104 -54.063  1.00  0.00     0.079 C 
ENDROOT
BRANCH   9  13
HETATM   13  C   UNL     1     -41.366  54.010 -51.465  1.00  0.00     0.106 C 
HETATM   14  C   UNL     1     -40.299  53.523 -50.494  1.00  0.00     0.190 C 
HETATM   15  O   UNL     1     -40.120  52.102 -50.576  1.00  0.00    -0.350 OA
HETATM   16  C   UNL     1     -39.996  51.616 -51.852  1.00  0.00     0.075 A 
HETATM   17  C   UNL     1     -40.337  52.349 -52.996  1.00  0.00    -0.024 A 
HETATM   18  C   UNL     1     -39.541  50.303 -51.968  1.00  0.00     0.037 A 
HETATM   19  C   UNL     1     -40.836  53.762 -52.879  1.00  0.00     0.057 C 
HETATM   20  C   UNL     1     -40.180  51.763 -54.258  1.00  0.00     0.010 A 
HETATM   21  C   UNL     1     -39.716  50.451 -54.373  1.00  0.00     0.001 A 
HETATM   22  C   UNL     1     -39.399  49.721 -53.229  1.00  0.00     0.003 A 
ENDBRANCH   9  13
BRANCH   1  23
HETATM   23  C   UNL     1     -43.869  60.716 -51.986  1.00  0.00    -0.005 A 
HETATM   24  C   UNL     1     -43.948  60.613 -50.587  1.00  0.00     0.014 A 
HETATM   25  C   UNL     1     -43.641  61.702 -49.766  1.00  0.00     0.001 A 
HETATM   26  C   UNL     1     -43.251  62.912 -50.332  1.00  0.00     0.000 A 
HETATM   27  C   UNL     1     -43.179  63.035 -51.718  1.00  0.00     0.001 A 
HETATM   28  C   UNL     1     -43.492  61.947 -52.539  1.00  0.00     0.014 A 
ENDBRANCH   1  23
TORSDOF 2
ENDMDL
MODEL 9
REMARK VINA RESULT:      -8.1     18.004     20.582
REMARK  2 active torsions:
REMARK  status: ('A' for Active; 'I' for Inactive)
REMARK    1  A    between atoms: C_4  and  C_5 
REMARK       I    between atoms: N_12  and  C_13 
REMARK    2  A    between atoms: C_13  and  C_14 
ROOT
HETATM    1  C   UNL     1     -37.412  40.604 -59.454  1.00  0.00     0.097 A 
HETATM    2  N   UNL     1     -37.474  41.831 -60.011  1.00  0.00    -0.173 NA
HETATM    3  N   UNL     1     -36.846  42.643 -59.149  1.00  0.00    -0.281 N 
HETATM    4  H   UNL     1     -36.773  43.628 -59.385  1.00  0.00     0.189 HD
HETATM    5  C   UNL     1     -36.377  41.991 -58.060  1.00  0.00     0.039 A 
HETATM    6  C   UNL     1     -36.721  40.667 -58.206  1.00  0.00     0.015 A 
HETATM    7  C   UNL     1     -36.374  39.622 -57.209  1.00  0.00     0.168 C 
HETATM    8  N   UNL     1     -35.515  40.152 -56.125  1.00  0.00    -0.347 N 
HETATM    9  C   UNL     1     -35.060  39.178 -55.234  1.00  0.00     0.226 C 
HETATM   10  O   UNL     1     -35.249  37.978 -55.451  1.00  0.00    -0.273 OA
HETATM   11  C   UNL     1     -35.690  41.577 -55.746  1.00  0.00     0.132 C 
HETATM   12  C   UNL     1     -35.608  42.555 -56.936  1.00  0.00     0.079 C 
ENDROOT
BRANCH   9  13
HETATM   13  C   UNL     1     -34.296  39.624 -53.998  1.00  0.00     0.106 C 
HETATM   14  C   UNL     1     -32.804  39.369 -54.169  1.00  0.00     0.190 C 
HETATM   15  O   UNL     1     -32.046  39.939 -53.094  1.00  0.00    -0.350 OA
HETATM   16  C   UNL     1     -32.533  39.662 -51.842  1.00  0.00     0.075 A 
HETATM   17  C   UNL     1     -33.820  39.161 -51.607  1.00  0.00    -0.024 A 
HETATM   18  C   UNL     1     -31.683  39.948 -50.774  1.00  0.00     0.037 A 
HETATM   19  C   UNL     1     -34.745  38.859 -52.752  1.00  0.00     0.057 C 
HETATM   20  C   UNL     1     -34.229  38.915 -50.290  1.00  0.00     0.010 A 
HETATM   21  C   UNL     1     -33.374  39.194 -49.222  1.00  0.00     0.001 A 
HETATM   22  C   UNL     1     -32.103  39.712 -49.464  1.00  0.00     0.003 A 
ENDBRANCH   9  13
BRANCH   1  23
HETATM   23  C   UNL     1     -37.986  39.444 -60.150  1.00  0.00    -0.005 A 
HETATM   24  C   UNL     1     -37.583  39.149 -61.463  1.00  0.00     0.014 A 
HETATM   25  C   UNL     1     -38.100  38.044 -62.145  1.00  0.00     0.001 A 
HETATM   26  C   UNL     1     -39.032  37.217 -61.525  1.00  0.00     0.000 A 
HETATM   27  C   UNL     1     -39.453  37.501 -60.227  1.00  0.00     0.001 A 
HETATM   28  C   UNL     1     -38.939  38.611 -59.547  1.00  0.00     0.014 A 
ENDBRANCH   1  23
TORSDOF 2
ENDMDL
MODEL 10
REMARK VINA RESULT:      -8.0      3.295      4.671
REMARK  2 active torsions:
REMARK  status: ('A' for Active; 'I' for Inactive)
REMARK    1  A    between atoms: C_4  and  C_5 
REMARK       I    between atoms: N_12  and  C_13 
REMARK    2  A    between atoms: C_13  and  C_14 
ROOT
HETATM    1  C   UNL     1     -44.019  59.530 -54.695  1.00  0.00     0.097 A 
HETATM    2  N   UNL     1     -44.898  60.096 -53.844  1.00  0.00    -0.173 NA
HETATM    3  N   UNL     1     -45.038  59.216 -52.842  1.00  0.00    -0.281 N 
HETATM    4  H   UNL     1     -45.661  59.455 -52.077  1.00  0.00     0.189 HD
HETATM    5  C   UNL     1     -44.282  58.106 -53.010  1.00  0.00     0.039 A 
HETATM    6  C   UNL     1     -43.606  58.257 -54.198  1.00  0.00     0.015 A 
HETATM    7  C   UNL     1     -42.662  57.241 -54.732  1.00  0.00     0.168 C 
HETATM    8  N   UNL     1     -42.446  56.128 -53.777  1.00  0.00    -0.347 N 
HETATM    9  C   UNL     1     -41.471  55.215 -54.182  1.00  0.00     0.226 C 
HETATM   10  O   UNL     1     -40.767  55.431 -55.172  1.00  0.00    -0.273 OA
HETATM   11  C   UNL     1     -43.573  55.765 -52.880  1.00  0.00     0.132 C 
HETATM   12  C   UNL     1     -44.155  56.957 -52.094  1.00  0.00     0.079 C 
ENDROOT
BRANCH   9  13
HETATM   13  C   UNL     1     -41.269  53.954 -53.358  1.00  0.00     0.106 C 
HETATM   14  C   UNL     1     -40.422  54.247 -52.126  1.00  0.00     0.190 C 
HETATM   15  O   UNL     1     -40.365  53.117 -51.245  1.00  0.00    -0.350 OA
HETATM   16  C   UNL     1     -40.082  51.926 -51.862  1.00  0.00     0.075 A 
HETATM   17  C   UNL     1     -40.166  51.734 -53.247  1.00  0.00    -0.024 A 
HETATM   18  C   UNL     1     -39.737  50.866 -51.025  1.00  0.00     0.037 A 
HETATM   19  C   UNL     1     -40.545  52.869 -54.156  1.00  0.00     0.057 C 
HETATM   20  C   UNL     1     -39.863  50.476 -53.784  1.00  0.00     0.010 A 
HETATM   21  C   UNL     1     -39.509  49.418 -52.945  1.00  0.00     0.001 A 
HETATM   22  C   UNL     1     -39.449  49.612 -51.566  1.00  0.00     0.003 A 
ENDBRANCH   9  13
BRANCH   1  23
HETATM   23  C   UNL     1     -43.605  60.239 -55.914  1.00  0.00    -0.005 A 
HETATM   24  C   UNL     1     -43.287  61.606 -55.850  1.00  0.00     0.014 A 
HETATM   25  C   UNL     1     -42.876  62.305 -56.989  1.00  0.00     0.001 A 
HETATM   26  C   UNL     1     -42.778  61.647 -58.211  1.00  0.00     0.000 A 
HETATM   27  C   UNL     1     -43.102  60.295 -58.296  1.00  0.00     0.001 A 
HETATM   28  C   UNL     1     -43.519  59.597 -57.157  1.00  0.00     0.014 A 
ENDBRANCH   1  23
TORSDOF 2
ENDMDL
