MODEL 1
REMARK VINA RESULT:      -8.5      0.000      0.000
REMARK  7 active torsions:
REMARK  status: ('A' for Active; 'I' for Inactive)
REMARK    1  A    between atoms: C_2  and  N_3 
REMARK       I    between atoms: N_3  and  C_4 
REMARK    2  A    between atoms: N_3  and  C_21 
REMARK    3  A    between atoms: C_4  and  C_5 
REMARK    4  A    between atoms: C_14  and  O_15 
REMARK    5  A    between atoms: C_21  and  C_22 
REMARK       I    between atoms: C_22  and  N_23 
REMARK    6  A    between atoms: N_23  and  C_24 
REMARK    7  A    between atoms: C_27  and  N_28 
REMARK       I    between atoms: N_28  and  C_29 
ROOT
HETATM    1  N   UNL     1     -44.460  58.030 -57.277  1.00  0.00    -0.339 N 
HETATM    2  C   UNL     1     -44.514  58.897 -56.166  1.00  0.00     0.261 C 
HETATM    3  O   UNL     1     -45.406  59.752 -56.151  1.00  0.00    -0.267 OA
ENDROOT
BRANCH   1   4
HETATM    4  C   UNL     1     -45.598  58.060 -58.207  1.00  0.00     0.122 C 
HETATM    5  C   UNL     1     -45.180  57.841 -59.655  1.00  0.00     0.026 C 
ENDBRANCH   1   4
BRANCH   1   6
HETATM    6  C   UNL     1     -43.232  57.413 -57.793  1.00  0.00     0.229 C 
BRANCH   6   7
HETATM    7  C   UNL     1     -42.949  55.997 -57.263  1.00  0.00     0.240 C 
HETATM    8  N   UNL     1     -42.238  55.988 -56.078  1.00  0.00    -0.326 N 
HETATM    9  H   UNL     1     -42.059  56.901 -55.675  1.00  0.00     0.169 HD
HETATM   10  O   UNL     1     -43.260  55.018 -57.934  1.00  0.00    -0.271 OA
BRANCH   8  11
HETATM   11  C   UNL     1     -41.660  54.887 -55.421  1.00  0.00     0.034 A 
HETATM   12  C   UNL     1     -40.318  54.529 -55.526  1.00  0.00     0.032 A 
HETATM   13  C   UNL     1     -39.811  53.434 -54.811  1.00  0.00     0.032 A 
HETATM   14  C   UNL     1     -40.638  52.682 -53.977  1.00  0.00     0.034 A 
HETATM   15  C   UNL     1     -41.988  53.037 -53.878  1.00  0.00     0.032 A 
HETATM   16  C   UNL     1     -42.495  54.127 -54.596  1.00  0.00     0.032 A 
BRANCH  14  17
HETATM   17  N   UNL     1     -40.204  51.579 -53.213  1.00  0.00    -0.328 N 
HETATM   18  C   UNL     1     -39.916  50.304 -53.665  1.00  0.00     0.218 C 
HETATM   19  C   UNL     1     -39.464  49.375 -52.564  1.00  0.00     0.117 C 
HETATM   20  O   UNL     1     -39.988  49.899 -54.820  1.00  0.00    -0.274 OA
HETATM   21  H   UNL     1     -40.085  51.751 -52.223  1.00  0.00     0.169 HD
ENDBRANCH  14  17
ENDBRANCH   8  11
ENDBRANCH   6   7
ENDBRANCH   1   6
BRANCH   2  22
HETATM   22  C   UNL     1     -43.628  58.704 -55.006  1.00  0.00     0.074 A 
HETATM   23  S   UNL     1     -44.165  57.546 -53.830  1.00  0.00    -0.084 SA
HETATM   24  C   UNL     1     -42.726  57.625 -52.942  1.00  0.00     0.023 A 
HETATM   25  C   UNL     1     -41.864  58.572 -53.452  1.00  0.00    -0.038 A 
HETATM   26  C   UNL     1     -42.418  56.802 -51.768  1.00  0.00    -0.012 A 
HETATM   27  C   UNL     1     -40.523  58.805 -52.823  1.00  0.00     0.044 C 
HETATM   28  C   UNL     1     -42.387  59.194 -54.630  1.00  0.00     0.033 A 
HETATM   29  C   UNL     1     -40.519  58.437 -51.326  1.00  0.00     0.044 C 
HETATM   30  C   UNL     1     -41.291  57.170 -50.997  1.00  0.00    -0.044 A 
HETATM   31  C   UNL     1     -40.944  56.410 -49.870  1.00  0.00     0.044 A 
HETATM   32  C   UNL     1     -41.688  55.283 -49.508  1.00  0.00     0.068 A 
HETATM   33  C   UNL     1     -42.786  54.911 -50.282  1.00  0.00     0.037 A 
HETATM   34  C   UNL     1     -43.150  55.666 -51.403  1.00  0.00     0.016 A 
BRANCH  32  35
HETATM   35  O   UNL     1     -41.242  54.635 -48.389  1.00  0.00    -0.356 OA
HETATM   36  C   UNL     1     -40.009  53.934 -48.507  1.00  0.00     0.210 C 
ENDBRANCH  32  35
ENDBRANCH   2  22
TORSDOF 7
ENDMDL
MODEL 2
REMARK VINA RESULT:      -8.0      3.402      7.262
REMARK  7 active torsions:
REMARK  status: ('A' for Active; 'I' for Inactive)
REMARK    1  A    between atoms: C_2  and  N_3 
REMARK       I    between atoms: N_3  and  C_4 
REMARK    2  A    between atoms: N_3  and  C_21 
REMARK    3  A    between atoms: C_4  and  C_5 
REMARK    4  A    between atoms: C_14  and  O_15 
REMARK    5  A    between atoms: C_21  and  C_22 
REMARK       I    between atoms: C_22  and  N_23 
REMARK    6  A    between atoms: N_23  and  C_24 
REMARK    7  A    between atoms: C_27  and  N_28 
REMARK       I    between atoms: N_28  and  C_29 
ROOT
HETATM    1  N   UNL     1     -44.010  59.640 -51.163  1.00  0.00    -0.339 N 
HETATM    2  C   UNL     1     -44.476  58.316 -51.298  1.00  0.00     0.261 C 
HETATM    3  O   UNL     1     -45.529  58.019 -50.723  1.00  0.00    -0.267 OA
ENDROOT
BRANCH   1   4
HETATM    4  C   UNL     1     -44.925  60.614 -50.551  1.00  0.00     0.122 C 
HETATM    5  C   UNL     1     -44.352  61.247 -49.289  1.00  0.00     0.026 C 
ENDBRANCH   1   4
BRANCH   1   6
HETATM    6  C   UNL     1     -42.596  60.035 -51.207  1.00  0.00     0.229 C 
BRANCH   6   7
HETATM    7  C   UNL     1     -41.981  60.075 -52.616  1.00  0.00     0.240 C 
HETATM    8  N   UNL     1     -42.860  60.521 -53.585  1.00  0.00    -0.326 N 
HETATM    9  H   UNL     1     -43.761  60.830 -53.240  1.00  0.00     0.169 HD
HETATM   10  O   UNL     1     -40.850  59.637 -52.804  1.00  0.00    -0.271 OA
BRANCH   8  11
HETATM   11  C   UNL     1     -42.692  60.509 -54.981  1.00  0.00     0.034 A 
HETATM   12  C   UNL     1     -42.193  59.426 -55.701  1.00  0.00     0.032 A 
HETATM   13  C   UNL     1     -42.086  59.483 -57.098  1.00  0.00     0.032 A 
HETATM   14  C   UNL     1     -42.480  60.623 -57.798  1.00  0.00     0.034 A 
HETATM   15  C   UNL     1     -42.973  61.714 -57.073  1.00  0.00     0.032 A 
HETATM   16  C   UNL     1     -43.074  61.659 -55.679  1.00  0.00     0.032 A 
BRANCH  14  17
HETATM   17  N   UNL     1     -42.421  60.754 -59.200  1.00  0.00    -0.328 N 
HETATM   18  C   UNL     1     -41.473  61.436 -59.942  1.00  0.00     0.218 C 
HETATM   19  C   UNL     1     -41.717  61.355 -61.430  1.00  0.00     0.117 C 
HETATM   20  O   UNL     1     -40.507  62.056 -59.511  1.00  0.00    -0.274 OA
HETATM   21  H   UNL     1     -43.155  60.287 -59.716  1.00  0.00     0.169 HD
ENDBRANCH  14  17
ENDBRANCH   8  11
ENDBRANCH   6   7
ENDBRANCH   1   6
BRANCH   2  22
HETATM   22  C   UNL     1     -43.807  57.361 -52.197  1.00  0.00     0.074 A 
HETATM   23  S   UNL     1     -42.612  56.340 -51.461  1.00  0.00    -0.084 SA
HETATM   24  C   UNL     1     -42.397  55.409 -52.858  1.00  0.00     0.023 A 
HETATM   25  C   UNL     1     -43.139  55.893 -53.913  1.00  0.00    -0.038 A 
HETATM   26  C   UNL     1     -41.526  54.232 -52.957  1.00  0.00    -0.012 A 
HETATM   27  C   UNL     1     -43.105  55.215 -55.250  1.00  0.00     0.044 C 
HETATM   28  C   UNL     1     -43.940  57.017 -53.533  1.00  0.00     0.033 A 
HETATM   29  C   UNL     1     -41.780  54.462 -55.477  1.00  0.00     0.044 C 
HETATM   30  C   UNL     1     -41.264  53.727 -54.251  1.00  0.00    -0.044 A 
HETATM   31  C   UNL     1     -40.447  52.597 -54.402  1.00  0.00     0.044 A 
HETATM   32  C   UNL     1     -39.903  51.952 -53.287  1.00  0.00     0.068 A 
HETATM   33  C   UNL     1     -40.180  52.440 -52.012  1.00  0.00     0.037 A 
HETATM   34  C   UNL     1     -40.984  53.573 -51.847  1.00  0.00     0.016 A 
BRANCH  32  35
HETATM   35  O   UNL     1     -39.126  50.864 -53.577  1.00  0.00    -0.356 OA
HETATM   36  C   UNL     1     -39.693  49.885 -54.440  1.00  0.00     0.210 C 
ENDBRANCH  32  35
ENDBRANCH   2  22
TORSDOF 7
ENDMDL
MODEL 3
REMARK VINA RESULT:      -8.0      2.506      7.159
REMARK  7 active torsions:
REMARK  status: ('A' for Active; 'I' for Inactive)
REMARK    1  A    between atoms: C_2  and  N_3 
REMARK       I    between atoms: N_3  and  C_4 
REMARK    2  A    between atoms: N_3  and  C_21 
REMARK    3  A    between atoms: C_4  and  C_5 
REMARK    4  A    between atoms: C_14  and  O_15 
REMARK    5  A    between atoms: C_21  and  C_22 
REMARK       I    between atoms: C_22  and  N_23 
REMARK    6  A    between atoms: N_23  and  C_24 
REMARK    7  A    between atoms: C_27  and  N_28 
REMARK       I    between atoms: N_28  and  C_29 
ROOT
HETATM    1  N   UNL     1     -42.927  59.416 -54.036  1.00  0.00    -0.339 N 
HETATM    2  C   UNL     1     -42.957  59.745 -55.407  1.00  0.00     0.261 C 
HETATM    3  O   UNL     1     -42.520  60.852 -55.739  1.00  0.00    -0.267 OA
ENDROOT
BRANCH   1   4
HETATM    4  C   UNL     1     -42.171  60.311 -53.148  1.00  0.00     0.122 C 
HETATM    5  C   UNL     1     -42.673  60.275 -51.710  1.00  0.00     0.026 C 
ENDBRANCH   1   4
BRANCH   1   6
HETATM    6  C   UNL     1     -43.881  58.518 -53.373  1.00  0.00     0.229 C 
BRANCH   6   7
HETATM    7  C   UNL     1     -43.574  57.019 -53.531  1.00  0.00     0.240 C 
HETATM    8  N   UNL     1     -42.249  56.704 -53.295  1.00  0.00    -0.326 N 
HETATM    9  H   UNL     1     -41.671  57.475 -52.980  1.00  0.00     0.169 HD
HETATM   10  O   UNL     1     -44.444  56.254 -53.935  1.00  0.00    -0.271 OA
BRANCH   8  11
HETATM   11  C   UNL     1     -41.593  55.481 -53.525  1.00  0.00     0.034 A 
HETATM   12  C   UNL     1     -40.906  55.170 -54.696  1.00  0.00     0.032 A 
HETATM   13  C   UNL     1     -40.249  53.938 -54.834  1.00  0.00     0.032 A 
HETATM   14  C   UNL     1     -40.268  53.000 -53.803  1.00  0.00     0.034 A 
HETATM   15  C   UNL     1     -40.965  53.310 -52.630  1.00  0.00     0.032 A 
HETATM   16  C   UNL     1     -41.625  54.537 -52.494  1.00  0.00     0.032 A 
BRANCH  14  17
HETATM   17  N   UNL     1     -39.621  51.748 -53.856  1.00  0.00    -0.328 N 
HETATM   18  C   UNL     1     -40.171  50.532 -54.218  1.00  0.00     0.218 C 
HETATM   19  C   UNL     1     -39.176  49.397 -54.172  1.00  0.00     0.117 C 
HETATM   20  O   UNL     1     -41.329  50.320 -54.560  1.00  0.00    -0.274 OA
HETATM   21  H   UNL     1     -38.640  51.750 -53.606  1.00  0.00     0.169 HD
ENDBRANCH  14  17
ENDBRANCH   8  11
ENDBRANCH   6   7
ENDBRANCH   1   6
BRANCH   2  22
HETATM   22  C   UNL     1     -43.367  58.757 -56.418  1.00  0.00     0.074 A 
HETATM   23  S   UNL     1     -44.928  59.010 -57.132  1.00  0.00    -0.084 SA
HETATM   24  C   UNL     1     -44.725  57.771 -58.267  1.00  0.00     0.023 A 
HETATM   25  C   UNL     1     -43.539  57.095 -58.078  1.00  0.00    -0.038 A 
HETATM   26  C   UNL     1     -45.685  57.435 -59.324  1.00  0.00    -0.012 A 
HETATM   27  C   UNL     1     -43.151  55.961 -58.979  1.00  0.00     0.044 C 
HETATM   28  C   UNL     1     -42.766  57.658 -57.013  1.00  0.00     0.033 A 
HETATM   29  C   UNL     1     -44.383  55.266 -59.590  1.00  0.00     0.044 C 
HETATM   30  C   UNL     1     -45.485  56.220 -60.019  1.00  0.00    -0.044 A 
HETATM   31  C   UNL     1     -46.367  55.856 -61.048  1.00  0.00     0.044 A 
HETATM   32  C   UNL     1     -47.431  56.688 -61.407  1.00  0.00     0.068 A 
HETATM   33  C   UNL     1     -47.614  57.895 -60.734  1.00  0.00     0.037 A 
HETATM   34  C   UNL     1     -46.748  58.265 -59.699  1.00  0.00     0.016 A 
BRANCH  32  35
HETATM   35  O   UNL     1     -48.213  56.213 -62.424  1.00  0.00    -0.356 OA
HETATM   36  C   UNL     1     -48.544  57.132 -63.458  1.00  0.00     0.210 C 
ENDBRANCH  32  35
ENDBRANCH   2  22
TORSDOF 7
ENDMDL
MODEL 4
REMARK VINA RESULT:      -7.8      2.408      5.957
REMARK  7 active torsions:
REMARK  status: ('A' for Active; 'I' for Inactive)
REMARK    1  A    between atoms: C_2  and  N_3 
REMARK       I    between atoms: N_3  and  C_4 
REMARK    2  A    between atoms: N_3  and  C_21 
REMARK    3  A    between atoms: C_4  and  C_5 
REMARK    4  A    between atoms: C_14  and  O_15 
REMARK    5  A    between atoms: C_21  and  C_22 
REMARK       I    between atoms: C_22  and  N_23 
REMARK    6  A    between atoms: N_23  and  C_24 
REMARK    7  A    between atoms: C_27  and  N_28 
REMARK       I    between atoms: N_28  and  C_29 
ROOT
HETATM    1  N   UNL     1     -42.777  59.717 -52.590  1.00  0.00    -0.339 N 
HETATM    2  C   UNL     1     -42.843  59.030 -51.360  1.00  0.00     0.261 C 
HETATM    3  O   UNL     1     -43.541  59.524 -50.467  1.00  0.00    -0.267 OA
ENDROOT
BRANCH   1   4
HETATM    4  C   UNL     1     -43.718  60.828 -52.789  1.00  0.00     0.122 C 
HETATM    5  C   UNL     1     -45.067  60.367 -53.327  1.00  0.00     0.026 C 
ENDBRANCH   1   4
BRANCH   1   6
HETATM    6  C   UNL     1     -41.624  59.687 -53.500  1.00  0.00     0.229 C 
BRANCH   6   7
HETATM    7  C   UNL     1     -41.978  59.486 -54.983  1.00  0.00     0.240 C 
HETATM    8  N   UNL     1     -42.753  58.366 -55.214  1.00  0.00    -0.326 N 
HETATM    9  H   UNL     1     -43.048  57.865 -54.383  1.00  0.00     0.169 HD
HETATM   10  O   UNL     1     -41.496  60.227 -55.834  1.00  0.00    -0.271 OA
BRANCH   8  11
HETATM   11  C   UNL     1     -43.100  57.789 -56.450  1.00  0.00     0.034 A 
HETATM   12  C   UNL     1     -43.679  58.490 -57.505  1.00  0.00     0.032 A 
HETATM   13  C   UNL     1     -43.964  57.848 -58.719  1.00  0.00     0.032 A 
HETATM   14  C   UNL     1     -43.672  56.497 -58.898  1.00  0.00     0.034 A 
HETATM   15  C   UNL     1     -43.098  55.792 -57.834  1.00  0.00     0.032 A 
HETATM   16  C   UNL     1     -42.818  56.431 -56.621  1.00  0.00     0.032 A 
BRANCH  14  17
HETATM   17  N   UNL     1     -43.913  55.783 -60.090  1.00  0.00    -0.328 N 
HETATM   18  C   UNL     1     -45.138  55.445 -60.635  1.00  0.00     0.218 C 
HETATM   19  C   UNL     1     -45.016  54.685 -61.934  1.00  0.00     0.117 C 
HETATM   20  O   UNL     1     -46.245  55.705 -60.176  1.00  0.00    -0.274 OA
HETATM   21  H   UNL     1     -43.089  55.495 -60.602  1.00  0.00     0.169 HD
ENDBRANCH  14  17
ENDBRANCH   8  11
ENDBRANCH   6   7
ENDBRANCH   1   6
BRANCH   2  22
HETATM   22  C   UNL     1     -42.216  57.709 -51.190  1.00  0.00     0.074 A 
HETATM   23  S   UNL     1     -42.390  56.613 -52.525  1.00  0.00    -0.084 SA
HETATM   24  C   UNL     1     -41.352  55.461 -51.848  1.00  0.00     0.023 A 
HETATM   25  C   UNL     1     -40.931  55.830 -50.589  1.00  0.00    -0.038 A 
HETATM   26  C   UNL     1     -40.944  54.212 -52.502  1.00  0.00    -0.012 A 
HETATM   27  C   UNL     1     -39.996  54.956 -49.806  1.00  0.00     0.044 C 
HETATM   28  C   UNL     1     -41.434  57.116 -50.212  1.00  0.00     0.033 A 
HETATM   29  C   UNL     1     -40.123  53.474 -50.210  1.00  0.00     0.044 C 
HETATM   30  C   UNL     1     -40.284  53.249 -51.705  1.00  0.00    -0.044 A 
HETATM   31  C   UNL     1     -39.862  52.042 -52.281  1.00  0.00     0.044 A 
HETATM   32  C   UNL     1     -40.069  51.787 -53.640  1.00  0.00     0.068 A 
HETATM   33  C   UNL     1     -40.701  52.747 -54.429  1.00  0.00     0.037 A 
HETATM   34  C   UNL     1     -41.137  53.950 -53.863  1.00  0.00     0.016 A 
BRANCH  32  35
HETATM   35  O   UNL     1     -39.609  50.573 -54.072  1.00  0.00    -0.356 OA
HETATM   36  C   UNL     1     -39.568  49.526 -53.110  1.00  0.00     0.210 C 
ENDBRANCH  32  35
ENDBRANCH   2  22
TORSDOF 7
ENDMDL
MODEL 5
REMARK VINA RESULT:      -7.7      2.497      6.301
REMARK  7 active torsions:
REMARK  status: ('A' for Active; 'I' for Inactive)
REMARK    1  A    between atoms: C_2  and  N_3 
REMARK       I    between atoms: N_3  and  C_4 
REMARK    2  A    between atoms: N_3  and  C_21 
REMARK    3  A    between atoms: C_4  and  C_5 
REMARK    4  A    between atoms: C_14  and  O_15 
REMARK    5  A    between atoms: C_21  and  C_22 
REMARK       I    between atoms: C_22  and  N_23 
REMARK    6  A    between atoms: N_23  and  C_24 
REMARK    7  A    between atoms: C_27  and  N_28 
REMARK       I    between atoms: N_28  and  C_29 
ROOT
HETATM    1  N   UNL     1     -42.963  59.985 -51.846  1.00  0.00    -0.339 N 
HETATM    2  C   UNL     1     -43.079  60.785 -53.001  1.00  0.00     0.261 C 
HETATM    3  O   UNL     1     -42.552  61.902 -52.978  1.00  0.00    -0.267 OA
ENDROOT
BRANCH   1   4
HETATM    4  C   UNL     1     -42.034  60.444 -50.803  1.00  0.00     0.122 C 
HETATM    5  C   UNL     1     -40.751  59.622 -50.756  1.00  0.00     0.026 C 
ENDBRANCH   1   4
BRANCH   1   6
HETATM    6  C   UNL     1     -43.949  58.981 -51.424  1.00  0.00     0.229 C 
BRANCH   6   7
HETATM    7  C   UNL     1     -43.832  57.623 -52.135  1.00  0.00     0.240 C 
HETATM    8  N   UNL     1     -42.605  57.013 -51.953  1.00  0.00    -0.326 N 
HETATM    9  H   UNL     1     -41.973  57.495 -51.323  1.00  0.00     0.169 HD
HETATM   10  O   UNL     1     -44.739  57.231 -52.863  1.00  0.00    -0.271 OA
BRANCH   8  11
HETATM   11  C   UNL     1     -42.098  55.871 -52.598  1.00  0.00     0.034 A 
HETATM   12  C   UNL     1     -41.204  55.907 -53.665  1.00  0.00     0.032 A 
HETATM   13  C   UNL     1     -40.720  54.719 -54.233  1.00  0.00     0.032 A 
HETATM   14  C   UNL     1     -41.121  53.478 -53.742  1.00  0.00     0.034 A 
HETATM   15  C   UNL     1     -42.026  53.443 -52.675  1.00  0.00     0.032 A 
HETATM   16  C   UNL     1     -42.513  54.628 -52.111  1.00  0.00     0.032 A 
BRANCH  14  17
HETATM   17  N   UNL     1     -40.669  52.241 -54.245  1.00  0.00    -0.328 N 
HETATM   18  C   UNL     1     -39.816  51.343 -53.630  1.00  0.00     0.218 C 
HETATM   19  C   UNL     1     -39.557  50.109 -54.461  1.00  0.00     0.117 C 
HETATM   20  O   UNL     1     -39.292  51.462 -52.527  1.00  0.00    -0.274 OA
HETATM   21  H   UNL     1     -41.020  51.985 -55.160  1.00  0.00     0.169 HD
ENDBRANCH  14  17
ENDBRANCH   8  11
ENDBRANCH   6   7
ENDBRANCH   1   6
BRANCH   2  22
HETATM   22  C   UNL     1     -43.688  60.258 -54.234  1.00  0.00     0.074 A 
HETATM   23  S   UNL     1     -42.700  59.171 -55.159  1.00  0.00    -0.084 SA
HETATM   24  C   UNL     1     -43.949  58.789 -56.236  1.00  0.00     0.023 A 
HETATM   25  C   UNL     1     -45.086  59.524 -55.981  1.00  0.00    -0.038 A 
HETATM   26  C   UNL     1     -43.851  57.806 -57.321  1.00  0.00    -0.012 A 
HETATM   27  C   UNL     1     -46.321  59.341 -56.812  1.00  0.00     0.044 C 
HETATM   28  C   UNL     1     -44.931  60.371 -54.837  1.00  0.00     0.033 A 
HETATM   29  C   UNL     1     -45.988  58.842 -58.232  1.00  0.00     0.044 C 
HETATM   30  C   UNL     1     -44.889  57.792 -58.279  1.00  0.00    -0.044 A 
HETATM   31  C   UNL     1     -44.851  56.864 -59.331  1.00  0.00     0.044 A 
HETATM   32  C   UNL     1     -43.808  55.939 -59.432  1.00  0.00     0.068 A 
HETATM   33  C   UNL     1     -42.796  55.941 -58.473  1.00  0.00     0.037 A 
HETATM   34  C   UNL     1     -42.816  56.868 -57.426  1.00  0.00     0.016 A 
BRANCH  32  35
HETATM   35  O   UNL     1     -43.894  55.093 -60.504  1.00  0.00    -0.356 OA
HETATM   36  C   UNL     1     -45.126  55.086 -61.215  1.00  0.00     0.210 C 
ENDBRANCH  32  35
ENDBRANCH   2  22
TORSDOF 7
ENDMDL
MODEL 6
REMARK VINA RESULT:      -7.7      3.178      6.348
REMARK  7 active torsions:
REMARK  status: ('A' for Active; 'I' for Inactive)
REMARK    1  A    between atoms: C_2  and  N_3 
REMARK       I    between atoms: N_3  and  C_4 
REMARK    2  A    between atoms: N_3  and  C_21 
REMARK    3  A    between atoms: C_4  and  C_5 
REMARK    4  A    between atoms: C_14  and  O_15 
REMARK    5  A    between atoms: C_21  and  C_22 
REMARK       I    between atoms: C_22  and  N_23 
REMARK    6  A    between atoms: N_23  and  C_24 
REMARK    7  A    between atoms: C_27  and  N_28 
REMARK       I    between atoms: N_28  and  C_29 
ROOT
HETATM    1  N   UNL     1     -42.693  58.149 -57.714  1.00  0.00    -0.339 N 
HETATM    2  C   UNL     1     -43.600  57.220 -57.163  1.00  0.00     0.261 C 
HETATM    3  O   UNL     1     -44.607  56.944 -57.824  1.00  0.00    -0.267 OA
ENDROOT
BRANCH   1   4
HETATM    4  C   UNL     1     -42.896  58.534 -59.118  1.00  0.00     0.122 C 
HETATM    5  C   UNL     1     -41.995  57.763 -60.075  1.00  0.00     0.026 C 
ENDBRANCH   1   4
BRANCH   1   6
HETATM    6  C   UNL     1     -41.835  59.044 -56.925  1.00  0.00     0.229 C 
BRANCH   6   7
HETATM    7  C   UNL     1     -42.556  59.798 -55.795  1.00  0.00     0.240 C 
HETATM    8  N   UNL     1     -41.885  59.746 -54.588  1.00  0.00    -0.326 N 
HETATM    9  H   UNL     1     -40.981  59.287 -54.615  1.00  0.00     0.169 HD
HETATM   10  O   UNL     1     -43.666  60.283 -55.992  1.00  0.00    -0.271 OA
BRANCH   8  11
HETATM   11  C   UNL     1     -42.340  60.163 -53.323  1.00  0.00     0.034 A 
HETATM   12  C   UNL     1     -42.897  61.413 -53.065  1.00  0.00     0.032 A 
HETATM   13  C   UNL     1     -43.357  61.740 -51.782  1.00  0.00     0.032 A 
HETATM   14  C   UNL     1     -43.269  60.821 -50.736  1.00  0.00     0.034 A 
HETATM   15  C   UNL     1     -42.701  59.568 -50.995  1.00  0.00     0.032 A 
HETATM   16  C   UNL     1     -42.238  59.244 -52.275  1.00  0.00     0.032 A 
BRANCH  14  17
HETATM   17  N   UNL     1     -43.722  61.066 -49.424  1.00  0.00    -0.328 N 
HETATM   18  C   UNL     1     -45.015  60.954 -48.946  1.00  0.00     0.218 C 
HETATM   19  C   UNL     1     -45.133  61.284 -47.477  1.00  0.00     0.117 C 
HETATM   20  O   UNL     1     -46.009  60.621 -49.582  1.00  0.00    -0.274 OA
HETATM   21  H   UNL     1     -43.012  61.349 -48.760  1.00  0.00     0.169 HD
ENDBRANCH  14  17
ENDBRANCH   8  11
ENDBRANCH   6   7
ENDBRANCH   1   6
BRANCH   2  22
HETATM   22  C   UNL     1     -43.293  56.505 -55.914  1.00  0.00     0.074 A 
HETATM   23  S   UNL     1     -42.292  55.096 -56.075  1.00  0.00    -0.084 SA
HETATM   24  C   UNL     1     -42.145  54.882 -54.403  1.00  0.00     0.023 A 
HETATM   25  C   UNL     1     -42.904  55.794 -53.702  1.00  0.00    -0.038 A 
HETATM   26  C   UNL     1     -41.323  53.852 -53.757  1.00  0.00    -0.012 A 
HETATM   27  C   UNL     1     -42.917  55.791 -52.203  1.00  0.00     0.044 C 
HETATM   28  C   UNL     1     -43.567  56.718 -54.572  1.00  0.00     0.033 A 
HETATM   29  C   UNL     1     -42.607  54.394 -51.630  1.00  0.00     0.044 C 
HETATM   30  C   UNL     1     -41.510  53.648 -52.371  1.00  0.00    -0.044 A 
HETATM   31  C   UNL     1     -40.742  52.684 -51.702  1.00  0.00     0.044 A 
HETATM   32  C   UNL     1     -39.779  51.935 -52.385  1.00  0.00     0.068 A 
HETATM   33  C   UNL     1     -39.581  52.154 -53.747  1.00  0.00     0.037 A 
HETATM   34  C   UNL     1     -40.349  53.104 -54.429  1.00  0.00     0.016 A 
BRANCH  32  35
HETATM   35  O   UNL     1     -39.102  51.031 -51.612  1.00  0.00    -0.356 OA
HETATM   36  C   UNL     1     -39.875  49.998 -51.013  1.00  0.00     0.210 C 
ENDBRANCH  32  35
ENDBRANCH   2  22
TORSDOF 7
ENDMDL
MODEL 7
REMARK VINA RESULT:      -7.7      3.368      6.345
REMARK  7 active torsions:
REMARK  status: ('A' for Active; 'I' for Inactive)
REMARK    1  A    between atoms: C_2  and  N_3 
REMARK       I    between atoms: N_3  and  C_4 
REMARK    2  A    between atoms: N_3  and  C_21 
REMARK    3  A    between atoms: C_4  and  C_5 
REMARK    4  A    between atoms: C_14  and  O_15 
REMARK    5  A    between atoms: C_21  and  C_22 
REMARK       I    between atoms: C_22  and  N_23 
REMARK    6  A    between atoms: N_23  and  C_24 
REMARK    7  A    between atoms: C_27  and  N_28 
REMARK       I    between atoms: N_28  and  C_29 
ROOT
HETATM    1  N   UNL     1     -43.795  59.083 -57.132  1.00  0.00    -0.339 N 
HETATM    2  C   UNL     1     -42.606  58.323 -57.165  1.00  0.00     0.261 C 
HETATM    3  O   UNL     1     -41.718  58.686 -57.944  1.00  0.00    -0.267 OA
ENDROOT
BRANCH   1   4
HETATM    4  C   UNL     1     -43.790  60.367 -57.847  1.00  0.00     0.122 C 
HETATM    5  C   UNL     1     -45.189  60.940 -58.034  1.00  0.00     0.026 C 
ENDBRANCH   1   4
BRANCH   1   6
HETATM    6  C   UNL     1     -45.119  58.542 -56.800  1.00  0.00     0.229 C 
BRANCH   6   7
HETATM    7  C   UNL     1     -45.406  58.416 -55.294  1.00  0.00     0.240 C 
HETATM    8  N   UNL     1     -45.371  59.626 -54.627  1.00  0.00    -0.326 N 
HETATM    9  H   UNL     1     -45.236  60.440 -55.216  1.00  0.00     0.169 HD
HETATM   10  O   UNL     1     -45.537  57.307 -54.786  1.00  0.00    -0.271 OA
BRANCH   8  11
HETATM   11  C   UNL     1     -45.405  59.853 -53.239  1.00  0.00     0.034 A 
HETATM   12  C   UNL     1     -46.333  60.675 -52.603  1.00  0.00     0.032 A 
HETATM   13  C   UNL     1     -46.320  60.823 -51.209  1.00  0.00     0.032 A 
HETATM   14  C   UNL     1     -45.381  60.151 -50.428  1.00  0.00     0.034 A 
HETATM   15  C   UNL     1     -44.444  59.332 -51.068  1.00  0.00     0.032 A 
HETATM   16  C   UNL     1     -44.454  59.188 -52.460  1.00  0.00     0.032 A 
BRANCH  14  17
HETATM   17  N   UNL     1     -45.311  60.233 -49.022  1.00  0.00    -0.328 N 
HETATM   18  C   UNL     1     -44.914  61.318 -48.263  1.00  0.00     0.218 C 
HETATM   19  C   UNL     1     -44.975  61.053 -46.777  1.00  0.00     0.117 C 
HETATM   20  O   UNL     1     -44.546  62.412 -48.676  1.00  0.00    -0.274 OA
HETATM   21  H   UNL     1     -45.592  59.401 -48.519  1.00  0.00     0.169 HD
ENDBRANCH  14  17
ENDBRANCH   8  11
ENDBRANCH   6   7
ENDBRANCH   1   6
BRANCH   2  22
HETATM   22  C   UNL     1     -42.379  57.223 -56.215  1.00  0.00     0.074 A 
HETATM   23  S   UNL     1     -41.952  57.696 -54.600  1.00  0.00    -0.084 SA
HETATM   24  C   UNL     1     -42.036  56.114 -54.004  1.00  0.00     0.023 A 
HETATM   25  C   UNL     1     -42.295  55.204 -55.005  1.00  0.00    -0.038 A 
HETATM   26  C   UNL     1     -41.851  55.736 -52.598  1.00  0.00    -0.012 A 
HETATM   27  C   UNL     1     -42.420  53.741 -54.699  1.00  0.00     0.044 C 
HETATM   28  C   UNL     1     -42.484  55.842 -56.273  1.00  0.00     0.033 A 
HETATM   29  C   UNL     1     -41.619  53.348 -53.443  1.00  0.00     0.044 C 
HETATM   30  C   UNL     1     -41.700  54.360 -52.312  1.00  0.00    -0.044 A 
HETATM   31  C   UNL     1     -41.533  53.942 -50.983  1.00  0.00     0.044 A 
HETATM   32  C   UNL     1     -41.531  54.868 -49.936  1.00  0.00     0.068 A 
HETATM   33  C   UNL     1     -41.701  56.222 -50.219  1.00  0.00     0.037 A 
HETATM   34  C   UNL     1     -41.858  56.653 -51.541  1.00  0.00     0.016 A 
BRANCH  32  35
HETATM   35  O   UNL     1     -41.358  54.326 -48.692  1.00  0.00    -0.356 OA
HETATM   36  C   UNL     1     -40.032  53.949 -48.338  1.00  0.00     0.210 C 
ENDBRANCH  32  35
ENDBRANCH   2  22
TORSDOF 7
ENDMDL
MODEL 8
REMARK VINA RESULT:      -7.5      2.406      6.714
REMARK  7 active torsions:
REMARK  status: ('A' for Active; 'I' for Inactive)
REMARK    1  A    between atoms: C_2  and  N_3 
REMARK       I    between atoms: N_3  and  C_4 
REMARK    2  A    between atoms: N_3  and  C_21 
REMARK    3  A    between atoms: C_4  and  C_5 
REMARK    4  A    between atoms: C_14  and  O_15 
REMARK    5  A    between atoms: C_21  and  C_22 
REMARK       I    between atoms: C_22  and  N_23 
REMARK    6  A    between atoms: N_23  and  C_24 
REMARK    7  A    between atoms: C_27  and  N_28 
REMARK       I    between atoms: N_28  and  C_29 
ROOT
HETATM    1  N   UNL     1     -43.178  60.324 -52.664  1.00  0.00    -0.339 N 
HETATM    2  C   UNL     1     -43.446  60.731 -53.988  1.00  0.00     0.261 C 
HETATM    3  O   UNL     1     -43.586  61.941 -54.196  1.00  0.00    -0.267 OA
ENDROOT
BRANCH   1   4
HETATM    4  C   UNL     1     -42.858  61.378 -51.690  1.00  0.00     0.122 C 
HETATM    5  C   UNL     1     -42.906  60.882 -50.250  1.00  0.00     0.026 C 
ENDBRANCH   1   4
BRANCH   1   6
HETATM    6  C   UNL     1     -43.571  59.028 -52.094  1.00  0.00     0.229 C 
BRANCH   6   7
HETATM    7  C   UNL     1     -42.554  57.895 -52.307  1.00  0.00     0.240 C 
HETATM    8  N   UNL     1     -43.054  56.844 -53.053  1.00  0.00    -0.326 N 
HETATM    9  H   UNL     1     -43.988  56.982 -53.422  1.00  0.00     0.169 HD
HETATM   10  O   UNL     1     -41.462  57.938 -51.750  1.00  0.00    -0.271 OA
BRANCH   8  11
HETATM   11  C   UNL     1     -42.469  55.585 -53.280  1.00  0.00     0.034 A 
HETATM   12  C   UNL     1     -42.329  54.600 -52.305  1.00  0.00     0.032 A 
HETATM   13  C   UNL     1     -41.763  53.356 -52.621  1.00  0.00     0.032 A 
HETATM   14  C   UNL     1     -41.330  53.077 -53.917  1.00  0.00     0.034 A 
HETATM   15  C   UNL     1     -41.464  54.071 -54.894  1.00  0.00     0.032 A 
HETATM   16  C   UNL     1     -42.024  55.314 -54.577  1.00  0.00     0.032 A 
BRANCH  14  17
HETATM   17  N   UNL     1     -40.767  51.849 -54.319  1.00  0.00    -0.328 N 
HETATM   18  C   UNL     1     -39.869  51.066 -53.617  1.00  0.00     0.218 C 
HETATM   19  C   UNL     1     -39.486  49.803 -54.352  1.00  0.00     0.117 C 
HETATM   20  O   UNL     1     -39.396  51.300 -52.511  1.00  0.00    -0.274 OA
HETATM   21  H   UNL     1     -41.064  51.505 -55.224  1.00  0.00     0.169 HD
ENDBRANCH  14  17
ENDBRANCH   8  11
ENDBRANCH   6   7
ENDBRANCH   1   6
BRANCH   2  22
HETATM   22  C   UNL     1     -43.425  59.766 -55.099  1.00  0.00     0.074 A 
HETATM   23  S   UNL     1     -44.970  59.368 -55.783  1.00  0.00    -0.084 SA
HETATM   24  C   UNL     1     -44.294  58.463 -57.044  1.00  0.00     0.023 A 
HETATM   25  C   UNL     1     -42.924  58.370 -56.929  1.00  0.00    -0.038 A 
HETATM   26  C   UNL     1     -45.057  57.840 -58.132  1.00  0.00    -0.012 A 
HETATM   27  C   UNL     1     -42.119  57.618 -57.945  1.00  0.00     0.044 C 
HETATM   28  C   UNL     1     -42.430  59.111 -55.808  1.00  0.00     0.033 A 
HETATM   29  C   UNL     1     -42.946  56.511 -58.628  1.00  0.00     0.044 C 
HETATM   30  C   UNL     1     -44.375  56.914 -58.953  1.00  0.00    -0.044 A 
HETATM   31  C   UNL     1     -45.052  56.298 -60.016  1.00  0.00     0.044 A 
HETATM   32  C   UNL     1     -46.390  56.601 -60.284  1.00  0.00     0.068 A 
HETATM   33  C   UNL     1     -47.055  57.531 -59.485  1.00  0.00     0.037 A 
HETATM   34  C   UNL     1     -46.393  58.144 -58.415  1.00  0.00     0.016 A 
BRANCH  32  35
HETATM   35  O   UNL     1     -46.929  55.929 -61.347  1.00  0.00    -0.356 OA
HETATM   36  C   UNL     1     -48.042  56.539 -61.990  1.00  0.00     0.210 C 
ENDBRANCH  32  35
ENDBRANCH   2  22
TORSDOF 7
ENDMDL
MODEL 9
REMARK VINA RESULT:      -7.4      2.323      7.053
REMARK  7 active torsions:
REMARK  status: ('A' for Active; 'I' for Inactive)
REMARK    1  A    between atoms: C_2  and  N_3 
REMARK       I    between atoms: N_3  and  C_4 
REMARK    2  A    between atoms: N_3  and  C_21 
REMARK    3  A    between atoms: C_4  and  C_5 
REMARK    4  A    between atoms: C_14  and  O_15 
REMARK    5  A    between atoms: C_21  and  C_22 
REMARK       I    between atoms: C_22  and  N_23 
REMARK    6  A    between atoms: N_23  and  C_24 
REMARK    7  A    between atoms: C_27  and  N_28 
REMARK       I    between atoms: N_28  and  C_29 
ROOT
HETATM    1  N   UNL     1     -40.640  52.783 -52.852  1.00  0.00    -0.339 N 
HETATM    2  C   UNL     1     -40.971  53.357 -51.606  1.00  0.00     0.261 C 
HETATM    3  O   UNL     1     -40.461  52.862 -50.595  1.00  0.00    -0.267 OA
ENDROOT
BRANCH   1   4
HETATM    4  C   UNL     1     -39.545  51.803 -52.868  1.00  0.00     0.122 C 
HETATM    5  C   UNL     1     -39.753  50.707 -53.907  1.00  0.00     0.026 C 
ENDBRANCH   1   4
BRANCH   1   6
HETATM    6  C   UNL     1     -41.524  52.773 -54.025  1.00  0.00     0.229 C 
BRANCH   6   7
HETATM    7  C   UNL     1     -41.300  53.931 -55.011  1.00  0.00     0.240 C 
HETATM    8  N   UNL     1     -42.464  54.599 -55.344  1.00  0.00    -0.326 N 
HETATM    9  H   UNL     1     -43.293  54.294 -54.848  1.00  0.00     0.169 HD
HETATM   10  O   UNL     1     -40.189  54.118 -55.497  1.00  0.00    -0.271 OA
BRANCH   8  11
HETATM   11  C   UNL     1     -42.650  55.573 -56.342  1.00  0.00     0.034 A 
HETATM   12  C   UNL     1     -43.158  55.306 -57.611  1.00  0.00     0.032 A 
HETATM   13  C   UNL     1     -43.345  56.341 -58.539  1.00  0.00     0.032 A 
HETATM   14  C   UNL     1     -43.030  57.659 -58.211  1.00  0.00     0.034 A 
HETATM   15  C   UNL     1     -42.512  57.925 -56.939  1.00  0.00     0.032 A 
HETATM   16  C   UNL     1     -42.320  56.892 -56.015  1.00  0.00     0.032 A 
BRANCH  14  17
HETATM   17  N   UNL     1     -43.203  58.756 -59.079  1.00  0.00    -0.328 N 
HETATM   18  C   UNL     1     -42.508  59.024 -60.245  1.00  0.00     0.218 C 
HETATM   19  C   UNL     1     -42.969  60.289 -60.930  1.00  0.00     0.117 C 
HETATM   20  O   UNL     1     -41.609  58.352 -60.738  1.00  0.00    -0.274 OA
HETATM   21  H   UNL     1     -43.924  59.415 -58.815  1.00  0.00     0.169 HD
ENDBRANCH  14  17
ENDBRANCH   8  11
ENDBRANCH   6   7
ENDBRANCH   1   6
BRANCH   2  22
HETATM   22  C   UNL     1     -41.784  54.582 -51.524  1.00  0.00     0.074 A 
HETATM   23  S   UNL     1     -41.049  56.021 -52.160  1.00  0.00    -0.084 SA
HETATM   24  C   UNL     1     -42.457  56.943 -51.981  1.00  0.00     0.023 A 
HETATM   25  C   UNL     1     -43.463  56.226 -51.369  1.00  0.00    -0.038 A 
HETATM   26  C   UNL     1     -42.607  58.338 -52.410  1.00  0.00    -0.012 A 
HETATM   27  C   UNL     1     -44.804  56.848 -51.118  1.00  0.00     0.044 C 
HETATM   28  C   UNL     1     -43.071  54.875 -51.102  1.00  0.00     0.033 A 
HETATM   29  C   UNL     1     -44.709  58.380 -50.978  1.00  0.00     0.044 C 
HETATM   30  C   UNL     1     -43.751  59.035 -51.960  1.00  0.00    -0.044 A 
HETATM   31  C   UNL     1     -43.950  60.367 -52.350  1.00  0.00     0.044 A 
HETATM   32  C   UNL     1     -43.040  61.010 -53.194  1.00  0.00     0.068 A 
HETATM   33  C   UNL     1     -41.923  60.314 -53.654  1.00  0.00     0.037 A 
HETATM   34  C   UNL     1     -41.707  58.988 -53.263  1.00  0.00     0.016 A 
BRANCH  32  35
HETATM   35  O   UNL     1     -43.354  62.307 -53.495  1.00  0.00    -0.356 OA
HETATM   36  C   UNL     1     -44.534  62.517 -54.261  1.00  0.00     0.210 C 
ENDBRANCH  32  35
ENDBRANCH   2  22
TORSDOF 7
ENDMDL
MODEL 10
REMARK VINA RESULT:      -7.4      2.686      6.866
REMARK  7 active torsions:
REMARK  status: ('A' for Active; 'I' for Inactive)
REMARK    1  A    between atoms: C_2  and  N_3 
REMARK       I    between atoms: N_3  and  C_4 
REMARK    2  A    between atoms: N_3  and  C_21 
REMARK    3  A    between atoms: C_4  and  C_5 
REMARK    4  A    between atoms: C_14  and  O_15 
REMARK    5  A    between atoms: C_21  and  C_22 
REMARK       I    between atoms: C_22  and  N_23 
REMARK    6  A    between atoms: N_23  and  C_24 
REMARK    7  A    between atoms: C_27  and  N_28 
REMARK       I    between atoms: N_28  and  C_29 
ROOT
HETATM    1  N   UNL     1     -40.672  53.210 -52.723  1.00  0.00    -0.339 N 
HETATM    2  C   UNL     1     -40.858  54.190 -51.725  1.00  0.00     0.261 C 
HETATM    3  O   UNL     1     -40.486  53.916 -50.579  1.00  0.00    -0.267 OA
ENDROOT
BRANCH   1   4
HETATM    4  C   UNL     1     -39.846  52.046 -52.373  1.00  0.00     0.122 C 
HETATM    5  C   UNL     1     -39.484  51.197 -53.585  1.00  0.00     0.026 C 
ENDBRANCH   1   4
BRANCH   1   6
HETATM    6  C   UNL     1     -41.527  53.053 -53.906  1.00  0.00     0.229 C 
BRANCH   6   7
HETATM    7  C   UNL     1     -41.322  54.118 -54.997  1.00  0.00     0.240 C 
HETATM    8  N   UNL     1     -42.470  54.828 -55.292  1.00  0.00    -0.326 N 
HETATM    9  H   UNL     1     -43.273  54.612 -54.711  1.00  0.00     0.169 HD
HETATM   10  O   UNL     1     -40.245  54.199 -55.580  1.00  0.00    -0.271 OA
BRANCH   8  11
HETATM   11  C   UNL     1     -42.685  55.733 -56.347  1.00  0.00     0.034 A 
HETATM   12  C   UNL     1     -43.162  55.370 -57.604  1.00  0.00     0.032 A 
HETATM   13  C   UNL     1     -43.380  56.340 -58.594  1.00  0.00     0.032 A 
HETATM   14  C   UNL     1     -43.126  57.688 -58.341  1.00  0.00     0.034 A 
HETATM   15  C   UNL     1     -42.639  58.050 -57.080  1.00  0.00     0.032 A 
HETATM   16  C   UNL     1     -42.417  57.081 -56.094  1.00  0.00     0.032 A 
BRANCH  14  17
HETATM   17  N   UNL     1     -43.334  58.724 -59.274  1.00  0.00    -0.328 N 
HETATM   18  C   UNL     1     -42.572  59.014 -60.391  1.00  0.00     0.218 C 
HETATM   19  C   UNL     1     -43.098  60.194 -61.173  1.00  0.00     0.117 C 
HETATM   20  O   UNL     1     -41.570  58.421 -60.774  1.00  0.00    -0.274 OA
HETATM   21  H   UNL     1     -44.139  59.314 -59.103  1.00  0.00     0.169 HD
ENDBRANCH  14  17
ENDBRANCH   8  11
ENDBRANCH   6   7
ENDBRANCH   1   6
BRANCH   2  22
HETATM   22  C   UNL     1     -41.352  55.535 -52.061  1.00  0.00     0.074 A 
HETATM   23  S   UNL     1     -42.996  55.870 -51.615  1.00  0.00    -0.084 SA
HETATM   24  C   UNL     1     -42.887  57.505 -52.041  1.00  0.00     0.023 A 
HETATM   25  C   UNL     1     -41.664  57.807 -52.600  1.00  0.00    -0.038 A 
HETATM   26  C   UNL     1     -43.955  58.493 -51.854  1.00  0.00    -0.012 A 
HETATM   27  C   UNL     1     -41.347  59.203 -53.044  1.00  0.00     0.044 C 
HETATM   28  C   UNL     1     -40.789  56.674 -52.617  1.00  0.00     0.033 A 
HETATM   29  C   UNL     1     -42.620  59.987 -53.422  1.00  0.00     0.044 C 
HETATM   30  C   UNL     1     -43.798  59.745 -52.492  1.00  0.00    -0.044 A 
HETATM   31  C   UNL     1     -44.783  60.731 -52.337  1.00  0.00     0.044 A 
HETATM   32  C   UNL     1     -45.911  60.499 -51.545  1.00  0.00     0.068 A 
HETATM   33  C   UNL     1     -46.053  59.271 -50.900  1.00  0.00     0.037 A 
HETATM   34  C   UNL     1     -45.083  58.275 -51.055  1.00  0.00     0.016 A 
BRANCH  32  35
HETATM   35  O   UNL     1     -46.792  61.544 -51.480  1.00  0.00    -0.356 OA
HETATM   36  C   UNL     1     -46.336  62.795 -51.980  1.00  0.00     0.210 C 
ENDBRANCH  32  35
ENDBRANCH   2  22
TORSDOF 7
ENDMDL
