MODEL 1
REMARK VINA RESULT:      -8.0      0.000      0.000
REMARK  8 active torsions:
REMARK  status: ('A' for Active; 'I' for Inactive)
REMARK    1  A    between atoms: O_2  and  C_3 
REMARK    2  A    between atoms: C_7  and  C_9 
REMARK    3  A    between atoms: C_9  and  C_10 
REMARK    4  A    between atoms: C_9  and  N_13 
REMARK    5  A    between atoms: C_10  and  C_11 
REMARK    6  A    between atoms: C_11  and  O_12 
REMARK       I    between atoms: N_13  and  C_14 
REMARK    7  A    between atoms: C_14  and  C_16 
REMARK    8  A    between atoms: C_19  and  C_22 
ROOT
HETATM    1  N   UNL     1     -41.791  58.218 -52.060  1.00  0.00    -0.348 N 
HETATM    2  C   UNL     1     -41.520  57.620 -53.272  1.00  0.00     0.252 C 
HETATM    3  O   UNL     1     -41.454  58.240 -54.327  1.00  0.00    -0.268 OA
HETATM    4  H   UNL     1     -41.777  57.676 -51.209  1.00  0.00     0.163 HD
ENDROOT
BRANCH   1   5
HETATM    5  C   UNL     1     -42.072  59.643 -51.940  1.00  0.00     0.120 C 
BRANCH   5   6
HETATM    6  C   UNL     1     -43.563  59.927 -51.800  1.00  0.00    -0.033 A 
HETATM    7  C   UNL     1     -44.381  59.837 -52.939  1.00  0.00     0.009 A 
HETATM    8  C   UNL     1     -45.741  60.135 -52.867  1.00  0.00     0.003 A 
HETATM    9  C   UNL     1     -46.305  60.514 -51.651  1.00  0.00     0.037 A 
HETATM   10  C   UNL     1     -45.519  60.588 -50.502  1.00  0.00     0.068 A 
HETATM   11  C   UNL     1     -44.149  60.316 -50.581  1.00  0.00     0.046 A 
BRANCH  10  12
HETATM   12  O   UNL     1     -46.189  60.960 -49.368  1.00  0.00    -0.356 OA
HETATM   13  C   UNL     1     -45.403  61.072 -48.187  1.00  0.00     0.210 C 
ENDBRANCH  10  12
ENDBRANCH   5   6
BRANCH   5  14
HETATM   14  C   UNL     1     -41.307  60.240 -50.749  1.00  0.00     0.056 C 
BRANCH  14  15
HETATM   15  C   UNL     1     -40.096  59.397 -50.364  1.00  0.00     0.166 C 
BRANCH  15  16
HETATM   16  O   UNL     1     -39.102  59.499 -51.378  1.00  0.00    -0.401 OA
HETATM   17  H   UNL     1     -38.242  59.617 -50.938  1.00  0.00     0.209 HD
ENDBRANCH  15  16
ENDBRANCH  14  15
ENDBRANCH   5  14
ENDBRANCH   1   5
BRANCH   2  18
HETATM   18  C   UNL     1     -41.236  56.156 -53.246  1.00  0.00     0.032 A 
HETATM   19  C   UNL     1     -41.517  55.347 -52.140  1.00  0.00     0.018 A 
HETATM   20  C   UNL     1     -41.180  53.987 -52.158  1.00  0.00     0.013 A 
HETATM   21  C   UNL     1     -40.568  53.400 -53.279  1.00  0.00    -0.026 A 
HETATM   22  C   UNL     1     -40.326  54.218 -54.394  1.00  0.00     0.013 A 
HETATM   23  C   UNL     1     -40.657  55.578 -54.381  1.00  0.00     0.018 A 
BRANCH  21  24
HETATM   24  C   UNL     1     -40.183  51.977 -53.278  1.00  0.00    -0.023 A 
HETATM   25  C   UNL     1     -40.278  51.193 -54.434  1.00  0.00     0.031 A 
HETATM   26  C   UNL     1     -39.915  49.856 -54.376  1.00  0.00     0.117 A 
HETATM   27  N   UNL     1     -39.468  49.247 -53.261  1.00  0.00    -0.273 NA
HETATM   28  C   UNL     1     -39.377  50.010 -52.153  1.00  0.00     0.117 A 
HETATM   29  C   UNL     1     -39.716  51.354 -52.113  1.00  0.00     0.031 A 
ENDBRANCH  21  24
ENDBRANCH   2  18
TORSDOF 8
ENDMDL
MODEL 2
REMARK VINA RESULT:      -7.8      3.410      5.368
REMARK  8 active torsions:
REMARK  status: ('A' for Active; 'I' for Inactive)
REMARK    1  A    between atoms: O_2  and  C_3 
REMARK    2  A    between atoms: C_7  and  C_9 
REMARK    3  A    between atoms: C_9  and  C_10 
REMARK    4  A    between atoms: C_9  and  N_13 
REMARK    5  A    between atoms: C_10  and  C_11 
REMARK    6  A    between atoms: C_11  and  O_12 
REMARK       I    between atoms: N_13  and  C_14 
REMARK    7  A    between atoms: C_14  and  C_16 
REMARK    8  A    between atoms: C_19  and  C_22 
ROOT
HETATM    1  N   UNL     1     -41.859  57.976 -55.185  1.00  0.00    -0.348 N 
HETATM    2  C   UNL     1     -41.233  57.626 -54.008  1.00  0.00     0.252 C 
HETATM    3  O   UNL     1     -40.915  58.439 -53.149  1.00  0.00    -0.268 OA
HETATM    4  H   UNL     1     -42.155  57.265 -55.837  1.00  0.00     0.163 HD
ENDROOT
BRANCH   1   5
HETATM    5  C   UNL     1     -42.152  59.361 -55.529  1.00  0.00     0.120 C 
BRANCH   5   6
HETATM    6  C   UNL     1     -42.062  59.616 -57.029  1.00  0.00    -0.033 A 
HETATM    7  C   UNL     1     -41.791  60.919 -57.481  1.00  0.00     0.009 A 
HETATM    8  C   UNL     1     -41.747  61.207 -58.844  1.00  0.00     0.003 A 
HETATM    9  C   UNL     1     -41.960  60.193 -59.775  1.00  0.00     0.037 A 
HETATM   10  C   UNL     1     -42.206  58.887 -59.352  1.00  0.00     0.068 A 
HETATM   11  C   UNL     1     -42.278  58.606 -57.984  1.00  0.00     0.046 A 
BRANCH  10  12
HETATM   12  O   UNL     1     -42.387  57.979 -60.360  1.00  0.00    -0.356 OA
HETATM   13  C   UNL     1     -42.336  56.609 -59.981  1.00  0.00     0.210 C 
ENDBRANCH  10  12
ENDBRANCH   5   6
BRANCH   5  14
HETATM   14  C   UNL     1     -43.543  59.757 -55.010  1.00  0.00     0.056 C 
BRANCH  14  15
HETATM   15  C   UNL     1     -43.478  60.916 -54.021  1.00  0.00     0.166 C 
BRANCH  15  16
HETATM   16  O   UNL     1     -42.125  61.149 -53.646  1.00  0.00    -0.401 OA
HETATM   17  H   UNL     1     -42.019  62.105 -53.500  1.00  0.00     0.209 HD
ENDBRANCH  15  16
ENDBRANCH  14  15
ENDBRANCH   5  14
ENDBRANCH   1   5
BRANCH   2  18
HETATM   18  C   UNL     1     -41.008  56.169 -53.779  1.00  0.00     0.032 A 
HETATM   19  C   UNL     1     -41.176  55.561 -52.531  1.00  0.00     0.018 A 
HETATM   20  C   UNL     1     -40.900  54.197 -52.367  1.00  0.00     0.013 A 
HETATM   21  C   UNL     1     -40.463  53.406 -53.444  1.00  0.00    -0.026 A 
HETATM   22  C   UNL     1     -40.334  54.023 -54.699  1.00  0.00     0.013 A 
HETATM   23  C   UNL     1     -40.605  55.386 -54.866  1.00  0.00     0.018 A 
BRANCH  21  24
HETATM   24  C   UNL     1     -40.139  51.980 -53.258  1.00  0.00    -0.023 A 
HETATM   25  C   UNL     1     -39.760  51.473 -52.009  1.00  0.00     0.031 A 
HETATM   26  C   UNL     1     -39.454  50.126 -51.892  1.00  0.00     0.117 A 
HETATM   27  N   UNL     1     -39.495  49.253 -52.918  1.00  0.00    -0.273 NA
HETATM   28  C   UNL     1     -39.864  49.750 -54.116  1.00  0.00     0.117 A 
HETATM   29  C   UNL     1     -40.190  51.081 -54.331  1.00  0.00     0.031 A 
ENDBRANCH  21  24
ENDBRANCH   2  18
TORSDOF 8
ENDMDL
MODEL 3
REMARK VINA RESULT:      -7.8      3.767      5.868
REMARK  8 active torsions:
REMARK  status: ('A' for Active; 'I' for Inactive)
REMARK    1  A    between atoms: O_2  and  C_3 
REMARK    2  A    between atoms: C_7  and  C_9 
REMARK    3  A    between atoms: C_9  and  C_10 
REMARK    4  A    between atoms: C_9  and  N_13 
REMARK    5  A    between atoms: C_10  and  C_11 
REMARK    6  A    between atoms: C_11  and  O_12 
REMARK       I    between atoms: N_13  and  C_14 
REMARK    7  A    between atoms: C_14  and  C_16 
REMARK    8  A    between atoms: C_19  and  C_22 
ROOT
HETATM    1  N   UNL     1     -42.581  57.252 -55.677  1.00  0.00    -0.348 N 
HETATM    2  C   UNL     1     -41.664  57.157 -54.653  1.00  0.00     0.252 C 
HETATM    3  O   UNL     1     -41.276  58.122 -54.006  1.00  0.00    -0.268 OA
HETATM    4  H   UNL     1     -42.915  56.422 -56.142  1.00  0.00     0.163 HD
ENDROOT
BRANCH   1   5
HETATM    5  C   UNL     1     -43.135  58.529 -56.110  1.00  0.00     0.120 C 
BRANCH   5   6
HETATM    6  C   UNL     1     -43.451  58.545 -57.600  1.00  0.00    -0.033 A 
HETATM    7  C   UNL     1     -43.885  59.746 -58.189  1.00  0.00     0.009 A 
HETATM    8  C   UNL     1     -44.231  59.796 -59.539  1.00  0.00     0.003 A 
HETATM    9  C   UNL     1     -44.135  58.648 -60.322  1.00  0.00     0.037 A 
HETATM   10  C   UNL     1     -43.684  57.451 -59.767  1.00  0.00     0.068 A 
HETATM   11  C   UNL     1     -43.365  57.395 -58.407  1.00  0.00     0.046 A 
BRANCH  10  12
HETATM   12  O   UNL     1     -43.623  56.398 -60.640  1.00  0.00    -0.356 OA
HETATM   13  C   UNL     1     -44.271  55.202 -60.221  1.00  0.00     0.210 C 
ENDBRANCH  10  12
ENDBRANCH   5   6
BRANCH   5  14
HETATM   14  C   UNL     1     -44.396  58.866 -55.300  1.00  0.00     0.056 C 
BRANCH  14  15
HETATM   15  C   UNL     1     -45.479  57.804 -55.455  1.00  0.00     0.166 C 
BRANCH  15  16
HETATM   16  O   UNL     1     -45.223  56.727 -54.560  1.00  0.00    -0.401 OA
HETATM   17  H   UNL     1     -45.859  56.794 -53.827  1.00  0.00     0.209 HD
ENDBRANCH  15  16
ENDBRANCH  14  15
ENDBRANCH   5  14
ENDBRANCH   1   5
BRANCH   2  18
HETATM   18  C   UNL     1     -41.192  55.785 -54.305  1.00  0.00     0.032 A 
HETATM   19  C   UNL     1     -40.610  54.922 -55.239  1.00  0.00     0.018 A 
HETATM   20  C   UNL     1     -40.232  53.626 -54.862  1.00  0.00     0.013 A 
HETATM   21  C   UNL     1     -40.414  53.165 -53.546  1.00  0.00    -0.026 A 
HETATM   22  C   UNL     1     -40.967  54.056 -52.612  1.00  0.00     0.013 A 
HETATM   23  C   UNL     1     -41.349  55.350 -52.984  1.00  0.00     0.018 A 
BRANCH  21  24
HETATM   24  C   UNL     1     -40.049  51.789 -53.164  1.00  0.00    -0.023 A 
HETATM   25  C   UNL     1     -39.765  51.450 -51.835  1.00  0.00     0.031 A 
HETATM   26  C   UNL     1     -39.415  50.143 -51.532  1.00  0.00     0.117 A 
HETATM   27  N   UNL     1     -39.326  49.157 -52.446  1.00  0.00    -0.273 NA
HETATM   28  C   UNL     1     -39.604  49.493 -53.722  1.00  0.00     0.117 A 
HETATM   29  C   UNL     1     -39.964  50.771 -54.122  1.00  0.00     0.031 A 
ENDBRANCH  21  24
ENDBRANCH   2  18
TORSDOF 8
ENDMDL
MODEL 4
REMARK VINA RESULT:      -7.6      3.551      5.331
REMARK  8 active torsions:
REMARK  status: ('A' for Active; 'I' for Inactive)
REMARK    1  A    between atoms: O_2  and  C_3 
REMARK    2  A    between atoms: C_7  and  C_9 
REMARK    3  A    between atoms: C_9  and  C_10 
REMARK    4  A    between atoms: C_9  and  N_13 
REMARK    5  A    between atoms: C_10  and  C_11 
REMARK    6  A    between atoms: C_11  and  O_12 
REMARK       I    between atoms: N_13  and  C_14 
REMARK    7  A    between atoms: C_14  and  C_16 
REMARK    8  A    between atoms: C_19  and  C_22 
ROOT
HETATM    1  N   UNL     1     -42.260  57.617 -55.206  1.00  0.00    -0.348 N 
HETATM    2  C   UNL     1     -41.328  57.347 -54.227  1.00  0.00     0.252 C 
HETATM    3  O   UNL     1     -40.774  58.218 -53.568  1.00  0.00    -0.268 OA
HETATM    4  H   UNL     1     -42.734  56.864 -55.681  1.00  0.00     0.163 HD
ENDROOT
BRANCH   1   5
HETATM    5  C   UNL     1     -42.630  58.978 -55.574  1.00  0.00     0.120 C 
BRANCH   5   6
HETATM    6  C   UNL     1     -42.456  59.240 -57.065  1.00  0.00    -0.033 A 
HETATM    7  C   UNL     1     -42.892  58.266 -57.980  1.00  0.00     0.009 A 
HETATM    8  C   UNL     1     -42.710  58.442 -59.351  1.00  0.00     0.003 A 
HETATM    9  C   UNL     1     -42.101  59.600 -59.828  1.00  0.00     0.037 A 
HETATM   10  C   UNL     1     -41.681  60.592 -58.941  1.00  0.00     0.068 A 
HETATM   11  C   UNL     1     -41.839  60.401 -57.565  1.00  0.00     0.046 A 
BRANCH  10  12
HETATM   12  O   UNL     1     -41.108  61.686 -59.530  1.00  0.00    -0.356 OA
HETATM   13  C   UNL     1     -40.294  62.493 -58.687  1.00  0.00     0.210 C 
ENDBRANCH  10  12
ENDBRANCH   5   6
BRANCH   5  14
HETATM   14  C   UNL     1     -44.078  59.270 -55.153  1.00  0.00     0.056 C 
BRANCH  14  15
HETATM   15  C   UNL     1     -44.754  58.049 -54.539  1.00  0.00     0.166 C 
BRANCH  15  16
HETATM   16  O   UNL     1     -45.343  57.261 -55.567  1.00  0.00    -0.401 OA
HETATM   17  H   UNL     1     -44.877  57.463 -56.397  1.00  0.00     0.209 HD
ENDBRANCH  15  16
ENDBRANCH  14  15
ENDBRANCH   5  14
ENDBRANCH   1   5
BRANCH   2  18
HETATM   18  C   UNL     1     -41.057  55.908 -53.942  1.00  0.00     0.032 A 
HETATM   19  C   UNL     1     -41.249  55.333 -52.681  1.00  0.00     0.018 A 
HETATM   20  C   UNL     1     -40.928  53.987 -52.464  1.00  0.00     0.013 A 
HETATM   21  C   UNL     1     -40.421  53.180 -53.497  1.00  0.00    -0.026 A 
HETATM   22  C   UNL     1     -40.268  53.762 -54.766  1.00  0.00     0.013 A 
HETATM   23  C   UNL     1     -40.583  55.108 -54.987  1.00  0.00     0.018 A 
BRANCH  21  24
HETATM   24  C   UNL     1     -40.050  51.774 -53.253  1.00  0.00    -0.023 A 
HETATM   25  C   UNL     1     -39.971  50.847 -54.300  1.00  0.00     0.031 A 
HETATM   26  C   UNL     1     -39.631  49.533 -54.015  1.00  0.00     0.117 A 
HETATM   27  N   UNL     1     -39.366  49.078 -52.774  1.00  0.00    -0.273 NA
HETATM   28  C   UNL     1     -39.442  49.979 -51.774  1.00  0.00     0.117 A 
HETATM   29  C   UNL     1     -39.773  51.313 -51.960  1.00  0.00     0.031 A 
ENDBRANCH  21  24
ENDBRANCH   2  18
TORSDOF 8
ENDMDL
MODEL 5
REMARK VINA RESULT:      -7.5      2.521      4.217
REMARK  8 active torsions:
REMARK  status: ('A' for Active; 'I' for Inactive)
REMARK    1  A    between atoms: O_2  and  C_3 
REMARK    2  A    between atoms: C_7  and  C_9 
REMARK    3  A    between atoms: C_9  and  C_10 
REMARK    4  A    between atoms: C_9  and  N_13 
REMARK    5  A    between atoms: C_10  and  C_11 
REMARK    6  A    between atoms: C_11  and  O_12 
REMARK       I    between atoms: N_13  and  C_14 
REMARK    7  A    between atoms: C_14  and  C_16 
REMARK    8  A    between atoms: C_19  and  C_22 
ROOT
HETATM    1  N   UNL     1     -42.830  57.772 -53.381  1.00  0.00    -0.348 N 
HETATM    2  C   UNL     1     -41.559  57.480 -52.935  1.00  0.00     0.252 C 
HETATM    3  O   UNL     1     -40.818  58.312 -52.427  1.00  0.00    -0.268 OA
HETATM    4  H   UNL     1     -43.426  57.041 -53.739  1.00  0.00     0.163 HD
ENDROOT
BRANCH   1   5
HETATM    5  C   UNL     1     -43.384  59.119 -53.329  1.00  0.00     0.120 C 
BRANCH   5   6
HETATM    6  C   UNL     1     -43.336  59.815 -54.684  1.00  0.00    -0.033 A 
HETATM    7  C   UNL     1     -44.537  60.280 -55.250  1.00  0.00     0.009 A 
HETATM    8  C   UNL     1     -44.547  60.880 -56.508  1.00  0.00     0.003 A 
HETATM    9  C   UNL     1     -43.356  61.036 -57.213  1.00  0.00     0.037 A 
HETATM   10  C   UNL     1     -42.149  60.606 -56.662  1.00  0.00     0.068 A 
HETATM   11  C   UNL     1     -42.144  59.978 -55.412  1.00  0.00     0.046 A 
BRANCH  10  12
HETATM   12  O   UNL     1     -41.047  60.825 -57.444  1.00  0.00    -0.356 OA
HETATM   13  C   UNL     1     -41.193  61.803 -58.467  1.00  0.00     0.210 C 
ENDBRANCH  10  12
ENDBRANCH   5   6
BRANCH   5  14
HETATM   14  C   UNL     1     -44.827  59.083 -52.805  1.00  0.00     0.056 C 
BRANCH  14  15
HETATM   15  C   UNL     1     -44.921  58.442 -51.424  1.00  0.00     0.166 C 
BRANCH  15  16
HETATM   16  O   UNL     1     -44.982  57.026 -51.558  1.00  0.00    -0.401 OA
HETATM   17  H   UNL     1     -44.558  56.637 -50.774  1.00  0.00     0.209 HD
ENDBRANCH  15  16
ENDBRANCH  14  15
ENDBRANCH   5  14
ENDBRANCH   1   5
BRANCH   2  18
HETATM   18  C   UNL     1     -41.127  56.056 -53.035  1.00  0.00     0.032 A 
HETATM   19  C   UNL     1     -40.740  55.462 -54.241  1.00  0.00     0.018 A 
HETATM   20  C   UNL     1     -40.392  54.105 -54.279  1.00  0.00     0.013 A 
HETATM   21  C   UNL     1     -40.409  53.313 -53.118  1.00  0.00    -0.026 A 
HETATM   22  C   UNL     1     -40.765  53.933 -51.909  1.00  0.00     0.013 A 
HETATM   23  C   UNL     1     -41.117  55.287 -51.866  1.00  0.00     0.018 A 
BRANCH  21  24
HETATM   24  C   UNL     1     -40.078  51.877 -53.171  1.00  0.00    -0.023 A 
HETATM   25  C   UNL     1     -40.111  51.163 -54.375  1.00  0.00     0.031 A 
HETATM   26  C   UNL     1     -39.803  49.812 -54.367  1.00  0.00     0.117 A 
HETATM   27  N   UNL     1     -39.468  49.123 -53.258  1.00  0.00    -0.273 NA
HETATM   28  C   UNL     1     -39.436  49.820 -52.104  1.00  0.00     0.117 A 
HETATM   29  C   UNL     1     -39.728  51.173 -52.012  1.00  0.00     0.031 A 
ENDBRANCH  21  24
ENDBRANCH   2  18
TORSDOF 8
ENDMDL
MODEL 6
REMARK VINA RESULT:      -7.4      5.095      6.968
REMARK  8 active torsions:
REMARK  status: ('A' for Active; 'I' for Inactive)
REMARK    1  A    between atoms: O_2  and  C_3 
REMARK    2  A    between atoms: C_7  and  C_9 
REMARK    3  A    between atoms: C_9  and  C_10 
REMARK    4  A    between atoms: C_9  and  N_13 
REMARK    5  A    between atoms: C_10  and  C_11 
REMARK    6  A    between atoms: C_11  and  O_12 
REMARK       I    between atoms: N_13  and  C_14 
REMARK    7  A    between atoms: C_14  and  C_16 
REMARK    8  A    between atoms: C_19  and  C_22 
ROOT
HETATM    1  N   UNL     1     -42.789  57.424 -57.849  1.00  0.00    -0.348 N 
HETATM    2  C   UNL     1     -43.308  57.275 -56.581  1.00  0.00     0.252 C 
HETATM    3  O   UNL     1     -44.305  57.870 -56.189  1.00  0.00    -0.268 OA
HETATM    4  H   UNL     1     -42.001  56.869 -58.147  1.00  0.00     0.163 HD
ENDROOT
BRANCH   1   5
HETATM    5  C   UNL     1     -43.360  58.349 -58.820  1.00  0.00     0.120 C 
BRANCH   5   6
HETATM    6  C   UNL     1     -42.476  59.570 -59.043  1.00  0.00    -0.033 A 
HETATM    7  C   UNL     1     -41.864  60.176 -57.932  1.00  0.00     0.009 A 
HETATM    8  C   UNL     1     -41.086  61.324 -58.083  1.00  0.00     0.003 A 
HETATM    9  C   UNL     1     -40.899  61.874 -59.349  1.00  0.00     0.037 A 
HETATM   10  C   UNL     1     -41.476  61.277 -60.469  1.00  0.00     0.068 A 
HETATM   11  C   UNL     1     -42.279  60.143 -60.313  1.00  0.00     0.046 A 
BRANCH  10  12
HETATM   12  O   UNL     1     -41.211  61.903 -61.657  1.00  0.00    -0.356 OA
HETATM   13  C   UNL     1     -42.283  62.649 -62.222  1.00  0.00     0.210 C 
ENDBRANCH  10  12
ENDBRANCH   5   6
BRANCH   5  14
HETATM   14  C   UNL     1     -43.612  57.631 -60.155  1.00  0.00     0.056 C 
BRANCH  14  15
HETATM   15  C   UNL     1     -42.949  56.259 -60.204  1.00  0.00     0.166 C 
BRANCH  15  16
HETATM   16  O   UNL     1     -41.545  56.413 -60.379  1.00  0.00    -0.401 OA
HETATM   17  H   UNL     1     -41.378  56.531 -61.330  1.00  0.00     0.209 HD
ENDBRANCH  15  16
ENDBRANCH  14  15
ENDBRANCH   5  14
ENDBRANCH   1   5
BRANCH   2  18
HETATM   18  C   UNL     1     -42.633  56.283 -55.695  1.00  0.00     0.032 A 
HETATM   19  C   UNL     1     -41.691  56.646 -54.727  1.00  0.00     0.018 A 
HETATM   20  C   UNL     1     -41.053  55.663 -53.959  1.00  0.00     0.013 A 
HETATM   21  C   UNL     1     -41.347  54.298 -54.129  1.00  0.00    -0.026 A 
HETATM   22  C   UNL     1     -42.322  53.953 -55.079  1.00  0.00     0.013 A 
HETATM   23  C   UNL     1     -42.959  54.932 -55.851  1.00  0.00     0.018 A 
BRANCH  21  24
HETATM   24  C   UNL     1     -40.647  53.265 -53.344  1.00  0.00    -0.023 A 
HETATM   25  C   UNL     1     -40.147  52.104 -53.946  1.00  0.00     0.031 A 
HETATM   26  C   UNL     1     -39.508  51.158 -53.160  1.00  0.00     0.117 A 
HETATM   27  N   UNL     1     -39.331  51.280 -51.830  1.00  0.00    -0.273 NA
HETATM   28  C   UNL     1     -39.814  52.403 -51.260  1.00  0.00     0.117 A 
HETATM   29  C   UNL     1     -40.466  53.405 -51.962  1.00  0.00     0.031 A 
ENDBRANCH  21  24
ENDBRANCH   2  18
TORSDOF 8
ENDMDL
MODEL 7
REMARK VINA RESULT:      -7.4      3.657      5.481
REMARK  8 active torsions:
REMARK  status: ('A' for Active; 'I' for Inactive)
REMARK    1  A    between atoms: O_2  and  C_3 
REMARK    2  A    between atoms: C_7  and  C_9 
REMARK    3  A    between atoms: C_9  and  C_10 
REMARK    4  A    between atoms: C_9  and  N_13 
REMARK    5  A    between atoms: C_10  and  C_11 
REMARK    6  A    between atoms: C_11  and  O_12 
REMARK       I    between atoms: N_13  and  C_14 
REMARK    7  A    between atoms: C_14  and  C_16 
REMARK    8  A    between atoms: C_19  and  C_22 
ROOT
HETATM    1  N   UNL     1     -43.470  56.974 -55.430  1.00  0.00    -0.348 N 
HETATM    2  C   UNL     1     -42.262  56.997 -54.767  1.00  0.00     0.252 C 
HETATM    3  O   UNL     1     -41.708  58.032 -54.416  1.00  0.00    -0.268 OA
HETATM    4  H   UNL     1     -43.917  56.096 -55.646  1.00  0.00     0.163 HD
ENDROOT
BRANCH   1   5
HETATM    5  C   UNL     1     -44.169  58.193 -55.817  1.00  0.00     0.120 C 
BRANCH   5   6
HETATM    6  C   UNL     1     -44.993  58.008 -57.086  1.00  0.00    -0.033 A 
HETATM    7  C   UNL     1     -46.288  58.552 -57.139  1.00  0.00     0.009 A 
HETATM    8  C   UNL     1     -47.095  58.367 -58.262  1.00  0.00     0.003 A 
HETATM    9  C   UNL     1     -46.612  57.646 -59.352  1.00  0.00     0.037 A 
HETATM   10  C   UNL     1     -45.322  57.117 -59.332  1.00  0.00     0.068 A 
HETATM   11  C   UNL     1     -44.525  57.279 -58.195  1.00  0.00     0.046 A 
BRANCH  10  12
HETATM   12  O   UNL     1     -44.959  56.440 -60.465  1.00  0.00    -0.356 OA
HETATM   13  C   UNL     1     -44.549  55.090 -60.281  1.00  0.00     0.210 C 
ENDBRANCH  10  12
ENDBRANCH   5   6
BRANCH   5  14
HETATM   14  C   UNL     1     -45.070  58.678 -54.671  1.00  0.00     0.056 C 
BRANCH  14  15
HETATM   15  C   UNL     1     -44.755  60.113 -54.262  1.00  0.00     0.166 C 
BRANCH  15  16
HETATM   16  O   UNL     1     -43.368  60.370 -54.452  1.00  0.00    -0.401 OA
HETATM   17  H   UNL     1     -43.244  60.656 -55.373  1.00  0.00     0.209 HD
ENDBRANCH  15  16
ENDBRANCH  14  15
ENDBRANCH   5  14
ENDBRANCH   1   5
BRANCH   2  18
HETATM   18  C   UNL     1     -41.666  55.674 -54.419  1.00  0.00     0.032 A 
HETATM   19  C   UNL     1     -40.658  55.073 -55.180  1.00  0.00     0.018 A 
HETATM   20  C   UNL     1     -40.172  53.805 -54.831  1.00  0.00     0.013 A 
HETATM   21  C   UNL     1     -40.670  53.115 -53.712  1.00  0.00    -0.026 A 
HETATM   22  C   UNL     1     -41.656  53.749 -52.939  1.00  0.00     0.013 A 
HETATM   23  C   UNL     1     -42.147  55.012 -53.285  1.00  0.00     0.018 A 
BRANCH  21  24
HETATM   24  C   UNL     1     -40.182  51.766 -53.371  1.00  0.00    -0.023 A 
HETATM   25  C   UNL     1     -40.074  50.761 -54.340  1.00  0.00     0.031 A 
HETATM   26  C   UNL     1     -39.622  49.506 -53.964  1.00  0.00     0.117 A 
HETATM   27  N   UNL     1     -39.272  49.179 -52.704  1.00  0.00    -0.273 NA
HETATM   28  C   UNL     1     -39.377  50.154 -51.779  1.00  0.00     0.117 A 
HETATM   29  C   UNL     1     -39.818  51.439 -52.059  1.00  0.00     0.031 A 
ENDBRANCH  21  24
ENDBRANCH   2  18
TORSDOF 8
ENDMDL
MODEL 8
REMARK VINA RESULT:      -7.4      5.393      7.390
REMARK  8 active torsions:
REMARK  status: ('A' for Active; 'I' for Inactive)
REMARK    1  A    between atoms: O_2  and  C_3 
REMARK    2  A    between atoms: C_7  and  C_9 
REMARK    3  A    between atoms: C_9  and  C_10 
REMARK    4  A    between atoms: C_9  and  N_13 
REMARK    5  A    between atoms: C_10  and  C_11 
REMARK    6  A    between atoms: C_11  and  O_12 
REMARK       I    between atoms: N_13  and  C_14 
REMARK    7  A    between atoms: C_14  and  C_16 
REMARK    8  A    between atoms: C_19  and  C_22 
ROOT
HETATM    1  N   UNL     1     -44.016  56.205 -58.164  1.00  0.00    -0.348 N 
HETATM    2  C   UNL     1     -43.617  56.768 -56.971  1.00  0.00     0.252 C 
HETATM    3  O   UNL     1     -43.900  57.914 -56.642  1.00  0.00    -0.268 OA
HETATM    4  H   UNL     1     -43.809  55.238 -58.366  1.00  0.00     0.163 HD
ENDROOT
BRANCH   1   5
HETATM    5  C   UNL     1     -44.772  56.949 -59.163  1.00  0.00     0.120 C 
BRANCH   5   6
HETATM    6  C   UNL     1     -43.911  57.973 -59.893  1.00  0.00    -0.033 A 
HETATM    7  C   UNL     1     -42.551  57.689 -60.104  1.00  0.00     0.009 A 
HETATM    8  C   UNL     1     -41.715  58.617 -60.725  1.00  0.00     0.003 A 
HETATM    9  C   UNL     1     -42.232  59.837 -61.156  1.00  0.00     0.037 A 
HETATM   10  C   UNL     1     -43.584  60.132 -60.980  1.00  0.00     0.068 A 
HETATM   11  C   UNL     1     -44.414  59.212 -60.331  1.00  0.00     0.046 A 
BRANCH  10  12
HETATM   12  O   UNL     1     -43.973  61.355 -61.455  1.00  0.00    -0.356 OA
HETATM   13  C   UNL     1     -45.178  61.880 -60.910  1.00  0.00     0.210 C 
ENDBRANCH  10  12
ENDBRANCH   5   6
BRANCH   5  14
HETATM   14  C   UNL     1     -45.415  55.986 -60.172  1.00  0.00     0.056 C 
BRANCH  14  15
HETATM   15  C   UNL     1     -44.618  54.695 -60.322  1.00  0.00     0.166 C 
BRANCH  15  16
HETATM   16  O   UNL     1     -45.208  53.674 -59.524  1.00  0.00    -0.401 OA
HETATM   17  H   UNL     1     -44.487  53.168 -59.111  1.00  0.00     0.209 HD
ENDBRANCH  15  16
ENDBRANCH  14  15
ENDBRANCH   5  14
ENDBRANCH   1   5
BRANCH   2  18
HETATM   18  C   UNL     1     -42.862  55.886 -56.035  1.00  0.00     0.032 A 
HETATM   19  C   UNL     1     -41.742  56.321 -55.318  1.00  0.00     0.018 A 
HETATM   20  C   UNL     1     -41.044  55.431 -54.492  1.00  0.00     0.013 A 
HETATM   21  C   UNL     1     -41.451  54.092 -54.351  1.00  0.00    -0.026 A 
HETATM   22  C   UNL     1     -42.598  53.682 -55.049  1.00  0.00     0.013 A 
HETATM   23  C   UNL     1     -43.297  54.566 -55.878  1.00  0.00     0.018 A 
BRANCH  21  24
HETATM   24  C   UNL     1     -40.691  53.150 -53.509  1.00  0.00    -0.023 A 
HETATM   25  C   UNL     1     -40.482  53.393 -52.146  1.00  0.00     0.031 A 
HETATM   26  C   UNL     1     -39.750  52.481 -51.402  1.00  0.00     0.117 A 
HETATM   27  N   UNL     1     -39.213  51.354 -51.911  1.00  0.00    -0.273 NA
HETATM   28  C   UNL     1     -39.422  51.128 -53.223  1.00  0.00     0.117 A 
HETATM   29  C   UNL     1     -40.141  51.980 -54.048  1.00  0.00     0.031 A 
ENDBRANCH  21  24
ENDBRANCH   2  18
TORSDOF 8
ENDMDL
MODEL 9
REMARK VINA RESULT:      -7.3      4.530      8.883
REMARK  8 active torsions:
REMARK  status: ('A' for Active; 'I' for Inactive)
REMARK    1  A    between atoms: O_2  and  C_3 
REMARK    2  A    between atoms: C_7  and  C_9 
REMARK    3  A    between atoms: C_9  and  C_10 
REMARK    4  A    between atoms: C_9  and  N_13 
REMARK    5  A    between atoms: C_10  and  C_11 
REMARK    6  A    between atoms: C_11  and  O_12 
REMARK       I    between atoms: N_13  and  C_14 
REMARK    7  A    between atoms: C_14  and  C_16 
REMARK    8  A    between atoms: C_19  and  C_22 
ROOT
HETATM    1  N   UNL     1     -41.873  55.819 -53.885  1.00  0.00    -0.348 N 
HETATM    2  C   UNL     1     -42.957  56.244 -54.621  1.00  0.00     0.252 C 
HETATM    3  O   UNL     1     -44.104  55.873 -54.403  1.00  0.00    -0.268 OA
HETATM    4  H   UNL     1     -40.955  56.198 -54.063  1.00  0.00     0.163 HD
ENDROOT
BRANCH   1   5
HETATM    5  C   UNL     1     -41.996  54.846 -52.807  1.00  0.00     0.120 C 
BRANCH   5   6
HETATM    6  C   UNL     1     -41.142  53.607 -53.047  1.00  0.00    -0.033 A 
HETATM    7  C   UNL     1     -41.018  53.113 -54.357  1.00  0.00     0.009 A 
HETATM    8  C   UNL     1     -40.285  51.955 -54.617  1.00  0.00     0.003 A 
HETATM    9  C   UNL     1     -39.657  51.282 -53.572  1.00  0.00     0.037 A 
HETATM   10  C   UNL     1     -39.745  51.766 -52.267  1.00  0.00     0.068 A 
HETATM   11  C   UNL     1     -40.503  52.912 -52.004  1.00  0.00     0.046 A 
BRANCH  10  12
HETATM   12  O   UNL     1     -39.076  51.026 -51.331  1.00  0.00    -0.356 OA
HETATM   13  C   UNL     1     -39.852  50.064 -50.626  1.00  0.00     0.210 C 
ENDBRANCH  10  12
ENDBRANCH   5   6
BRANCH   5  14
HETATM   14  C   UNL     1     -41.624  55.489 -51.462  1.00  0.00     0.056 C 
BRANCH  14  15
HETATM   15  C   UNL     1     -42.850  55.996 -50.710  1.00  0.00     0.166 C 
BRANCH  15  16
HETATM   16  O   UNL     1     -44.029  55.637 -51.422  1.00  0.00    -0.401 OA
HETATM   17  H   UNL     1     -43.769  55.415 -52.333  1.00  0.00     0.209 HD
ENDBRANCH  15  16
ENDBRANCH  14  15
ENDBRANCH   5  14
ENDBRANCH   1   5
BRANCH   2  18
HETATM   18  C   UNL     1     -42.688  57.254 -55.685  1.00  0.00     0.032 A 
HETATM   19  C   UNL     1     -42.675  56.937 -57.047  1.00  0.00     0.018 A 
HETATM   20  C   UNL     1     -42.366  57.920 -57.997  1.00  0.00     0.013 A 
HETATM   21  C   UNL     1     -42.075  59.242 -57.614  1.00  0.00    -0.026 A 
HETATM   22  C   UNL     1     -42.128  59.551 -56.245  1.00  0.00     0.013 A 
HETATM   23  C   UNL     1     -42.433  58.572 -55.292  1.00  0.00     0.018 A 
BRANCH  21  24
HETATM   24  C   UNL     1     -41.715  60.263 -58.614  1.00  0.00    -0.023 A 
HETATM   25  C   UNL     1     -41.035  61.432 -58.252  1.00  0.00     0.031 A 
HETATM   26  C   UNL     1     -40.731  62.367 -59.230  1.00  0.00     0.117 A 
HETATM   27  N   UNL     1     -41.051  62.225 -60.531  1.00  0.00    -0.273 NA
HETATM   28  C   UNL     1     -41.703  61.094 -60.870  1.00  0.00     0.117 A 
HETATM   29  C   UNL     1     -42.049  60.103 -59.964  1.00  0.00     0.031 A 
ENDBRANCH  21  24
ENDBRANCH   2  18
TORSDOF 8
ENDMDL
MODEL 10
REMARK VINA RESULT:      -7.2      3.184      9.262
REMARK  8 active torsions:
REMARK  status: ('A' for Active; 'I' for Inactive)
REMARK    1  A    between atoms: O_2  and  C_3 
REMARK    2  A    between atoms: C_7  and  C_9 
REMARK    3  A    between atoms: C_9  and  C_10 
REMARK    4  A    between atoms: C_9  and  N_13 
REMARK    5  A    between atoms: C_10  and  C_11 
REMARK    6  A    between atoms: C_11  and  O_12 
REMARK       I    between atoms: N_13  and  C_14 
REMARK    7  A    between atoms: C_14  and  C_16 
REMARK    8  A    between atoms: C_19  and  C_22 
ROOT
HETATM    1  N   UNL     1     -41.610  55.458 -50.924  1.00  0.00    -0.348 N 
HETATM    2  C   UNL     1     -42.974  55.639 -50.836  1.00  0.00     0.252 C 
HETATM    3  O   UNL     1     -43.753  54.741 -50.539  1.00  0.00    -0.268 OA
HETATM    4  H   UNL     1     -41.003  56.241 -51.113  1.00  0.00     0.163 HD
ENDROOT
BRANCH   1   5
HETATM    5  C   UNL     1     -40.982  54.160 -50.716  1.00  0.00     0.120 C 
BRANCH   5   6
HETATM    6  C   UNL     1     -40.593  53.491 -52.029  1.00  0.00    -0.033 A 
HETATM    7  C   UNL     1     -40.705  54.224 -53.223  1.00  0.00     0.009 A 
HETATM    8  C   UNL     1     -40.406  53.637 -54.452  1.00  0.00     0.003 A 
HETATM    9  C   UNL     1     -39.978  52.312 -54.503  1.00  0.00     0.037 A 
HETATM   10  C   UNL     1     -39.836  51.571 -53.330  1.00  0.00     0.068 A 
HETATM   11  C   UNL     1     -40.164  52.153 -52.101  1.00  0.00     0.046 A 
BRANCH  10  12
HETATM   12  O   UNL     1     -39.399  50.287 -53.508  1.00  0.00    -0.356 OA
HETATM   13  C   UNL     1     -39.590  49.404 -52.409  1.00  0.00     0.210 C 
ENDBRANCH  10  12
ENDBRANCH   5   6
BRANCH   5  14
HETATM   14  C   UNL     1     -39.748  54.303 -49.812  1.00  0.00     0.056 C 
BRANCH  14  15
HETATM   15  C   UNL     1     -40.057  53.955 -48.360  1.00  0.00     0.166 C 
BRANCH  15  16
HETATM   16  O   UNL     1     -40.972  54.906 -47.826  1.00  0.00    -0.401 OA
HETATM   17  H   UNL     1     -41.456  55.301 -48.572  1.00  0.00     0.209 HD
ENDBRANCH  15  16
ENDBRANCH  14  15
ENDBRANCH   5  14
ENDBRANCH   1   5
BRANCH   2  18
HETATM   18  C   UNL     1     -43.480  57.024 -51.057  1.00  0.00     0.032 A 
HETATM   19  C   UNL     1     -42.638  58.105 -51.340  1.00  0.00     0.018 A 
HETATM   20  C   UNL     1     -43.169  59.393 -51.488  1.00  0.00     0.013 A 
HETATM   21  C   UNL     1     -44.549  59.633 -51.371  1.00  0.00    -0.026 A 
HETATM   22  C   UNL     1     -45.385  58.531 -51.123  1.00  0.00     0.013 A 
HETATM   23  C   UNL     1     -44.859  57.243 -50.970  1.00  0.00     0.018 A 
BRANCH  21  24
HETATM   24  C   UNL     1     -45.098  60.995 -51.491  1.00  0.00    -0.023 A 
HETATM   25  C   UNL     1     -46.340  61.233 -52.095  1.00  0.00     0.031 A 
HETATM   26  C   UNL     1     -46.805  62.535 -52.194  1.00  0.00     0.117 A 
HETATM   27  N   UNL     1     -46.130  63.610 -51.741  1.00  0.00    -0.273 NA
HETATM   28  C   UNL     1     -44.938  63.371 -51.160  1.00  0.00     0.117 A 
HETATM   29  C   UNL     1     -44.390  62.106 -51.014  1.00  0.00     0.031 A 
ENDBRANCH  21  24
ENDBRANCH   2  18
TORSDOF 8
ENDMDL
