MODEL 1
REMARK VINA RESULT:      -9.4      0.000      0.000
REMARK  8 active torsions:
REMARK  status: ('A' for Active; 'I' for Inactive)
REMARK    1  A    between atoms: C_2  and  O_3 
REMARK    2  A    between atoms: C_2  and  C_14 
REMARK    3  A    between atoms: O_3  and  C_4 
REMARK       I    between atoms: C_14  and  N_15 
REMARK    4  A    between atoms: N_15  and  N_16 
REMARK       I    between atoms: N_16  and  C_17 
REMARK    5  A    between atoms: C_17  and  C_18 
REMARK    6  A    between atoms: C_18  and  C_19 
REMARK    7  A    between atoms: C_19  and  C_20 
REMARK    8  A    between atoms: C_20  and  C_21 
ROOT
HETATM    1  N   UNL     1     -42.979  58.675 -54.030  1.00  0.00    -0.267 N 
HETATM    2  C   UNL     1     -42.134  59.726 -54.340  1.00  0.00     0.236 C 
HETATM    3  O   UNL     1     -40.971  59.784 -53.948  1.00  0.00    -0.272 OA
HETATM    4  H   UNL     1     -43.793  58.488 -54.615  1.00  0.00     0.190 HD
ENDROOT
BRANCH   1   5
HETATM    5  N   UNL     1     -42.383  57.523 -53.475  1.00  0.00    -0.265 N 
HETATM    6  C   UNL     1     -42.812  57.150 -52.209  1.00  0.00     0.265 C 
HETATM    7  O   UNL     1     -43.470  57.904 -51.494  1.00  0.00    -0.269 OA
HETATM    8  H   UNL     1     -42.178  56.773 -54.140  1.00  0.00     0.190 HD
BRANCH   6   9
HETATM    9  C   UNL     1     -42.288  55.776 -51.764  1.00  0.00     0.218 C 
HETATM   10  C   UNL     1     -43.271  54.684 -52.169  1.00  0.00     0.050 C 
BRANCH   9  11
HETATM   11  O   UNL     1     -41.027  55.553 -52.403  1.00  0.00    -0.337 OA
BRANCH  11  12
HETATM   12  C   UNL     1     -40.729  54.291 -52.837  1.00  0.00     0.070 A 
HETATM   13  C   UNL     1     -40.426  53.383 -51.818  1.00  0.00     0.049 A 
HETATM   14  C   UNL     1     -40.098  52.048 -52.104  1.00  0.00    -0.023 A 
HETATM   15  C   UNL     1     -40.065  51.620 -53.450  1.00  0.00    -0.026 A 
HETATM   16  C   UNL     1     -39.803  51.127 -51.086  1.00  0.00     0.012 A 
HETATM   17  C   UNL     1     -40.356  52.542 -54.466  1.00  0.00     0.015 A 
HETATM   18  C   UNL     1     -39.737  50.286 -53.742  1.00  0.00     0.012 A 
HETATM   19  C   UNL     1     -40.683  53.868 -54.162  1.00  0.00     0.037 A 
HETATM   20  C   UNL     1     -39.447  49.384 -52.717  1.00  0.00     0.001 A 
HETATM   21  C   UNL     1     -39.480  49.804 -51.391  1.00  0.00     0.001 A 
ENDBRANCH  11  12
ENDBRANCH   9  11
ENDBRANCH   6   9
ENDBRANCH   1   5
BRANCH   2  22
HETATM   22  C   UNL     1     -42.815  60.811 -55.151  1.00  0.00     0.105 C 
BRANCH  22  23
HETATM   23  C   UNL     1     -43.289  60.299 -56.509  1.00  0.00     0.014 C 
BRANCH  23  24
HETATM   24  C   UNL     1     -42.181  59.524 -57.224  1.00  0.00     0.039 C 
BRANCH  24  25
HETATM   25  C   UNL     1     -42.696  58.242 -57.836  1.00  0.00    -0.056 A 
HETATM   26  C   UNL     1     -43.286  58.256 -59.111  1.00  0.00     0.039 A 
HETATM   27  C   UNL     1     -43.717  57.050 -59.614  1.00  0.00     0.063 A 
HETATM   28  C   UNL     1     -43.579  55.857 -58.908  1.00  0.00     0.063 A 
HETATM   29  N   UNL     1     -44.329  56.760 -60.827  1.00  0.00    -0.306 N 
HETATM   30  N   UNL     1     -44.107  54.834 -59.686  1.00  0.00    -0.307 N 
HETATM   31  C   UNL     1     -43.003  55.805 -57.663  1.00  0.00     0.032 A 
HETATM   32  C   UNL     1     -44.579  55.381 -60.888  1.00  0.00     0.325 A 
HETATM   33  H   UNL     1     -44.156  53.854 -59.459  1.00  0.00     0.170 HD
HETATM   34  O   UNL     1     -45.103  54.776 -61.806  1.00  0.00    -0.247 OA
HETATM   35  C   UNL     1     -42.554  57.019 -57.127  1.00  0.00     0.009 A 
HETATM   36  H   UNL     1     -44.563  57.404 -61.564  1.00  0.00     0.170 HD
ENDBRANCH  24  25
ENDBRANCH  23  24
ENDBRANCH  22  23
ENDBRANCH   2  22
TORSDOF 8
ENDMDL
MODEL 2
REMARK VINA RESULT:      -9.3      2.188      4.894
REMARK  8 active torsions:
REMARK  status: ('A' for Active; 'I' for Inactive)
REMARK    1  A    between atoms: C_2  and  O_3 
REMARK    2  A    between atoms: C_2  and  C_14 
REMARK    3  A    between atoms: O_3  and  C_4 
REMARK       I    between atoms: C_14  and  N_15 
REMARK    4  A    between atoms: N_15  and  N_16 
REMARK       I    between atoms: N_16  and  C_17 
REMARK    5  A    between atoms: C_17  and  C_18 
REMARK    6  A    between atoms: C_18  and  C_19 
REMARK    7  A    between atoms: C_19  and  C_20 
REMARK    8  A    between atoms: C_20  and  C_21 
ROOT
HETATM    1  N   UNL     1     -43.917  55.832 -58.747  1.00  0.00    -0.267 N 
HETATM    2  C   UNL     1     -44.591  54.972 -59.597  1.00  0.00     0.236 C 
HETATM    3  O   UNL     1     -44.611  53.755 -59.432  1.00  0.00    -0.272 OA
HETATM    4  H   UNL     1     -44.181  56.817 -58.709  1.00  0.00     0.190 HD
ENDROOT
BRANCH   1   5
HETATM    5  N   UNL     1     -43.478  55.298 -57.519  1.00  0.00    -0.265 N 
HETATM    6  C   UNL     1     -42.764  56.151 -56.689  1.00  0.00     0.265 C 
HETATM    7  O   UNL     1     -42.307  57.221 -57.090  1.00  0.00    -0.269 OA
HETATM    8  H   UNL     1     -44.123  54.641 -57.071  1.00  0.00     0.190 HD
BRANCH   6   9
HETATM    9  C   UNL     1     -42.512  55.575 -55.287  1.00  0.00     0.218 C 
HETATM   10  C   UNL     1     -43.489  54.441 -55.002  1.00  0.00     0.050 C 
BRANCH   9  11
HETATM   11  O   UNL     1     -41.170  55.079 -55.246  1.00  0.00    -0.337 OA
BRANCH  11  12
HETATM   12  C   UNL     1     -40.822  54.220 -54.241  1.00  0.00     0.070 A 
HETATM   13  C   UNL     1     -40.569  52.910 -54.658  1.00  0.00     0.049 A 
HETATM   14  C   UNL     1     -40.201  51.911 -53.742  1.00  0.00    -0.023 A 
HETATM   15  C   UNL     1     -40.096  52.238 -52.372  1.00  0.00    -0.026 A 
HETATM   16  C   UNL     1     -39.935  50.595 -54.154  1.00  0.00     0.012 A 
HETATM   17  C   UNL     1     -40.366  53.551 -51.962  1.00  0.00     0.015 A 
HETATM   18  C   UNL     1     -39.730  51.242 -51.451  1.00  0.00     0.012 A 
HETATM   19  C   UNL     1     -40.729  54.535 -52.888  1.00  0.00     0.037 A 
HETATM   20  C   UNL     1     -39.469  49.939 -51.879  1.00  0.00     0.001 A 
HETATM   21  C   UNL     1     -39.571  49.616 -53.229  1.00  0.00     0.001 A 
ENDBRANCH  11  12
ENDBRANCH   9  11
ENDBRANCH   6   9
ENDBRANCH   1   5
BRANCH   2  22
HETATM   22  C   UNL     1     -45.236  55.684 -60.768  1.00  0.00     0.105 C 
BRANCH  22  23
HETATM   23  C   UNL     1     -46.692  56.049 -60.487  1.00  0.00     0.014 C 
BRANCH  23  24
HETATM   24  C   UNL     1     -46.900  57.563 -60.527  1.00  0.00     0.039 C 
BRANCH  24  25
HETATM   25  C   UNL     1     -46.210  58.257 -59.376  1.00  0.00    -0.056 A 
HETATM   26  C   UNL     1     -46.555  57.939 -58.051  1.00  0.00     0.039 A 
HETATM   27  C   UNL     1     -45.874  58.596 -57.053  1.00  0.00     0.063 A 
HETATM   28  C   UNL     1     -44.881  59.535 -57.322  1.00  0.00     0.063 A 
HETATM   29  N   UNL     1     -45.998  58.491 -55.672  1.00  0.00    -0.306 N 
HETATM   30  N   UNL     1     -44.395  60.007 -56.109  1.00  0.00    -0.307 N 
HETATM   31  C   UNL     1     -44.514  59.866 -58.603  1.00  0.00     0.032 A 
HETATM   32  C   UNL     1     -45.082  59.364 -55.069  1.00  0.00     0.325 A 
HETATM   33  H   UNL     1     -43.671  60.691 -55.963  1.00  0.00     0.170 HD
HETATM   34  O   UNL     1     -44.915  59.532 -53.875  1.00  0.00    -0.247 OA
HETATM   35  C   UNL     1     -45.190  59.211 -59.640  1.00  0.00     0.009 A 
HETATM   36  H   UNL     1     -46.625  57.894 -55.159  1.00  0.00     0.170 HD
ENDBRANCH  24  25
ENDBRANCH  23  24
ENDBRANCH  22  23
ENDBRANCH   2  22
TORSDOF 8
ENDMDL
MODEL 3
REMARK VINA RESULT:      -9.1      4.924      8.289
REMARK  8 active torsions:
REMARK  status: ('A' for Active; 'I' for Inactive)
REMARK    1  A    between atoms: C_2  and  O_3 
REMARK    2  A    between atoms: C_2  and  C_14 
REMARK    3  A    between atoms: O_3  and  C_4 
REMARK       I    between atoms: C_14  and  N_15 
REMARK    4  A    between atoms: N_15  and  N_16 
REMARK       I    between atoms: N_16  and  C_17 
REMARK    5  A    between atoms: C_17  and  C_18 
REMARK    6  A    between atoms: C_18  and  C_19 
REMARK    7  A    between atoms: C_19  and  C_20 
REMARK    8  A    between atoms: C_20  and  C_21 
ROOT
HETATM    1  N   UNL     1     -43.021  59.873 -51.057  1.00  0.00    -0.267 N 
HETATM    2  C   UNL     1     -43.932  60.588 -51.815  1.00  0.00     0.236 C 
HETATM    3  O   UNL     1     -44.588  60.080 -52.721  1.00  0.00    -0.272 OA
HETATM    4  H   UNL     1     -42.750  60.215 -50.135  1.00  0.00     0.190 HD
ENDROOT
BRANCH   1   5
HETATM    5  N   UNL     1     -43.065  58.469 -51.169  1.00  0.00    -0.265 N 
HETATM    6  C   UNL     1     -41.854  57.799 -51.063  1.00  0.00     0.265 C 
HETATM    7  O   UNL     1     -40.775  58.386 -51.132  1.00  0.00    -0.269 OA
HETATM    8  H   UNL     1     -43.885  58.021 -50.752  1.00  0.00     0.190 HD
BRANCH   6   9
HETATM    9  C   UNL     1     -42.002  56.272 -50.974  1.00  0.00     0.218 C 
HETATM   10  C   UNL     1     -43.475  55.885 -51.029  1.00  0.00     0.050 C 
BRANCH   9  11
HETATM   11  O   UNL     1     -41.307  55.693 -52.082  1.00  0.00    -0.337 OA
BRANCH  11  12
HETATM   12  C   UNL     1     -40.837  54.415 -51.961  1.00  0.00     0.070 A 
HETATM   13  C   UNL     1     -40.841  53.679 -53.151  1.00  0.00     0.049 A 
HETATM   14  C   UNL     1     -40.388  52.350 -53.188  1.00  0.00    -0.023 A 
HETATM   15  C   UNL     1     -39.931  51.745 -51.997  1.00  0.00    -0.026 A 
HETATM   16  C   UNL     1     -40.380  51.608 -54.380  1.00  0.00     0.012 A 
HETATM   17  C   UNL     1     -39.944  52.486 -50.806  1.00  0.00     0.015 A 
HETATM   18  C   UNL     1     -39.478  50.415 -52.029  1.00  0.00     0.012 A 
HETATM   19  C   UNL     1     -40.396  53.810 -50.788  1.00  0.00     0.037 A 
HETATM   20  C   UNL     1     -39.476  49.693 -53.223  1.00  0.00     0.001 A 
HETATM   21  C   UNL     1     -39.926  50.289 -54.397  1.00  0.00     0.001 A 
ENDBRANCH  11  12
ENDBRANCH   9  11
ENDBRANCH   6   9
ENDBRANCH   1   5
BRANCH   2  22
HETATM   22  C   UNL     1     -43.981  62.057 -51.449  1.00  0.00     0.105 C 
BRANCH  22  23
HETATM   23  C   UNL     1     -43.218  62.353 -50.159  1.00  0.00     0.014 C 
BRANCH  23  24
HETATM   24  C   UNL     1     -43.948  63.397 -49.313  1.00  0.00     0.039 C 
BRANCH  24  25
HETATM   25  C   UNL     1     -44.973  62.766 -48.401  1.00  0.00    -0.056 A 
HETATM   26  C   UNL     1     -44.817  61.434 -47.979  1.00  0.00     0.039 A 
HETATM   27  C   UNL     1     -45.779  60.930 -47.135  1.00  0.00     0.063 A 
HETATM   28  C   UNL     1     -46.864  61.689 -46.703  1.00  0.00     0.063 A 
HETATM   29  N   UNL     1     -45.888  59.667 -46.564  1.00  0.00    -0.306 N 
HETATM   30  N   UNL     1     -47.640  60.895 -45.867  1.00  0.00    -0.307 N 
HETATM   31  C   UNL     1     -47.044  62.994 -47.089  1.00  0.00     0.032 A 
HETATM   32  C   UNL     1     -47.044  59.629 -45.770  1.00  0.00     0.325 A 
HETATM   33  H   UNL     1     -48.489  61.152 -45.392  1.00  0.00     0.170 HD
HETATM   34  O   UNL     1     -47.450  58.682 -45.122  1.00  0.00    -0.247 OA
HETATM   35  C   UNL     1     -46.079  63.535 -47.948  1.00  0.00     0.009 A 
HETATM   36  H   UNL     1     -45.260  58.889 -46.676  1.00  0.00     0.170 HD
ENDBRANCH  24  25
ENDBRANCH  23  24
ENDBRANCH  22  23
ENDBRANCH   2  22
TORSDOF 8
ENDMDL
MODEL 4
REMARK VINA RESULT:      -9.0      1.277      1.901
REMARK  8 active torsions:
REMARK  status: ('A' for Active; 'I' for Inactive)
REMARK    1  A    between atoms: C_2  and  O_3 
REMARK    2  A    between atoms: C_2  and  C_14 
REMARK    3  A    between atoms: O_3  and  C_4 
REMARK       I    between atoms: C_14  and  N_15 
REMARK    4  A    between atoms: N_15  and  N_16 
REMARK       I    between atoms: N_16  and  C_17 
REMARK    5  A    between atoms: C_17  and  C_18 
REMARK    6  A    between atoms: C_18  and  C_19 
REMARK    7  A    between atoms: C_19  and  C_20 
REMARK    8  A    between atoms: C_20  and  C_21 
ROOT
HETATM    1  N   UNL     1     -43.151  57.829 -55.011  1.00  0.00    -0.267 N 
HETATM    2  C   UNL     1     -42.506  58.928 -55.549  1.00  0.00     0.236 C 
HETATM    3  O   UNL     1     -41.497  59.418 -55.049  1.00  0.00    -0.272 OA
HETATM    4  H   UNL     1     -43.758  57.258 -55.599  1.00  0.00     0.190 HD
ENDROOT
BRANCH   1   5
HETATM    5  N   UNL     1     -42.458  57.109 -54.016  1.00  0.00    -0.265 N 
HETATM    6  C   UNL     1     -43.063  57.030 -52.770  1.00  0.00     0.265 C 
HETATM    7  O   UNL     1     -44.008  57.753 -52.456  1.00  0.00    -0.269 OA
HETATM    8  H   UNL     1     -41.956  56.280 -54.346  1.00  0.00     0.190 HD
BRANCH   6   9
HETATM    9  C   UNL     1     -42.366  56.055 -51.809  1.00  0.00     0.218 C 
HETATM   10  C   UNL     1     -43.269  54.859 -51.531  1.00  0.00     0.050 C 
BRANCH   9  11
HETATM   11  O   UNL     1     -41.154  55.612 -52.428  1.00  0.00    -0.337 OA
BRANCH  11  12
HETATM   12  C   UNL     1     -40.732  54.333 -52.195  1.00  0.00     0.070 A 
HETATM   13  C   UNL     1     -40.716  53.510 -53.325  1.00  0.00     0.049 A 
HETATM   14  C   UNL     1     -40.307  52.168 -53.246  1.00  0.00    -0.023 A 
HETATM   15  C   UNL     1     -39.914  51.641 -51.996  1.00  0.00    -0.026 A 
HETATM   16  C   UNL     1     -40.278  51.339 -54.379  1.00  0.00     0.012 A 
HETATM   17  C   UNL     1     -39.948  52.470 -50.865  1.00  0.00     0.015 A 
HETATM   18  C   UNL     1     -39.506  50.300 -51.911  1.00  0.00     0.012 A 
HETATM   19  C   UNL     1     -40.356  53.805 -50.963  1.00  0.00     0.037 A 
HETATM   20  C   UNL     1     -39.483  49.489 -53.048  1.00  0.00     0.001 A 
HETATM   21  C   UNL     1     -39.869  50.009 -54.280  1.00  0.00     0.001 A 
ENDBRANCH  11  12
ENDBRANCH   9  11
ENDBRANCH   6   9
ENDBRANCH   1   5
BRANCH   2  22
HETATM   22  C   UNL     1     -43.209  59.486 -56.770  1.00  0.00     0.105 C 
BRANCH  22  23
HETATM   23  C   UNL     1     -42.250  59.695 -57.939  1.00  0.00     0.014 C 
BRANCH  23  24
HETATM   24  C   UNL     1     -41.817  58.359 -58.543  1.00  0.00     0.039 C 
BRANCH  24  25
HETATM   25  C   UNL     1     -43.002  57.525 -58.972  1.00  0.00    -0.056 A 
HETATM   26  C   UNL     1     -44.061  58.116 -59.680  1.00  0.00     0.039 A 
HETATM   27  C   UNL     1     -45.099  57.293 -60.054  1.00  0.00     0.063 A 
HETATM   28  C   UNL     1     -45.115  55.932 -59.756  1.00  0.00     0.063 A 
HETATM   29  N   UNL     1     -46.264  57.592 -60.751  1.00  0.00    -0.306 N 
HETATM   30  N   UNL     1     -46.289  55.394 -60.270  1.00  0.00    -0.307 N 
HETATM   31  C   UNL     1     -44.095  55.320 -59.072  1.00  0.00     0.032 A 
HETATM   32  C   UNL     1     -47.017  56.417 -60.894  1.00  0.00     0.325 A 
HETATM   33  H   UNL     1     -46.596  54.436 -60.223  1.00  0.00     0.170 HD
HETATM   34  O   UNL     1     -48.094  56.307 -61.452  1.00  0.00    -0.247 OA
HETATM   35  C   UNL     1     -43.024  56.134 -58.679  1.00  0.00     0.009 A 
HETATM   36  H   UNL     1     -46.548  58.487 -61.112  1.00  0.00     0.170 HD
ENDBRANCH  24  25
ENDBRANCH  23  24
ENDBRANCH  22  23
ENDBRANCH   2  22
TORSDOF 8
ENDMDL
MODEL 5
REMARK VINA RESULT:      -9.0      1.987      2.888
REMARK  8 active torsions:
REMARK  status: ('A' for Active; 'I' for Inactive)
REMARK    1  A    between atoms: C_2  and  O_3 
REMARK    2  A    between atoms: C_2  and  C_14 
REMARK    3  A    between atoms: O_3  and  C_4 
REMARK       I    between atoms: C_14  and  N_15 
REMARK    4  A    between atoms: N_15  and  N_16 
REMARK       I    between atoms: N_16  and  C_17 
REMARK    5  A    between atoms: C_17  and  C_18 
REMARK    6  A    between atoms: C_18  and  C_19 
REMARK    7  A    between atoms: C_19  and  C_20 
REMARK    8  A    between atoms: C_20  and  C_21 
ROOT
HETATM    1  N   UNL     1     -42.099  58.571 -57.350  1.00  0.00    -0.267 N 
HETATM    2  C   UNL     1     -42.044  59.949 -57.247  1.00  0.00     0.236 C 
HETATM    3  O   UNL     1     -42.283  60.549 -56.201  1.00  0.00    -0.272 OA
HETATM    4  H   UNL     1     -41.593  58.097 -58.098  1.00  0.00     0.190 HD
ENDROOT
BRANCH   1   5
HETATM    5  N   UNL     1     -42.169  57.845 -56.143  1.00  0.00    -0.265 N 
HETATM    6  C   UNL     1     -42.433  56.487 -56.248  1.00  0.00     0.265 C 
HETATM    7  O   UNL     1     -42.843  55.981 -57.293  1.00  0.00    -0.269 OA
HETATM    8  H   UNL     1     -41.510  58.139 -55.417  1.00  0.00     0.190 HD
BRANCH   6   9
HETATM    9  C   UNL     1     -42.276  55.726 -54.923  1.00  0.00     0.218 C 
HETATM   10  C   UNL     1     -43.378  54.683 -54.784  1.00  0.00     0.050 C 
BRANCH   9  11
HETATM   11  O   UNL     1     -40.998  55.083 -54.929  1.00  0.00    -0.337 OA
BRANCH  11  12
HETATM   12  C   UNL     1     -40.708  54.198 -53.928  1.00  0.00     0.070 A 
HETATM   13  C   UNL     1     -40.427  52.899 -54.363  1.00  0.00     0.049 A 
HETATM   14  C   UNL     1     -40.111  51.877 -53.453  1.00  0.00    -0.023 A 
HETATM   15  C   UNL     1     -40.088  52.169 -52.071  1.00  0.00    -0.026 A 
HETATM   16  C   UNL     1     -39.818  50.573 -53.883  1.00  0.00     0.012 A 
HETATM   17  C   UNL     1     -40.385  53.471 -51.643  1.00  0.00     0.015 A 
HETATM   18  C   UNL     1     -39.774  51.150 -51.156  1.00  0.00     0.012 A 
HETATM   19  C   UNL     1     -40.695  54.478 -52.564  1.00  0.00     0.037 A 
HETATM   20  C   UNL     1     -39.484  49.858 -51.601  1.00  0.00     0.001 A 
HETATM   21  C   UNL     1     -39.506  49.571 -52.963  1.00  0.00     0.001 A 
ENDBRANCH  11  12
ENDBRANCH   9  11
ENDBRANCH   6   9
ENDBRANCH   1   5
BRANCH   2  22
HETATM   22  C   UNL     1     -41.724  60.628 -58.563  1.00  0.00     0.105 C 
BRANCH  22  23
HETATM   23  C   UNL     1     -42.983  61.096 -59.289  1.00  0.00     0.014 C 
BRANCH  23  24
HETATM   24  C   UNL     1     -43.175  60.339 -60.604  1.00  0.00     0.039 C 
BRANCH  24  25
HETATM   25  C   UNL     1     -43.993  59.083 -60.416  1.00  0.00    -0.056 A 
HETATM   26  C   UNL     1     -43.358  57.831 -60.347  1.00  0.00     0.039 A 
HETATM   27  C   UNL     1     -44.163  56.731 -60.158  1.00  0.00     0.063 A 
HETATM   28  C   UNL     1     -45.547  56.834 -60.033  1.00  0.00     0.063 A 
HETATM   29  N   UNL     1     -43.823  55.388 -60.052  1.00  0.00    -0.306 N 
HETATM   30  N   UNL     1     -46.057  55.554 -59.852  1.00  0.00    -0.307 N 
HETATM   31  C   UNL     1     -46.200  58.040 -60.090  1.00  0.00     0.032 A 
HETATM   32  C   UNL     1     -44.994  54.640 -59.861  1.00  0.00     0.325 A 
HETATM   33  H   UNL     1     -47.021  55.291 -59.728  1.00  0.00     0.170 HD
HETATM   34  O   UNL     1     -45.073  53.432 -59.728  1.00  0.00    -0.247 OA
HETATM   35  C   UNL     1     -45.404  59.177 -60.281  1.00  0.00     0.009 A 
HETATM   36  H   UNL     1     -42.902  54.985 -60.095  1.00  0.00     0.170 HD
ENDBRANCH  24  25
ENDBRANCH  23  24
ENDBRANCH  22  23
ENDBRANCH   2  22
TORSDOF 8
ENDMDL
MODEL 6
REMARK VINA RESULT:      -9.0      4.897      8.381
REMARK  8 active torsions:
REMARK  status: ('A' for Active; 'I' for Inactive)
REMARK    1  A    between atoms: C_2  and  O_3 
REMARK    2  A    between atoms: C_2  and  C_14 
REMARK    3  A    between atoms: O_3  and  C_4 
REMARK       I    between atoms: C_14  and  N_15 
REMARK    4  A    between atoms: N_15  and  N_16 
REMARK       I    between atoms: N_16  and  C_17 
REMARK    5  A    between atoms: C_17  and  C_18 
REMARK    6  A    between atoms: C_18  and  C_19 
REMARK    7  A    between atoms: C_19  and  C_20 
REMARK    8  A    between atoms: C_20  and  C_21 
ROOT
HETATM    1  N   UNL     1     -45.076  57.430 -52.777  1.00  0.00    -0.267 N 
HETATM    2  C   UNL     1     -44.711  57.487 -51.444  1.00  0.00     0.236 C 
HETATM    3  O   UNL     1     -44.134  56.566 -50.871  1.00  0.00    -0.272 OA
HETATM    4  H   UNL     1     -45.241  58.293 -53.295  1.00  0.00     0.190 HD
ENDROOT
BRANCH   1   5
HETATM    5  N   UNL     1     -44.518  56.387 -53.545  1.00  0.00    -0.265 N 
HETATM    6  C   UNL     1     -43.483  56.731 -54.402  1.00  0.00     0.265 C 
HETATM    7  O   UNL     1     -43.230  57.902 -54.684  1.00  0.00    -0.269 OA
HETATM    8  H   UNL     1     -44.453  55.482 -53.072  1.00  0.00     0.190 HD
BRANCH   6   9
HETATM    9  C   UNL     1     -42.783  55.520 -55.036  1.00  0.00     0.218 C 
HETATM   10  C   UNL     1     -42.847  55.613 -56.556  1.00  0.00     0.050 C 
BRANCH   9  11
HETATM   11  O   UNL     1     -41.417  55.522 -54.608  1.00  0.00    -0.337 OA
BRANCH  11  12
HETATM   12  C   UNL     1     -40.990  54.519 -53.784  1.00  0.00     0.070 A 
HETATM   13  C   UNL     1     -40.783  53.291 -54.422  1.00  0.00     0.049 A 
HETATM   14  C   UNL     1     -40.345  52.163 -53.708  1.00  0.00    -0.023 A 
HETATM   15  C   UNL     1     -40.118  52.273 -52.319  1.00  0.00    -0.026 A 
HETATM   16  C   UNL     1     -40.126  50.930 -54.343  1.00  0.00     0.012 A 
HETATM   17  C   UNL     1     -40.342  53.504 -51.686  1.00  0.00     0.015 A 
HETATM   18  C   UNL     1     -39.681  51.147 -51.601  1.00  0.00     0.012 A 
HETATM   19  C   UNL     1     -40.776  54.618 -52.412  1.00  0.00     0.037 A 
HETATM   20  C   UNL     1     -39.468  49.929 -52.248  1.00  0.00     0.001 A 
HETATM   21  C   UNL     1     -39.690  49.821 -53.618  1.00  0.00     0.001 A 
ENDBRANCH  11  12
ENDBRANCH   9  11
ENDBRANCH   6   9
ENDBRANCH   1   5
BRANCH   2  22
HETATM   22  C   UNL     1     -45.154  58.767 -50.764  1.00  0.00     0.105 C 
BRANCH  22  23
HETATM   23  C   UNL     1     -44.343  59.974 -51.231  1.00  0.00     0.014 C 
BRANCH  23  24
HETATM   24  C   UNL     1     -43.843  60.796 -50.042  1.00  0.00     0.039 C 
BRANCH  24  25
HETATM   25  C   UNL     1     -44.965  61.543 -49.362  1.00  0.00    -0.056 A 
HETATM   26  C   UNL     1     -44.978  61.677 -47.963  1.00  0.00     0.039 A 
HETATM   27  C   UNL     1     -46.021  62.385 -47.413  1.00  0.00     0.063 A 
HETATM   28  C   UNL     1     -47.027  62.955 -48.190  1.00  0.00     0.063 A 
HETATM   29  N   UNL     1     -46.294  62.676 -46.081  1.00  0.00    -0.306 N 
HETATM   30  N   UNL     1     -47.918  63.596 -47.337  1.00  0.00    -0.307 N 
HETATM   31  C   UNL     1     -47.043  62.850 -49.559  1.00  0.00     0.032 A 
HETATM   32  C   UNL     1     -47.474  63.431 -46.017  1.00  0.00     0.325 A 
HETATM   33  H   UNL     1     -48.749  64.104 -47.590  1.00  0.00     0.170 HD
HETATM   34  O   UNL     1     -48.010  63.861 -45.012  1.00  0.00    -0.247 OA
HETATM   35  C   UNL     1     -45.992  62.135 -50.146  1.00  0.00     0.009 A 
HETATM   36  H   UNL     1     -45.755  62.411 -45.274  1.00  0.00     0.170 HD
ENDBRANCH  24  25
ENDBRANCH  23  24
ENDBRANCH  22  23
ENDBRANCH   2  22
TORSDOF 8
ENDMDL
MODEL 7
REMARK VINA RESULT:      -8.9      1.888      2.749
REMARK  8 active torsions:
REMARK  status: ('A' for Active; 'I' for Inactive)
REMARK    1  A    between atoms: C_2  and  O_3 
REMARK    2  A    between atoms: C_2  and  C_14 
REMARK    3  A    between atoms: O_3  and  C_4 
REMARK       I    between atoms: C_14  and  N_15 
REMARK    4  A    between atoms: N_15  and  N_16 
REMARK       I    between atoms: N_16  and  C_17 
REMARK    5  A    between atoms: C_17  and  C_18 
REMARK    6  A    between atoms: C_18  and  C_19 
REMARK    7  A    between atoms: C_19  and  C_20 
REMARK    8  A    between atoms: C_20  and  C_21 
ROOT
HETATM    1  N   UNL     1     -42.635  59.595 -55.533  1.00  0.00    -0.267 N 
HETATM    2  C   UNL     1     -42.248  60.330 -56.640  1.00  0.00     0.236 C 
HETATM    3  O   UNL     1     -41.422  59.925 -57.453  1.00  0.00    -0.272 OA
HETATM    4  H   UNL     1     -43.527  59.793 -55.079  1.00  0.00     0.190 HD
ENDROOT
BRANCH   1   5
HETATM    5  N   UNL     1     -42.256  58.238 -55.508  1.00  0.00    -0.265 N 
HETATM    6  C   UNL     1     -43.281  57.304 -55.563  1.00  0.00     0.265 C 
HETATM    7  O   UNL     1     -44.458  57.616 -55.379  1.00  0.00    -0.269 OA
HETATM    8  H   UNL     1     -41.393  58.014 -56.011  1.00  0.00     0.190 HD
BRANCH   6   9
HETATM    9  C   UNL     1     -42.790  55.862 -55.753  1.00  0.00     0.218 C 
HETATM   10  C   UNL     1     -42.924  55.451 -57.215  1.00  0.00     0.050 C 
BRANCH   9  11
HETATM   11  O   UNL     1     -41.415  55.805 -55.359  1.00  0.00    -0.337 OA
BRANCH  11  12
HETATM   12  C   UNL     1     -41.057  54.941 -54.363  1.00  0.00     0.070 A 
HETATM   13  C   UNL     1     -40.739  53.650 -54.799  1.00  0.00     0.049 A 
HETATM   14  C   UNL     1     -40.353  52.649 -53.893  1.00  0.00    -0.023 A 
HETATM   15  C   UNL     1     -40.296  52.951 -52.515  1.00  0.00    -0.026 A 
HETATM   16  C   UNL     1     -40.022  51.354 -54.325  1.00  0.00     0.012 A 
HETATM   17  C   UNL     1     -40.631  54.244 -52.086  1.00  0.00     0.015 A 
HETATM   18  C   UNL     1     -39.911  51.952 -51.605  1.00  0.00     0.012 A 
HETATM   19  C   UNL     1     -41.011  55.230 -53.002  1.00  0.00     0.037 A 
HETATM   20  C   UNL     1     -39.585  50.670 -52.052  1.00  0.00     0.001 A 
HETATM   21  C   UNL     1     -39.641  50.372 -53.410  1.00  0.00     0.001 A 
ENDBRANCH  11  12
ENDBRANCH   9  11
ENDBRANCH   6   9
ENDBRANCH   1   5
BRANCH   2  22
HETATM   22  C   UNL     1     -42.903  61.696 -56.700  1.00  0.00     0.105 C 
BRANCH  22  23
HETATM   23  C   UNL     1     -44.419  61.599 -56.860  1.00  0.00     0.014 C 
BRANCH  23  24
HETATM   24  C   UNL     1     -44.808  61.413 -58.327  1.00  0.00     0.039 C 
BRANCH  24  25
HETATM   25  C   UNL     1     -45.156  59.976 -58.640  1.00  0.00    -0.056 A 
HETATM   26  C   UNL     1     -44.434  59.273 -59.619  1.00  0.00     0.039 A 
HETATM   27  C   UNL     1     -44.794  57.963 -59.840  1.00  0.00     0.063 A 
HETATM   28  C   UNL     1     -45.820  57.343 -59.131  1.00  0.00     0.063 A 
HETATM   29  N   UNL     1     -44.269  57.035 -60.731  1.00  0.00    -0.306 N 
HETATM   30  N   UNL     1     -45.928  56.034 -59.587  1.00  0.00    -0.307 N 
HETATM   31  C   UNL     1     -46.542  57.997 -58.164  1.00  0.00     0.032 A 
HETATM   32  C   UNL     1     -44.965  55.826 -60.586  1.00  0.00     0.325 A 
HETATM   33  H   UNL     1     -46.572  55.328 -59.274  1.00  0.00     0.170 HD
HETATM   34  O   UNL     1     -44.773  54.796 -61.206  1.00  0.00    -0.247 OA
HETATM   35  C   UNL     1     -46.197  59.332 -57.918  1.00  0.00     0.009 A 
HETATM   36  H   UNL     1     -43.513  57.171 -61.382  1.00  0.00     0.170 HD
ENDBRANCH  24  25
ENDBRANCH  23  24
ENDBRANCH  22  23
ENDBRANCH   2  22
TORSDOF 8
ENDMDL
MODEL 8
REMARK VINA RESULT:      -8.7      1.657      2.862
REMARK  8 active torsions:
REMARK  status: ('A' for Active; 'I' for Inactive)
REMARK    1  A    between atoms: C_2  and  O_3 
REMARK    2  A    between atoms: C_2  and  C_14 
REMARK    3  A    between atoms: O_3  and  C_4 
REMARK       I    between atoms: C_14  and  N_15 
REMARK    4  A    between atoms: N_15  and  N_16 
REMARK       I    between atoms: N_16  and  C_17 
REMARK    5  A    between atoms: C_17  and  C_18 
REMARK    6  A    between atoms: C_18  and  C_19 
REMARK    7  A    between atoms: C_19  and  C_20 
REMARK    8  A    between atoms: C_20  and  C_21 
ROOT
HETATM    1  N   UNL     1     -42.093  58.824 -56.638  1.00  0.00    -0.267 N 
HETATM    2  C   UNL     1     -42.579  60.078 -56.964  1.00  0.00     0.236 C 
HETATM    3  O   UNL     1     -43.611  60.538 -56.483  1.00  0.00    -0.272 OA
HETATM    4  H   UNL     1     -41.106  58.609 -56.781  1.00  0.00     0.190 HD
ENDROOT
BRANCH   1   5
HETATM    5  N   UNL     1     -42.671  58.190 -55.519  1.00  0.00    -0.265 N 
HETATM    6  C   UNL     1     -42.100  58.465 -54.284  1.00  0.00     0.265 C 
HETATM    7  O   UNL     1     -41.002  59.012 -54.180  1.00  0.00    -0.269 OA
HETATM    8  H   UNL     1     -43.689  58.087 -55.551  1.00  0.00     0.190 HD
BRANCH   6   9
HETATM    9  C   UNL     1     -42.910  57.921 -53.098  1.00  0.00     0.218 C 
HETATM   10  C   UNL     1     -44.216  58.694 -52.956  1.00  0.00     0.050 C 
BRANCH   9  11
HETATM   11  O   UNL     1     -43.190  56.540 -53.347  1.00  0.00    -0.337 OA
BRANCH  11  12
HETATM   12  C   UNL     1     -42.349  55.599 -52.822  1.00  0.00     0.070 A 
HETATM   13  C   UNL     1     -42.033  54.551 -53.693  1.00  0.00     0.049 A 
HETATM   14  C   UNL     1     -41.181  53.506 -53.298  1.00  0.00    -0.023 A 
HETATM   15  C   UNL     1     -40.643  53.512 -51.993  1.00  0.00    -0.026 A 
HETATM   16  C   UNL     1     -40.851  52.456 -54.171  1.00  0.00     0.012 A 
HETATM   17  C   UNL     1     -40.978  54.560 -51.122  1.00  0.00     0.015 A 
HETATM   18  C   UNL     1     -39.792  52.469 -51.593  1.00  0.00     0.012 A 
HETATM   19  C   UNL     1     -41.826  55.593 -51.532  1.00  0.00     0.037 A 
HETATM   20  C   UNL     1     -39.474  51.433 -52.473  1.00  0.00     0.001 A 
HETATM   21  C   UNL     1     -40.003  51.427 -53.761  1.00  0.00     0.001 A 
ENDBRANCH  11  12
ENDBRANCH   9  11
ENDBRANCH   6   9
ENDBRANCH   1   5
BRANCH   2  22
HETATM   22  C   UNL     1     -41.741  60.781 -58.013  1.00  0.00     0.105 C 
BRANCH  22  23
HETATM   23  C   UNL     1     -42.462  60.875 -59.356  1.00  0.00     0.014 C 
BRANCH  23  24
HETATM   24  C   UNL     1     -42.091  59.703 -60.265  1.00  0.00     0.039 C 
BRANCH  24  25
HETATM   25  C   UNL     1     -43.092  58.576 -60.167  1.00  0.00    -0.056 A 
HETATM   26  C   UNL     1     -42.654  57.261 -59.931  1.00  0.00     0.039 A 
HETATM   27  C   UNL     1     -43.622  56.288 -59.837  1.00  0.00     0.063 A 
HETATM   28  C   UNL     1     -44.980  56.572 -59.962  1.00  0.00     0.063 A 
HETATM   29  N   UNL     1     -43.491  54.922 -59.613  1.00  0.00    -0.306 N 
HETATM   30  N   UNL     1     -45.684  55.383 -59.816  1.00  0.00    -0.307 N 
HETATM   31  C   UNL     1     -45.444  57.845 -60.186  1.00  0.00     0.032 A 
HETATM   32  C   UNL     1     -44.768  54.343 -59.597  1.00  0.00     0.325 A 
HETATM   33  H   UNL     1     -46.681  55.253 -59.852  1.00  0.00     0.170 HD
HETATM   34  O   UNL     1     -45.032  53.167 -59.426  1.00  0.00    -0.247 OA
HETATM   35  C   UNL     1     -44.480  58.856 -60.286  1.00  0.00     0.009 A 
HETATM   36  H   UNL     1     -42.639  54.404 -59.476  1.00  0.00     0.170 HD
ENDBRANCH  24  25
ENDBRANCH  23  24
ENDBRANCH  22  23
ENDBRANCH   2  22
TORSDOF 8
ENDMDL
MODEL 9
REMARK VINA RESULT:      -8.7      6.707     10.514
REMARK  8 active torsions:
REMARK  status: ('A' for Active; 'I' for Inactive)
REMARK    1  A    between atoms: C_2  and  O_3 
REMARK    2  A    between atoms: C_2  and  C_14 
REMARK    3  A    between atoms: O_3  and  C_4 
REMARK       I    between atoms: C_14  and  N_15 
REMARK    4  A    between atoms: N_15  and  N_16 
REMARK       I    between atoms: N_16  and  C_17 
REMARK    5  A    between atoms: C_17  and  C_18 
REMARK    6  A    between atoms: C_18  and  C_19 
REMARK    7  A    between atoms: C_19  and  C_20 
REMARK    8  A    between atoms: C_20  and  C_21 
ROOT
HETATM    1  N   UNL     1     -44.191  61.195 -50.237  1.00  0.00    -0.267 N 
HETATM    2  C   UNL     1     -45.447  60.880 -49.749  1.00  0.00     0.236 C 
HETATM    3  O   UNL     1     -45.814  59.724 -49.554  1.00  0.00    -0.272 OA
HETATM    4  H   UNL     1     -43.804  62.126 -50.079  1.00  0.00     0.190 HD
ENDROOT
BRANCH   1   5
HETATM    5  N   UNL     1     -43.234  60.160 -50.247  1.00  0.00    -0.265 N 
HETATM    6  C   UNL     1     -42.550  59.956 -51.437  1.00  0.00     0.265 C 
HETATM    7  O   UNL     1     -42.923  60.456 -52.498  1.00  0.00    -0.269 OA
HETATM    8  H   UNL     1     -42.706  60.043 -49.378  1.00  0.00     0.190 HD
BRANCH   6   9
HETATM    9  C   UNL     1     -41.379  58.970 -51.311  1.00  0.00     0.218 C 
HETATM   10  C   UNL     1     -40.578  59.265 -50.049  1.00  0.00     0.050 C 
BRANCH   9  11
HETATM   11  O   UNL     1     -41.919  57.646 -51.243  1.00  0.00    -0.337 OA
BRANCH  11  12
HETATM   12  C   UNL     1     -41.539  56.737 -52.191  1.00  0.00     0.070 A 
HETATM   13  C   UNL     1     -41.251  55.463 -51.693  1.00  0.00     0.049 A 
HETATM   14  C   UNL     1     -40.846  54.421 -52.543  1.00  0.00    -0.023 A 
HETATM   15  C   UNL     1     -40.720  54.672 -53.927  1.00  0.00    -0.026 A 
HETATM   16  C   UNL     1     -40.565  53.136 -52.051  1.00  0.00     0.012 A 
HETATM   17  C   UNL     1     -40.997  55.957 -54.416  1.00  0.00     0.015 A 
HETATM   18  C   UNL     1     -40.314  53.633 -54.782  1.00  0.00     0.012 A 
HETATM   19  C   UNL     1     -41.401  56.982 -53.555  1.00  0.00     0.037 A 
HETATM   20  C   UNL     1     -40.039  52.361 -54.275  1.00  0.00     0.001 A 
HETATM   21  C   UNL     1     -40.165  52.114 -52.912  1.00  0.00     0.001 A 
ENDBRANCH  11  12
ENDBRANCH   9  11
ENDBRANCH   6   9
ENDBRANCH   1   5
BRANCH   2  22
HETATM   22  C   UNL     1     -46.324  62.098 -49.545  1.00  0.00     0.105 C 
BRANCH  22  23
HETATM   23  C   UNL     1     -45.809  62.995 -48.422  1.00  0.00     0.014 C 
BRANCH  23  24
HETATM   24  C   UNL     1     -46.622  62.798 -47.142  1.00  0.00     0.039 C 
BRANCH  24  25
HETATM   25  C   UNL     1     -45.733  62.642 -45.930  1.00  0.00    -0.056 A 
HETATM   26  C   UNL     1     -45.640  63.678 -44.985  1.00  0.00     0.039 A 
HETATM   27  C   UNL     1     -44.826  63.461 -43.897  1.00  0.00     0.063 A 
HETATM   28  C   UNL     1     -44.120  62.273 -43.720  1.00  0.00     0.063 A 
HETATM   29  N   UNL     1     -44.542  64.291 -42.819  1.00  0.00    -0.306 N 
HETATM   30  N   UNL     1     -43.402  62.372 -42.534  1.00  0.00    -0.307 N 
HETATM   31  C   UNL     1     -44.192  61.238 -44.619  1.00  0.00     0.032 A 
HETATM   32  C   UNL     1     -43.655  63.626 -41.960  1.00  0.00     0.325 A 
HETATM   33  H   UNL     1     -42.797  61.680 -42.125  1.00  0.00     0.170 HD
HETATM   34  O   UNL     1     -43.194  64.053 -40.917  1.00  0.00    -0.247 OA
HETATM   35  C   UNL     1     -45.015  61.431 -45.736  1.00  0.00     0.009 A 
HETATM   36  H   UNL     1     -44.898  65.216 -42.649  1.00  0.00     0.170 HD
ENDBRANCH  24  25
ENDBRANCH  23  24
ENDBRANCH  22  23
ENDBRANCH   2  22
TORSDOF 8
ENDMDL
MODEL 10
REMARK VINA RESULT:      -8.5      1.595      2.206
REMARK  8 active torsions:
REMARK  status: ('A' for Active; 'I' for Inactive)
REMARK    1  A    between atoms: C_2  and  O_3 
REMARK    2  A    between atoms: C_2  and  C_14 
REMARK    3  A    between atoms: O_3  and  C_4 
REMARK       I    between atoms: C_14  and  N_15 
REMARK    4  A    between atoms: N_15  and  N_16 
REMARK       I    between atoms: N_16  and  C_17 
REMARK    5  A    between atoms: C_17  and  C_18 
REMARK    6  A    between atoms: C_18  and  C_19 
REMARK    7  A    between atoms: C_19  and  C_20 
REMARK    8  A    between atoms: C_20  and  C_21 
ROOT
HETATM    1  N   UNL     1     -42.696  60.067 -53.795  1.00  0.00    -0.267 N 
HETATM    2  C   UNL     1     -43.930  60.065 -54.422  1.00  0.00     0.236 C 
HETATM    3  O   UNL     1     -44.657  59.076 -54.457  1.00  0.00    -0.272 OA
HETATM    4  H   UNL     1     -42.279  60.950 -53.499  1.00  0.00     0.190 HD
ENDROOT
BRANCH   1   5
HETATM    5  N   UNL     1     -42.410  58.975 -52.951  1.00  0.00    -0.265 N 
HETATM    6  C   UNL     1     -41.070  58.686 -52.740  1.00  0.00     0.265 C 
HETATM    7  O   UNL     1     -40.180  59.169 -53.440  1.00  0.00    -0.269 OA
HETATM    8  H   UNL     1     -43.045  58.857 -52.157  1.00  0.00     0.190 HD
BRANCH   6   9
HETATM    9  C   UNL     1     -40.833  57.634 -51.646  1.00  0.00     0.218 C 
HETATM   10  C   UNL     1     -40.973  58.269 -50.269  1.00  0.00     0.050 C 
BRANCH   9  11
HETATM   11  O   UNL     1     -41.810  56.601 -51.805  1.00  0.00    -0.337 OA
BRANCH  11  12
HETATM   12  C   UNL     1     -41.461  55.472 -52.492  1.00  0.00     0.070 A 
HETATM   13  C   UNL     1     -40.877  54.471 -51.709  1.00  0.00     0.049 A 
HETATM   14  C   UNL     1     -40.463  53.253 -52.272  1.00  0.00    -0.023 A 
HETATM   15  C   UNL     1     -40.634  53.041 -53.658  1.00  0.00    -0.026 A 
HETATM   16  C   UNL     1     -39.885  52.239 -51.490  1.00  0.00     0.012 A 
HETATM   17  C   UNL     1     -41.207  54.056 -54.437  1.00  0.00     0.015 A 
HETATM   18  C   UNL     1     -40.221  51.824 -54.225  1.00  0.00     0.012 A 
HETATM   19  C   UNL     1     -41.615  55.263 -53.860  1.00  0.00     0.037 A 
HETATM   20  C   UNL     1     -39.649  50.827 -53.433  1.00  0.00     0.001 A 
HETATM   21  C   UNL     1     -39.481  51.035 -52.067  1.00  0.00     0.001 A 
ENDBRANCH  11  12
ENDBRANCH   9  11
ENDBRANCH   6   9
ENDBRANCH   1   5
BRANCH   2  22
HETATM   22  C   UNL     1     -44.248  61.381 -55.103  1.00  0.00     0.105 C 
BRANCH  22  23
HETATM   23  C   UNL     1     -43.262  61.700 -56.225  1.00  0.00     0.014 C 
BRANCH  23  24
HETATM   24  C   UNL     1     -43.851  61.350 -57.593  1.00  0.00     0.039 C 
BRANCH  24  25
HETATM   25  C   UNL     1     -43.471  59.955 -58.029  1.00  0.00    -0.056 A 
HETATM   26  C   UNL     1     -44.446  58.945 -58.091  1.00  0.00     0.039 A 
HETATM   27  C   UNL     1     -44.033  57.702 -58.513  1.00  0.00     0.063 A 
HETATM   28  C   UNL     1     -42.714  57.438 -58.872  1.00  0.00     0.063 A 
HETATM   29  N   UNL     1     -44.762  56.529 -58.671  1.00  0.00    -0.306 N 
HETATM   30  N   UNL     1     -42.630  56.103 -59.249  1.00  0.00    -0.307 N 
HETATM   31  C   UNL     1     -41.736  58.401 -58.829  1.00  0.00     0.032 A 
HETATM   32  C   UNL     1     -43.901  55.522 -59.130  1.00  0.00     0.325 A 
HETATM   33  H   UNL     1     -41.814  55.605 -59.564  1.00  0.00     0.170 HD
HETATM   34  O   UNL     1     -44.198  54.367 -59.377  1.00  0.00    -0.247 OA
HETATM   35  C   UNL     1     -42.129  59.676 -58.404  1.00  0.00     0.009 A 
HETATM   36  H   UNL     1     -45.744  56.391 -58.499  1.00  0.00     0.170 HD
ENDBRANCH  24  25
ENDBRANCH  23  24
ENDBRANCH  22  23
ENDBRANCH   2  22
TORSDOF 8
ENDMDL
