MODEL 1
REMARK VINA RESULT:      -9.1      0.000      0.000
REMARK  2 active torsions:
REMARK  status: ('A' for Active; 'I' for Inactive)
REMARK    1  A    between atoms: C_2  and  N_3 
REMARK       I    between atoms: N_3  and  C_4 
REMARK    2  A    between atoms: C_4  and  C_5 
ROOT
HETATM    1  C   UNL     1     -42.882  56.461 -54.671  1.00  0.00     0.032 A 
HETATM    2  C   UNL     1     -42.717  55.369 -55.514  1.00  0.00     0.036 A 
HETATM    3  C   UNL     1     -41.886  54.324 -55.099  1.00  0.00     0.049 A 
HETATM    4  C   UNL     1     -41.276  54.324 -53.827  1.00  0.00     0.061 A 
HETATM    5  C   UNL     1     -41.492  55.404 -52.962  1.00  0.00     0.050 A 
HETATM    6  N   UNL     1     -41.005  55.535 -51.651  1.00  0.00    -0.324 N 
HETATM    7  C   UNL     1     -40.732  54.555 -50.737  1.00  0.00     0.245 C 
HETATM    8  O   UNL     1     -40.481  54.896 -49.579  1.00  0.00    -0.271 OA
HETATM    9  C   UNL     1     -40.965  53.103 -51.142  1.00  0.00     0.180 C 
HETATM   10  N   UNL     1     -40.155  52.743 -52.295  1.00  0.00    -0.334 N 
HETATM   11  C   UNL     1     -40.335  53.202 -53.576  1.00  0.00     0.256 C 
HETATM   12  O   UNL     1     -39.752  52.700 -54.536  1.00  0.00    -0.267 OA
HETATM   13  C   UNL     1     -40.532  52.117 -50.048  1.00  0.00     0.037 C 
HETATM   14  C   UNL     1     -40.021  50.918 -50.834  1.00  0.00     0.022 C 
HETATM   15  C   UNL     1     -39.341  51.570 -52.026  1.00  0.00     0.127 C 
HETATM   16  C   UNL     1     -42.261  56.486 -53.417  1.00  0.00     0.033 A 
HETATM   17  H   UNL     1     -41.032  56.452 -51.220  1.00  0.00     0.169 HD
ENDROOT
BRANCH   2  18
HETATM   18  N   UNL     1     -43.342  55.242 -56.762  1.00  0.00    -0.322 N 
HETATM   19  C   UNL     1     -43.210  56.053 -57.873  1.00  0.00     0.277 C 
HETATM   20  O   UNL     1     -42.464  57.020 -57.987  1.00  0.00    -0.266 OA
HETATM   21  H   UNL     1     -44.050  54.518 -56.881  1.00  0.00     0.169 HD
BRANCH  19  22
HETATM   22  C   UNL     1     -44.130  55.652 -58.951  1.00  0.00     0.153 A 
HETATM   23  N   UNL     1     -44.091  54.409 -59.508  1.00  0.00    -0.169 NA
HETATM   24  N   UNL     1     -45.085  54.414 -60.437  1.00  0.00    -0.281 N 
HETATM   25  H   UNL     1     -45.241  53.578 -60.992  1.00  0.00     0.189 HD
HETATM   26  C   UNL     1     -45.740  55.590 -60.454  1.00  0.00     0.036 A 
HETATM   27  C   UNL     1     -45.162  56.402 -59.529  1.00  0.00     0.002 A 
HETATM   28  C   UNL     1     -46.880  56.170 -61.173  1.00  0.00     0.059 C 
HETATM   29  C   UNL     1     -45.826  57.712 -59.456  1.00  0.00     0.043 C 
HETATM   30  C   UNL     1     -47.130  57.450 -60.295  1.00  0.00     0.011 C 
ENDBRANCH  19  22
ENDBRANCH   2  18
TORSDOF 2
ENDMDL
MODEL 2
REMARK VINA RESULT:      -8.7      2.483      8.482
REMARK  2 active torsions:
REMARK  status: ('A' for Active; 'I' for Inactive)
REMARK    1  A    between atoms: C_2  and  N_3 
REMARK       I    between atoms: N_3  and  C_4 
REMARK    2  A    between atoms: C_4  and  C_5 
ROOT
HETATM    1  C   UNL     1     -44.128  56.672 -53.958  1.00  0.00     0.032 A 
HETATM    2  C   UNL     1     -43.159  55.819 -54.472  1.00  0.00     0.036 A 
HETATM    3  C   UNL     1     -42.868  55.882 -55.837  1.00  0.00     0.049 A 
HETATM    4  C   UNL     1     -43.481  56.831 -56.681  1.00  0.00     0.061 A 
HETATM    5  C   UNL     1     -44.418  57.724 -56.145  1.00  0.00     0.050 A 
HETATM    6  N   UNL     1     -45.077  58.757 -56.831  1.00  0.00    -0.324 N 
HETATM    7  C   UNL     1     -44.638  59.493 -57.897  1.00  0.00     0.245 C 
HETATM    8  O   UNL     1     -45.303  60.474 -58.236  1.00  0.00    -0.271 OA
HETATM    9  C   UNL     1     -43.253  59.193 -58.463  1.00  0.00     0.180 C 
HETATM   10  N   UNL     1     -43.162  57.816 -58.924  1.00  0.00    -0.334 N 
HETATM   11  C   UNL     1     -43.154  56.701 -58.125  1.00  0.00     0.256 C 
HETATM   12  O   UNL     1     -42.865  55.588 -58.562  1.00  0.00    -0.267 OA
HETATM   13  C   UNL     1     -42.938  60.035 -59.706  1.00  0.00     0.037 C 
HETATM   14  C   UNL     1     -42.086  59.104 -60.557  1.00  0.00     0.022 C 
HETATM   15  C   UNL     1     -42.727  57.750 -60.309  1.00  0.00     0.127 C 
HETATM   16  C   UNL     1     -44.764  57.600 -54.790  1.00  0.00     0.033 A 
HETATM   17  H   UNL     1     -45.893  59.174 -56.398  1.00  0.00     0.169 HD
ENDROOT
BRANCH   2  18
HETATM   18  N   UNL     1     -42.440  54.896 -53.699  1.00  0.00    -0.322 N 
HETATM   19  C   UNL     1     -41.430  55.144 -52.788  1.00  0.00     0.277 C 
HETATM   20  O   UNL     1     -41.009  56.244 -52.446  1.00  0.00    -0.266 OA
HETATM   21  H   UNL     1     -42.598  53.901 -53.855  1.00  0.00     0.169 HD
BRANCH  19  22
HETATM   22  C   UNL     1     -40.846  53.894 -52.273  1.00  0.00     0.153 A 
HETATM   23  N   UNL     1     -40.716  53.655 -50.938  1.00  0.00    -0.169 NA
HETATM   24  N   UNL     1     -40.163  52.415 -50.860  1.00  0.00    -0.281 N 
HETATM   25  H   UNL     1     -39.965  52.022 -49.945  1.00  0.00     0.189 HD
HETATM   26  C   UNL     1     -39.971  51.881 -52.081  1.00  0.00     0.036 A 
HETATM   27  C   UNL     1     -40.389  52.790 -53.003  1.00  0.00     0.002 A 
HETATM   28  C   UNL     1     -39.470  50.615 -52.630  1.00  0.00     0.059 C 
HETATM   29  C   UNL     1     -40.239  52.287 -54.377  1.00  0.00     0.043 C 
HETATM   30  C   UNL     1     -39.939  50.764 -54.123  1.00  0.00     0.011 C 
ENDBRANCH  19  22
ENDBRANCH   2  18
TORSDOF 2
ENDMDL
MODEL 3
REMARK VINA RESULT:      -8.5      5.413      8.722
REMARK  2 active torsions:
REMARK  status: ('A' for Active; 'I' for Inactive)
REMARK    1  A    between atoms: C_2  and  N_3 
REMARK       I    between atoms: N_3  and  C_4 
REMARK    2  A    between atoms: C_4  and  C_5 
ROOT
HETATM    1  C   UNL     1     -40.556  58.092 -50.639  1.00  0.00     0.032 A 
HETATM    2  C   UNL     1     -41.474  57.118 -51.015  1.00  0.00     0.036 A 
HETATM    3  C   UNL     1     -42.807  57.492 -51.202  1.00  0.00     0.049 A 
HETATM    4  C   UNL     1     -43.221  58.836 -51.088  1.00  0.00     0.061 A 
HETATM    5  C   UNL     1     -42.280  59.820 -50.762  1.00  0.00     0.050 A 
HETATM    6  N   UNL     1     -42.514  61.201 -50.660  1.00  0.00    -0.324 N 
HETATM    7  C   UNL     1     -43.428  61.966 -51.333  1.00  0.00     0.245 C 
HETATM    8  O   UNL     1     -43.347  63.192 -51.225  1.00  0.00    -0.271 OA
HETATM    9  C   UNL     1     -44.346  61.280 -52.339  1.00  0.00     0.180 C 
HETATM   10  N   UNL     1     -45.152  60.252 -51.698  1.00  0.00    -0.334 N 
HETATM   11  C   UNL     1     -44.686  59.060 -51.204  1.00  0.00     0.256 C 
HETATM   12  O   UNL     1     -45.446  58.152 -50.867  1.00  0.00    -0.267 OA
HETATM   13  C   UNL     1     -45.371  62.247 -52.945  1.00  0.00     0.037 C 
HETATM   14  C   UNL     1     -46.600  61.375 -53.156  1.00  0.00     0.022 C 
HETATM   15  C   UNL     1     -46.569  60.461 -51.943  1.00  0.00     0.127 C 
HETATM   16  C   UNL     1     -40.960  59.424 -50.496  1.00  0.00     0.033 A 
HETATM   17  H   UNL     1     -41.818  61.772 -50.195  1.00  0.00     0.169 HD
ENDROOT
BRANCH   2  18
HETATM   18  N   UNL     1     -41.143  55.773 -51.229  1.00  0.00    -0.322 N 
HETATM   19  C   UNL     1     -41.308  54.703 -50.369  1.00  0.00     0.277 C 
HETATM   20  O   UNL     1     -41.834  54.730 -49.261  1.00  0.00    -0.266 OA
HETATM   21  H   UNL     1     -40.646  55.522 -52.083  1.00  0.00     0.169 HD
BRANCH  19  22
HETATM   22  C   UNL     1     -40.723  53.469 -50.920  1.00  0.00     0.153 A 
HETATM   23  N   UNL     1     -40.383  52.414 -50.128  1.00  0.00    -0.169 NA
HETATM   24  N   UNL     1     -39.902  51.476 -50.987  1.00  0.00    -0.281 N 
HETATM   25  H   UNL     1     -39.576  50.590 -50.613  1.00  0.00     0.189 HD
HETATM   26  C   UNL     1     -39.955  51.900 -52.263  1.00  0.00     0.036 A 
HETATM   27  C   UNL     1     -40.466  53.160 -52.262  1.00  0.00     0.002 A 
HETATM   28  C   UNL     1     -39.634  51.354 -53.588  1.00  0.00     0.059 C 
HETATM   29  C   UNL     1     -40.584  53.707 -53.623  1.00  0.00     0.043 C 
HETATM   30  C   UNL     1     -40.340  52.423 -54.499  1.00  0.00     0.011 C 
ENDBRANCH  19  22
ENDBRANCH   2  18
TORSDOF 2
ENDMDL
MODEL 4
REMARK VINA RESULT:      -8.1     14.682     16.433
REMARK  2 active torsions:
REMARK  status: ('A' for Active; 'I' for Inactive)
REMARK    1  A    between atoms: C_2  and  N_3 
REMARK       I    between atoms: N_3  and  C_4 
REMARK    2  A    between atoms: C_4  and  C_5 
ROOT
HETATM    1  C   UNL     1     -37.185  41.952 -56.388  1.00  0.00     0.032 A 
HETATM    2  C   UNL     1     -36.436  41.043 -57.124  1.00  0.00     0.036 A 
HETATM    3  C   UNL     1     -35.216  40.604 -56.604  1.00  0.00     0.049 A 
HETATM    4  C   UNL     1     -34.768  41.008 -55.328  1.00  0.00     0.061 A 
HETATM    5  C   UNL     1     -35.555  41.883 -54.569  1.00  0.00     0.050 A 
HETATM    6  N   UNL     1     -35.282  42.339 -53.269  1.00  0.00    -0.324 N 
HETATM    7  C   UNL     1     -34.602  41.705 -52.265  1.00  0.00     0.245 C 
HETATM    8  O   UNL     1     -34.630  42.209 -51.140  1.00  0.00    -0.271 OA
HETATM    9  C   UNL     1     -34.038  40.315 -52.537  1.00  0.00     0.180 C 
HETATM   10  N   UNL     1     -33.091  40.340 -53.641  1.00  0.00    -0.334 N 
HETATM   11  C   UNL     1     -33.403  40.549 -54.961  1.00  0.00     0.256 C 
HETATM   12  O   UNL     1     -32.590  40.350 -55.863  1.00  0.00    -0.267 OA
HETATM   13  C   UNL     1     -33.229  39.772 -51.352  1.00  0.00     0.037 C 
HETATM   14  C   UNL     1     -32.133  38.953 -52.016  1.00  0.00     0.022 C 
HETATM   15  C   UNL     1     -31.811  39.773 -53.253  1.00  0.00     0.127 C 
HETATM   16  C   UNL     1     -36.739  42.382 -55.133  1.00  0.00     0.033 A 
HETATM   17  H   UNL     1     -35.799  43.140 -52.924  1.00  0.00     0.169 HD
ENDROOT
BRANCH   2  18
HETATM   18  N   UNL     1     -36.834  40.524 -58.364  1.00  0.00    -0.322 N 
HETATM   19  C   UNL     1     -37.624  39.418 -58.617  1.00  0.00     0.277 C 
HETATM   20  O   UNL     1     -38.175  38.708 -57.782  1.00  0.00    -0.266 OA
HETATM   21  H   UNL     1     -36.451  40.939 -59.213  1.00  0.00     0.169 HD
BRANCH  19  22
HETATM   22  C   UNL     1     -37.711  39.131 -60.059  1.00  0.00     0.153 A 
HETATM   23  N   UNL     1     -36.707  39.454 -60.922  1.00  0.00    -0.169 NA
HETATM   24  N   UNL     1     -37.142  39.023 -62.136  1.00  0.00    -0.281 N 
HETATM   25  H   UNL     1     -36.549  39.166 -62.948  1.00  0.00     0.189 HD
HETATM   26  C   UNL     1     -38.350  38.434 -62.049  1.00  0.00     0.036 A 
HETATM   27  C   UNL     1     -38.745  38.486 -60.749  1.00  0.00     0.002 A 
HETATM   28  C   UNL     1     -39.283  37.765 -62.963  1.00  0.00     0.059 C 
HETATM   29  C   UNL     1     -40.053  37.844 -60.547  1.00  0.00     0.043 C 
HETATM   30  C   UNL     1     -40.255  37.103 -61.920  1.00  0.00     0.011 C 
ENDBRANCH  19  22
ENDBRANCH   2  18
TORSDOF 2
ENDMDL
MODEL 5
REMARK VINA RESULT:      -8.1     14.508     16.910
REMARK  2 active torsions:
REMARK  status: ('A' for Active; 'I' for Inactive)
REMARK    1  A    between atoms: C_2  and  N_3 
REMARK       I    between atoms: N_3  and  C_4 
REMARK    2  A    between atoms: C_4  and  C_5 
ROOT
HETATM    1  C   UNL     1     -37.397  41.699 -57.923  1.00  0.00     0.032 A 
HETATM    2  C   UNL     1     -36.450  40.838 -58.463  1.00  0.00     0.036 A 
HETATM    3  C   UNL     1     -35.298  40.561 -57.723  1.00  0.00     0.049 A 
HETATM    4  C   UNL     1     -35.112  41.077 -56.423  1.00  0.00     0.061 A 
HETATM    5  C   UNL     1     -36.097  41.901 -55.863  1.00  0.00     0.050 A 
HETATM    6  N   UNL     1     -36.092  42.451 -54.572  1.00  0.00    -0.324 N 
HETATM    7  C   UNL     1     -35.533  41.948 -53.429  1.00  0.00     0.245 C 
HETATM    8  O   UNL     1     -35.798  42.504 -52.361  1.00  0.00    -0.271 OA
HETATM    9  C   UNL     1     -34.799  40.613 -53.509  1.00  0.00     0.180 C 
HETATM   10  N   UNL     1     -33.686  40.682 -54.444  1.00  0.00    -0.334 N 
HETATM   11  C   UNL     1     -33.790  40.786 -55.808  1.00  0.00     0.256 C 
HETATM   12  O   UNL     1     -32.822  40.629 -56.550  1.00  0.00    -0.267 OA
HETATM   13  C   UNL     1     -34.152  40.223 -52.173  1.00  0.00     0.037 C 
HETATM   14  C   UNL     1     -32.885  39.493 -52.593  1.00  0.00     0.022 C 
HETATM   15  C   UNL     1     -32.440  40.277 -53.816  1.00  0.00     0.127 C 
HETATM   16  C   UNL     1     -37.212  42.239 -56.645  1.00  0.00     0.033 A 
HETATM   17  H   UNL     1     -36.735  43.209 -54.371  1.00  0.00     0.169 HD
ENDROOT
BRANCH   2  18
HETATM   18  N   UNL     1     -36.581  40.215 -59.712  1.00  0.00    -0.322 N 
HETATM   19  C   UNL     1     -37.370  39.131 -60.051  1.00  0.00     0.277 C 
HETATM   20  O   UNL     1     -38.156  38.542 -59.315  1.00  0.00    -0.266 OA
HETATM   21  H   UNL     1     -35.978  40.519 -60.475  1.00  0.00     0.169 HD
BRANCH  19  22
HETATM   22  C   UNL     1     -37.136  38.702 -61.440  1.00  0.00     0.153 A 
HETATM   23  N   UNL     1     -38.076  38.860 -62.413  1.00  0.00    -0.169 NA
HETATM   24  N   UNL     1     -37.494  38.368 -63.540  1.00  0.00    -0.281 N 
HETATM   25  H   UNL     1     -38.021  38.377 -64.408  1.00  0.00     0.189 HD
HETATM   26  C   UNL     1     -36.239  37.942 -63.303  1.00  0.00     0.036 A 
HETATM   27  C   UNL     1     -35.976  38.134 -61.983  1.00  0.00     0.002 A 
HETATM   28  C   UNL     1     -35.136  37.373 -64.086  1.00  0.00     0.059 C 
HETATM   29  C   UNL     1     -34.612  37.716 -61.627  1.00  0.00     0.043 C 
HETATM   30  C   UNL     1     -33.965  37.517 -63.048  1.00  0.00     0.011 C 
ENDBRANCH  19  22
ENDBRANCH   2  18
TORSDOF 2
ENDMDL
MODEL 6
REMARK VINA RESULT:      -8.1      4.451      8.575
REMARK  2 active torsions:
REMARK  status: ('A' for Active; 'I' for Inactive)
REMARK    1  A    between atoms: C_2  and  N_3 
REMARK       I    between atoms: N_3  and  C_4 
REMARK    2  A    between atoms: C_4  and  C_5 
ROOT
HETATM    1  C   UNL     1     -44.204  56.789 -53.863  1.00  0.00     0.032 A 
HETATM    2  C   UNL     1     -43.216  56.740 -52.887  1.00  0.00     0.036 A 
HETATM    3  C   UNL     1     -43.017  57.864 -52.081  1.00  0.00     0.049 A 
HETATM    4  C   UNL     1     -43.837  59.007 -52.190  1.00  0.00     0.061 A 
HETATM    5  C   UNL     1     -44.866  59.027 -53.140  1.00  0.00     0.050 A 
HETATM    6  N   UNL     1     -45.798  60.057 -53.341  1.00  0.00    -0.324 N 
HETATM    7  C   UNL     1     -46.305  60.944 -52.431  1.00  0.00     0.245 C 
HETATM    8  O   UNL     1     -47.249  61.656 -52.780  1.00  0.00    -0.271 OA
HETATM    9  C   UNL     1     -45.826  60.851 -50.986  1.00  0.00     0.180 C 
HETATM   10  N   UNL     1     -44.386  61.040 -50.897  1.00  0.00    -0.334 N 
HETATM   11  C   UNL     1     -43.432  60.160 -51.344  1.00  0.00     0.256 C 
HETATM   12  O   UNL     1     -42.243  60.283 -51.052  1.00  0.00    -0.267 OA
HETATM   13  C   UNL     1     -46.412  61.962 -50.105  1.00  0.00     0.037 C 
HETATM   14  C   UNL     1     -45.295  62.256 -49.115  1.00  0.00     0.022 C 
HETATM   15  C   UNL     1     -44.048  62.105 -49.969  1.00  0.00     0.127 C 
HETATM   16  C   UNL     1     -45.006  57.927 -54.000  1.00  0.00     0.033 A 
HETATM   17  H   UNL     1     -46.335  60.056 -54.201  1.00  0.00     0.169 HD
ENDROOT
BRANCH   2  18
HETATM   18  N   UNL     1     -42.404  55.623 -52.651  1.00  0.00    -0.322 N 
HETATM   19  C   UNL     1     -42.638  54.557 -51.802  1.00  0.00     0.277 C 
HETATM   20  O   UNL     1     -43.646  54.368 -51.129  1.00  0.00    -0.266 OA
HETATM   21  H   UNL     1     -41.480  55.591 -53.081  1.00  0.00     0.169 HD
BRANCH  19  22
HETATM   22  C   UNL     1     -41.484  53.644 -51.746  1.00  0.00     0.153 A 
HETATM   23  N   UNL     1     -40.792  53.424 -50.593  1.00  0.00    -0.169 NA
HETATM   24  N   UNL     1     -39.829  52.526 -50.932  1.00  0.00    -0.281 N 
HETATM   25  H   UNL     1     -39.177  52.213 -50.219  1.00  0.00     0.189 HD
HETATM   26  C   UNL     1     -39.917  52.172 -52.228  1.00  0.00     0.036 A 
HETATM   27  C   UNL     1     -40.952  52.862 -52.778  1.00  0.00     0.002 A 
HETATM   28  C   UNL     1     -39.221  51.254 -53.137  1.00  0.00     0.059 C 
HETATM   29  C   UNL     1     -41.143  52.526 -54.197  1.00  0.00     0.043 C 
HETATM   30  C   UNL     1     -40.226  51.257 -54.346  1.00  0.00     0.011 C 
ENDBRANCH  19  22
ENDBRANCH   2  18
TORSDOF 2
ENDMDL
MODEL 7
REMARK VINA RESULT:      -8.0      2.897      9.005
REMARK  2 active torsions:
REMARK  status: ('A' for Active; 'I' for Inactive)
REMARK    1  A    between atoms: C_2  and  N_3 
REMARK       I    between atoms: N_3  and  C_4 
REMARK    2  A    between atoms: C_4  and  C_5 
ROOT
HETATM    1  C   UNL     1     -43.103  55.360 -57.651  1.00  0.00     0.032 A 
HETATM    2  C   UNL     1     -42.523  55.964 -56.543  1.00  0.00     0.036 A 
HETATM    3  C   UNL     1     -42.396  57.356 -56.530  1.00  0.00     0.049 A 
HETATM    4  C   UNL     1     -42.902  58.155 -57.576  1.00  0.00     0.061 A 
HETATM    5  C   UNL     1     -43.534  57.541 -58.665  1.00  0.00     0.050 A 
HETATM    6  N   UNL     1     -44.134  58.189 -59.757  1.00  0.00    -0.324 N 
HETATM    7  C   UNL     1     -44.738  59.416 -59.798  1.00  0.00     0.245 C 
HETATM    8  O   UNL     1     -45.360  59.721 -60.818  1.00  0.00    -0.271 OA
HETATM    9  C   UNL     1     -44.792  60.240 -58.516  1.00  0.00     0.180 C 
HETATM   10  N   UNL     1     -43.455  60.522 -58.017  1.00  0.00    -0.334 N 
HETATM   11  C   UNL     1     -42.591  59.605 -57.474  1.00  0.00     0.256 C 
HETATM   12  O   UNL     1     -41.566  59.944 -56.883  1.00  0.00    -0.267 OA
HETATM   13  C   UNL     1     -45.417  61.623 -58.739  1.00  0.00     0.037 C 
HETATM   14  C   UNL     1     -44.658  62.516 -57.768  1.00  0.00     0.022 C 
HETATM   15  C   UNL     1     -43.251  61.948 -57.829  1.00  0.00     0.127 C 
HETATM   16  C   UNL     1     -43.585  56.139 -58.709  1.00  0.00     0.033 A 
HETATM   17  H   UNL     1     -44.346  57.639 -60.582  1.00  0.00     0.169 HD
ENDROOT
BRANCH   2  18
HETATM   18  N   UNL     1     -42.061  55.262 -55.421  1.00  0.00    -0.322 N 
HETATM   19  C   UNL     1     -42.803  54.666 -54.418  1.00  0.00     0.277 C 
HETATM   20  O   UNL     1     -44.026  54.596 -54.357  1.00  0.00    -0.266 OA
HETATM   21  H   UNL     1     -41.058  55.231 -55.244  1.00  0.00     0.169 HD
BRANCH  19  22
HETATM   22  C   UNL     1     -41.941  54.131 -53.351  1.00  0.00     0.153 A 
HETATM   23  N   UNL     1     -42.007  54.591 -52.070  1.00  0.00    -0.169 NA
HETATM   24  N   UNL     1     -41.088  53.854 -51.389  1.00  0.00    -0.281 N 
HETATM   25  H   UNL     1     -40.956  54.030 -50.398  1.00  0.00     0.189 HD
HETATM   26  C   UNL     1     -40.485  52.954 -52.188  1.00  0.00     0.036 A 
HETATM   27  C   UNL     1     -40.996  53.100 -53.440  1.00  0.00     0.002 A 
HETATM   28  C   UNL     1     -39.481  51.894 -52.040  1.00  0.00     0.059 C 
HETATM   29  C   UNL     1     -40.412  52.139 -54.388  1.00  0.00     0.043 C 
HETATM   30  C   UNL     1     -39.664  51.154 -53.415  1.00  0.00     0.011 C 
ENDBRANCH  19  22
ENDBRANCH   2  18
TORSDOF 2
ENDMDL
MODEL 8
REMARK VINA RESULT:      -8.0      2.359      3.499
REMARK  2 active torsions:
REMARK  status: ('A' for Active; 'I' for Inactive)
REMARK    1  A    between atoms: C_2  and  N_3 
REMARK       I    between atoms: N_3  and  C_4 
REMARK    2  A    between atoms: C_4  and  C_5 
ROOT
HETATM    1  C   UNL     1     -42.734  54.600 -55.701  1.00  0.00     0.032 A 
HETATM    2  C   UNL     1     -43.478  55.510 -54.961  1.00  0.00     0.036 A 
HETATM    3  C   UNL     1     -43.429  55.438 -53.567  1.00  0.00     0.049 A 
HETATM    4  C   UNL     1     -42.593  54.516 -52.903  1.00  0.00     0.061 A 
HETATM    5  C   UNL     1     -41.804  53.637 -53.656  1.00  0.00     0.050 A 
HETATM    6  N   UNL     1     -40.886  52.700 -53.157  1.00  0.00    -0.324 N 
HETATM    7  C   UNL     1     -40.140  52.759 -52.011  1.00  0.00     0.245 C 
HETATM    8  O   UNL     1     -39.261  51.910 -51.849  1.00  0.00    -0.271 OA
HETATM    9  C   UNL     1     -40.286  53.984 -51.114  1.00  0.00     0.180 C 
HETATM   10  N   UNL     1     -41.657  54.132 -50.649  1.00  0.00    -0.334 N 
HETATM   11  C   UNL     1     -42.733  54.484 -51.424  1.00  0.00     0.256 C 
HETATM   12  O   UNL     1     -43.817  54.795 -50.932  1.00  0.00    -0.267 OA
HETATM   13  C   UNL     1     -39.457  53.866 -49.828  1.00  0.00     0.037 C 
HETATM   14  C   UNL     1     -40.305  54.589 -48.792  1.00  0.00     0.022 C 
HETATM   15  C   UNL     1     -41.718  54.210 -49.199  1.00  0.00     0.127 C 
HETATM   16  C   UNL     1     -41.922  53.662 -55.055  1.00  0.00     0.033 A 
HETATM   17  H   UNL     1     -40.557  51.972 -53.781  1.00  0.00     0.169 HD
ENDROOT
BRANCH   2  18
HETATM   18  N   UNL     1     -44.277  56.513 -55.529  1.00  0.00    -0.322 N 
HETATM   19  C   UNL     1     -43.874  57.640 -56.221  1.00  0.00     0.277 C 
HETATM   20  O   UNL     1     -42.723  57.944 -56.515  1.00  0.00    -0.266 OA
HETATM   21  H   UNL     1     -45.283  56.485 -55.368  1.00  0.00     0.169 HD
BRANCH  19  22
HETATM   22  C   UNL     1     -45.015  58.510 -56.552  1.00  0.00     0.153 A 
HETATM   23  N   UNL     1     -45.352  59.584 -55.784  1.00  0.00    -0.169 NA
HETATM   24  N   UNL     1     -46.426  60.136 -56.410  1.00  0.00    -0.281 N 
HETATM   25  H   UNL     1     -46.859  60.961 -56.006  1.00  0.00     0.189 HD
HETATM   26  C   UNL     1     -46.742  59.464 -57.533  1.00  0.00     0.036 A 
HETATM   27  C   UNL     1     -45.874  58.425 -57.655  1.00  0.00     0.002 A 
HETATM   28  C   UNL     1     -47.730  59.587 -58.612  1.00  0.00     0.059 C 
HETATM   29  C   UNL     1     -46.126  57.638 -58.872  1.00  0.00     0.043 C 
HETATM   30  C   UNL     1     -47.124  58.573 -59.650  1.00  0.00     0.011 C 
ENDBRANCH  19  22
ENDBRANCH   2  18
TORSDOF 2
ENDMDL
MODEL 9
REMARK VINA RESULT:      -7.8      2.741      3.757
REMARK  2 active torsions:
REMARK  status: ('A' for Active; 'I' for Inactive)
REMARK    1  A    between atoms: C_2  and  N_3 
REMARK       I    between atoms: N_3  and  C_4 
REMARK    2  A    between atoms: C_4  and  C_5 
ROOT
HETATM    1  C   UNL     1     -41.189  54.840 -55.925  1.00  0.00     0.032 A 
HETATM    2  C   UNL     1     -41.893  55.923 -55.414  1.00  0.00     0.036 A 
HETATM    3  C   UNL     1     -42.239  55.917 -54.060  1.00  0.00     0.049 A 
HETATM    4  C   UNL     1     -41.831  54.878 -53.197  1.00  0.00     0.061 A 
HETATM    5  C   UNL     1     -41.075  53.816 -53.709  1.00  0.00     0.050 A 
HETATM    6  N   UNL     1     -40.548  52.737 -52.981  1.00  0.00    -0.324 N 
HETATM    7  C   UNL     1     -40.144  52.702 -51.674  1.00  0.00     0.245 C 
HETATM    8  O   UNL     1     -39.544  51.699 -51.281  1.00  0.00    -0.271 OA
HETATM    9  C   UNL     1     -40.263  53.977 -50.845  1.00  0.00     0.180 C 
HETATM   10  N   UNL     1     -41.643  54.430 -50.774  1.00  0.00    -0.334 N 
HETATM   11  C   UNL     1     -42.369  54.955 -51.813  1.00  0.00     0.256 C 
HETATM   12  O   UNL     1     -43.454  55.509 -51.637  1.00  0.00    -0.267 OA
HETATM   13  C   UNL     1     -39.857  53.758 -49.381  1.00  0.00     0.037 C 
HETATM   14  C   UNL     1     -40.779  54.695 -48.614  1.00  0.00     0.022 C 
HETATM   15  C   UNL     1     -42.077  54.596 -49.397  1.00  0.00     0.127 C 
HETATM   16  C   UNL     1     -40.801  53.790 -55.085  1.00  0.00     0.033 A 
HETATM   17  H   UNL     1     -40.225  51.925 -53.495  1.00  0.00     0.169 HD
ENDROOT
BRANCH   2  18
HETATM   18  N   UNL     1     -42.276  57.037 -56.174  1.00  0.00    -0.322 N 
HETATM   19  C   UNL     1     -42.977  57.063 -57.365  1.00  0.00     0.277 C 
HETATM   20  O   UNL     1     -43.448  56.096 -57.955  1.00  0.00    -0.266 OA
HETATM   21  H   UNL     1     -41.948  57.959 -55.887  1.00  0.00     0.169 HD
BRANCH  19  22
HETATM   22  C   UNL     1     -43.074  58.427 -57.909  1.00  0.00     0.153 A 
HETATM   23  N   UNL     1     -43.510  59.476 -57.156  1.00  0.00    -0.169 NA
HETATM   24  N   UNL     1     -43.443  60.551 -57.986  1.00  0.00    -0.281 N 
HETATM   25  H   UNL     1     -43.730  61.460 -57.636  1.00  0.00     0.189 HD
HETATM   26  C   UNL     1     -42.966  60.211 -59.198  1.00  0.00     0.036 A 
HETATM   27  C   UNL     1     -42.724  58.873 -59.190  1.00  0.00     0.002 A 
HETATM   28  C   UNL     1     -42.640  60.900 -60.452  1.00  0.00     0.059 C 
HETATM   29  C   UNL     1     -42.176  58.405 -60.472  1.00  0.00     0.043 C 
HETATM   30  C   UNL     1     -41.829  59.766 -61.180  1.00  0.00     0.011 C 
ENDBRANCH  19  22
ENDBRANCH   2  18
TORSDOF 2
ENDMDL
MODEL 10
REMARK VINA RESULT:      -7.8      3.988      9.364
REMARK  2 active torsions:
REMARK  status: ('A' for Active; 'I' for Inactive)
REMARK    1  A    between atoms: C_2  and  N_3 
REMARK       I    between atoms: N_3  and  C_4 
REMARK    2  A    between atoms: C_4  and  C_5 
ROOT
HETATM    1  C   UNL     1     -42.595  56.021 -56.484  1.00  0.00     0.032 A 
HETATM    2  C   UNL     1     -43.177  57.207 -56.053  1.00  0.00     0.036 A 
HETATM    3  C   UNL     1     -43.968  57.929 -56.950  1.00  0.00     0.049 A 
HETATM    4  C   UNL     1     -44.242  57.448 -58.247  1.00  0.00     0.061 A 
HETATM    5  C   UNL     1     -43.696  56.225 -58.657  1.00  0.00     0.050 A 
HETATM    6  N   UNL     1     -43.910  55.583 -59.887  1.00  0.00    -0.324 N 
HETATM    7  C   UNL     1     -45.014  55.627 -60.695  1.00  0.00     0.245 C 
HETATM    8  O   UNL     1     -45.065  54.846 -61.647  1.00  0.00    -0.271 OA
HETATM    9  C   UNL     1     -46.201  56.476 -60.252  1.00  0.00     0.180 C 
HETATM   10  N   UNL     1     -45.821  57.872 -60.100  1.00  0.00    -0.334 N 
HETATM   11  C   UNL     1     -45.005  58.379 -59.120  1.00  0.00     0.256 C 
HETATM   12  O   UNL     1     -44.893  59.588 -58.925  1.00  0.00    -0.267 OA
HETATM   13  C   UNL     1     -47.323  56.497 -61.299  1.00  0.00     0.037 C 
HETATM   14  C   UNL     1     -47.906  57.897 -61.165  1.00  0.00     0.022 C 
HETATM   15  C   UNL     1     -46.675  58.743 -60.889  1.00  0.00     0.127 C 
HETATM   16  C   UNL     1     -42.837  55.547 -57.778  1.00  0.00     0.033 A 
HETATM   17  H   UNL     1     -43.283  54.832 -60.151  1.00  0.00     0.169 HD
ENDROOT
BRANCH   2  18
HETATM   18  N   UNL     1     -43.027  57.727 -54.759  1.00  0.00    -0.322 N 
HETATM   19  C   UNL     1     -43.781  57.453 -53.633  1.00  0.00     0.277 C 
HETATM   20  O   UNL     1     -44.703  56.648 -53.550  1.00  0.00    -0.266 OA
HETATM   21  H   UNL     1     -42.336  58.460 -54.605  1.00  0.00     0.169 HD
BRANCH  19  22
HETATM   22  C   UNL     1     -43.380  58.295 -52.494  1.00  0.00     0.153 A 
HETATM   23  N   UNL     1     -44.292  58.824 -51.630  1.00  0.00    -0.169 NA
HETATM   24  N   UNL     1     -43.550  59.512 -50.721  1.00  0.00    -0.281 N 
HETATM   25  H   UNL     1     -44.026  60.002 -49.970  1.00  0.00     0.189 HD
HETATM   26  C   UNL     1     -42.232  59.408 -50.977  1.00  0.00     0.036 A 
HETATM   27  C   UNL     1     -42.084  58.648 -52.095  1.00  0.00     0.002 A 
HETATM   28  C   UNL     1     -40.982  59.871 -50.364  1.00  0.00     0.059 C 
HETATM   29  C   UNL     1     -40.669  58.457 -52.447  1.00  0.00     0.043 C 
HETATM   30  C   UNL     1     -39.950  58.985 -51.151  1.00  0.00     0.011 C 
ENDBRANCH  19  22
ENDBRANCH   2  18
TORSDOF 2
ENDMDL
