MODEL 1
REMARK VINA RESULT:      -7.5      0.000      0.000
REMARK  4 active torsions:
REMARK  status: ('A' for Active; 'I' for Inactive)
REMARK    1  A    between atoms: C_6  and  C_7 
REMARK    2  A    between atoms: C_7  and  N_8 
REMARK    3  A    between atoms: N_8  and  C_9 
REMARK    4  A    between atoms: C_9  and  C_10 
ROOT
HETATM    1  C   UNL     1     -42.801  55.000 -56.057  1.00  0.00     0.327 C 
ENDROOT
BRANCH   1   2
HETATM    2  N   UNL     1     -41.437  54.919 -55.519  1.00  0.00     0.097 N 
HETATM    3  H   UNL     1     -40.967  54.100 -55.910  1.00  0.00     0.317 HD
BRANCH   2   4
HETATM    4  C   UNL     1     -41.429  54.751 -54.049  1.00  0.00     0.252 C 
HETATM    5  C   UNL     1     -42.829  54.817 -53.429  1.00  0.00     0.048 C 
BRANCH   4   6
HETATM    6  C   UNL     1     -40.772  53.434 -53.756  1.00  0.00     0.006 A 
HETATM    7  C   UNL     1     -40.292  52.998 -52.530  1.00  0.00     0.058 A 
HETATM    8  O   UNL     1     -39.800  51.734 -52.630  1.00  0.00    -0.320 OA
HETATM    9  C   UNL     1     -40.232  53.603 -51.182  1.00  0.00     0.077 C 
HETATM   10  C   UNL     1     -39.978  51.328 -53.914  1.00  0.00     0.050 A 
HETATM   11  C   UNL     1     -39.552  49.951 -54.237  1.00  0.00     0.076 C 
HETATM   12  C   UNL     1     -40.562  52.336 -54.648  1.00  0.00     0.044 A 
ENDBRANCH   4   6
ENDBRANCH   2   4
ENDBRANCH   1   2
BRANCH   1  13
HETATM   13  C   UNL     1     -42.819  55.868 -57.301  1.00  0.00     0.044 A 
HETATM   14  N   UNL     1     -42.356  57.160 -57.133  1.00  0.00    -0.338 N 
HETATM   15  H   UNL     1     -42.014  57.450 -56.213  1.00  0.00     0.168 HD
HETATM   16  C   UNL     1     -42.324  57.991 -58.144  1.00  0.00     0.158 A 
HETATM   17  N   UNL     1     -42.723  57.631 -59.347  1.00  0.00    -0.269 N 
HETATM   18  S   UNL     1     -41.766  59.632 -58.046  1.00  0.00    -0.064 SA
HETATM   19  C   UNL     1     -43.203  56.342 -59.655  1.00  0.00     0.255 A 
HETATM   20  C   UNL     1     -42.614  58.647 -60.274  1.00  0.00     0.109 A 
HETATM   21  O   UNL     1     -43.557  56.041 -60.779  1.00  0.00    -0.268 OA
HETATM   22  C   UNL     1     -43.224  55.430 -58.501  1.00  0.00     0.101 A 
HETATM   23  C   UNL     1     -42.123  59.783 -59.755  1.00  0.00     0.071 A 
ENDBRANCH   1  13
TORSDOF 4
ENDMDL
MODEL 2
REMARK VINA RESULT:      -7.4      1.872      2.227
REMARK  4 active torsions:
REMARK  status: ('A' for Active; 'I' for Inactive)
REMARK    1  A    between atoms: C_6  and  C_7 
REMARK    2  A    between atoms: C_7  and  N_8 
REMARK    3  A    between atoms: N_8  and  C_9 
REMARK    4  A    between atoms: C_9  and  C_10 
ROOT
HETATM    1  C   UNL     1     -42.837  54.909 -54.931  1.00  0.00     0.327 C 
ENDROOT
BRANCH   1   2
HETATM    2  N   UNL     1     -41.493  54.968 -54.341  1.00  0.00     0.097 N 
HETATM    3  H   UNL     1     -40.856  54.388 -54.893  1.00  0.00     0.317 HD
BRANCH   2   4
HETATM    4  C   UNL     1     -41.468  54.432 -52.963  1.00  0.00     0.252 C 
HETATM    5  C   UNL     1     -42.867  54.250 -52.363  1.00  0.00     0.048 C 
BRANCH   4   6
HETATM    6  C   UNL     1     -40.727  53.128 -53.005  1.00  0.00     0.006 A 
HETATM    7  C   UNL     1     -40.115  52.483 -51.941  1.00  0.00     0.058 A 
HETATM    8  O   UNL     1     -39.577  51.300 -52.343  1.00  0.00    -0.320 OA
HETATM    9  C   UNL     1     -39.955  52.804 -50.506  1.00  0.00     0.077 C 
HETATM   10  C   UNL     1     -39.858  51.153 -53.663  1.00  0.00     0.050 A 
HETATM   11  C   UNL     1     -39.402  49.900 -54.300  1.00  0.00     0.076 C 
HETATM   12  C   UNL     1     -40.553  52.250 -54.121  1.00  0.00     0.044 A 
ENDBRANCH   4   6
ENDBRANCH   2   4
ENDBRANCH   1   2
BRANCH   1  13
HETATM   13  C   UNL     1     -42.879  55.723 -56.210  1.00  0.00     0.044 A 
HETATM   14  N   UNL     1     -43.520  55.122 -57.278  1.00  0.00    -0.338 N 
HETATM   15  H   UNL     1     -43.942  54.199 -57.149  1.00  0.00     0.168 HD
HETATM   16  C   UNL     1     -43.617  55.741 -58.428  1.00  0.00     0.158 A 
HETATM   17  N   UNL     1     -43.115  56.945 -58.609  1.00  0.00    -0.269 N 
HETATM   18  S   UNL     1     -44.398  55.081 -59.832  1.00  0.00    -0.064 SA
HETATM   19  C   UNL     1     -42.450  57.672 -57.601  1.00  0.00     0.255 A 
HETATM   20  C   UNL     1     -43.318  57.423 -59.888  1.00  0.00     0.109 A 
HETATM   21  O   UNL     1     -42.005  58.786 -57.801  1.00  0.00    -0.268 OA
HETATM   22  C   UNL     1     -42.360  56.954 -56.320  1.00  0.00     0.101 A 
HETATM   23  C   UNL     1     -43.983  56.563 -60.672  1.00  0.00     0.071 A 
ENDBRANCH   1  13
TORSDOF 4
ENDMDL
MODEL 3
REMARK VINA RESULT:      -7.2      4.081      5.408
REMARK  4 active torsions:
REMARK  status: ('A' for Active; 'I' for Inactive)
REMARK    1  A    between atoms: C_6  and  C_7 
REMARK    2  A    between atoms: C_7  and  N_8 
REMARK    3  A    between atoms: N_8  and  C_9 
REMARK    4  A    between atoms: C_9  and  C_10 
ROOT
HETATM    1  C   UNL     1     -41.692  56.577 -54.711  1.00  0.00     0.327 C 
ENDROOT
BRANCH   1   2
HETATM    2  N   UNL     1     -40.897  55.388 -54.377  1.00  0.00     0.097 N 
HETATM    3  H   UNL     1     -40.788  54.809 -55.213  1.00  0.00     0.317 HD
BRANCH   2   4
HETATM    4  C   UNL     1     -41.561  54.544 -53.360  1.00  0.00     0.252 C 
HETATM    5  C   UNL     1     -43.045  54.298 -53.659  1.00  0.00     0.048 C 
BRANCH   4   6
HETATM    6  C   UNL     1     -40.805  53.249 -53.294  1.00  0.00     0.006 A 
HETATM    7  C   UNL     1     -40.162  52.716 -52.186  1.00  0.00     0.058 A 
HETATM    8  O   UNL     1     -39.618  51.506 -52.484  1.00  0.00    -0.320 OA
HETATM    9  C   UNL     1     -39.978  53.176 -50.792  1.00  0.00     0.077 C 
HETATM   10  C   UNL     1     -39.923  51.229 -53.778  1.00  0.00     0.050 A 
HETATM   11  C   UNL     1     -39.465  49.927 -54.301  1.00  0.00     0.076 C 
HETATM   12  C   UNL     1     -40.643  52.269 -54.323  1.00  0.00     0.044 A 
ENDBRANCH   4   6
ENDBRANCH   2   4
ENDBRANCH   1   2
BRANCH   1  13
HETATM   13  C   UNL     1     -41.567  57.611 -53.608  1.00  0.00     0.044 A 
HETATM   14  N   UNL     1     -42.761  58.072 -53.085  1.00  0.00    -0.338 N 
HETATM   15  H   UNL     1     -43.641  57.687 -53.440  1.00  0.00     0.168 HD
HETATM   16  C   UNL     1     -42.767  58.963 -52.126  1.00  0.00     0.158 A 
HETATM   17  N   UNL     1     -41.647  59.446 -51.625  1.00  0.00    -0.269 N 
HETATM   18  S   UNL     1     -44.204  59.610 -51.398  1.00  0.00    -0.064 SA
HETATM   19  C   UNL     1     -40.366  59.051 -52.059  1.00  0.00     0.255 A 
HETATM   20  C   UNL     1     -41.864  60.373 -50.626  1.00  0.00     0.109 A 
HETATM   21  O   UNL     1     -39.353  59.513 -51.570  1.00  0.00    -0.268 OA
HETATM   22  C   UNL     1     -40.392  58.047 -53.135  1.00  0.00     0.101 A 
HETATM   23  C   UNL     1     -43.164  60.583 -50.376  1.00  0.00     0.071 A 
ENDBRANCH   1  13
TORSDOF 4
ENDMDL
MODEL 4
REMARK VINA RESULT:      -7.1      4.035      5.282
REMARK  4 active torsions:
REMARK  status: ('A' for Active; 'I' for Inactive)
REMARK    1  A    between atoms: C_6  and  C_7 
REMARK    2  A    between atoms: C_7  and  N_8 
REMARK    3  A    between atoms: N_8  and  C_9 
REMARK    4  A    between atoms: C_9  and  C_10 
ROOT
HETATM    1  C   UNL     1     -42.279  55.575 -54.992  1.00  0.00     0.327 C 
ENDROOT
BRANCH   1   2
HETATM    2  N   UNL     1     -42.482  54.364 -54.185  1.00  0.00     0.097 N 
HETATM    3  H   UNL     1     -42.560  54.624 -53.199  1.00  0.00     0.317 HD
BRANCH   2   4
HETATM    4  C   UNL     1     -41.341  53.430 -54.288  1.00  0.00     0.252 C 
HETATM    5  C   UNL     1     -40.261  53.905 -55.268  1.00  0.00     0.048 C 
BRANCH   4   6
HETATM    6  C   UNL     1     -40.777  53.261 -52.908  1.00  0.00     0.006 A 
HETATM    7  C   UNL     1     -40.014  52.201 -52.443  1.00  0.00     0.058 A 
HETATM    8  O   UNL     1     -39.641  52.408 -51.151  1.00  0.00    -0.320 OA
HETATM    9  C   UNL     1     -39.524  50.947 -53.058  1.00  0.00     0.077 C 
HETATM   10  C   UNL     1     -40.137  53.614 -50.773  1.00  0.00     0.050 A 
HETATM   11  C   UNL     1     -39.808  54.063 -49.405  1.00  0.00     0.076 C 
HETATM   12  C   UNL     1     -40.848  54.176 -51.809  1.00  0.00     0.044 A 
ENDBRANCH   4   6
ENDBRANCH   2   4
ENDBRANCH   1   2
BRANCH   1  13
HETATM   13  C   UNL     1     -42.086  56.776 -54.086  1.00  0.00     0.044 A 
HETATM   14  N   UNL     1     -43.211  57.190 -53.397  1.00  0.00    -0.338 N 
HETATM   15  H   UNL     1     -44.083  56.668 -53.510  1.00  0.00     0.168 HD
HETATM   16  C   UNL     1     -43.152  58.215 -52.584  1.00  0.00     0.158 A 
HETATM   17  N   UNL     1     -42.031  58.881 -52.392  1.00  0.00    -0.269 N 
HETATM   18  S   UNL     1     -44.499  58.820 -51.672  1.00  0.00    -0.064 SA
HETATM   19  C   UNL     1     -40.813  58.555 -53.022  1.00  0.00     0.255 A 
HETATM   20  C   UNL     1     -42.175  59.927 -51.503  1.00  0.00     0.109 A 
HETATM   21  O   UNL     1     -39.795  59.187 -52.816  1.00  0.00    -0.268 OA
HETATM   22  C   UNL     1     -40.909  57.397 -53.925  1.00  0.00     0.101 A 
HETATM   23  C   UNL     1     -43.422  60.041 -51.022  1.00  0.00     0.071 A 
ENDBRANCH   1  13
TORSDOF 4
ENDMDL
MODEL 5
REMARK VINA RESULT:      -6.9      2.169      3.152
REMARK  4 active torsions:
REMARK  status: ('A' for Active; 'I' for Inactive)
REMARK    1  A    between atoms: C_6  and  C_7 
REMARK    2  A    between atoms: C_7  and  N_8 
REMARK    3  A    between atoms: N_8  and  C_9 
REMARK    4  A    between atoms: C_9  and  C_10 
ROOT
HETATM    1  C   UNL     1     -41.582  56.176 -54.819  1.00  0.00     0.327 C 
ENDROOT
BRANCH   1   2
HETATM    2  N   UNL     1     -42.154  55.046 -54.074  1.00  0.00     0.097 N 
HETATM    3  H   UNL     1     -42.214  55.291 -53.083  1.00  0.00     0.317 HD
BRANCH   2   4
HETATM    4  C   UNL     1     -41.306  53.838 -54.162  1.00  0.00     0.252 C 
HETATM    5  C   UNL     1     -40.158  53.980 -55.168  1.00  0.00     0.048 C 
BRANCH   4   6
HETATM    6  C   UNL     1     -40.782  53.560 -52.784  1.00  0.00     0.006 A 
HETATM    7  C   UNL     1     -40.076  52.440 -52.371  1.00  0.00     0.058 A 
HETATM    8  O   UNL     1     -39.725  52.550 -51.062  1.00  0.00    -0.320 OA
HETATM    9  C   UNL     1     -39.627  51.206 -53.053  1.00  0.00     0.077 C 
HETATM   10  C   UNL     1     -40.176  53.752 -50.619  1.00  0.00     0.050 A 
HETATM   11  C   UNL     1     -39.859  54.102 -49.219  1.00  0.00     0.076 C 
HETATM   12  C   UNL     1     -40.839  54.407 -51.633  1.00  0.00     0.044 A 
ENDBRANCH   4   6
ENDBRANCH   2   4
ENDBRANCH   1   2
BRANCH   1  13
HETATM   13  C   UNL     1     -42.567  56.660 -55.865  1.00  0.00     0.044 A 
HETATM   14  N   UNL     1     -42.351  56.194 -57.149  1.00  0.00    -0.338 N 
HETATM   15  H   UNL     1     -41.576  55.548 -57.319  1.00  0.00     0.168 HD
HETATM   16  C   UNL     1     -43.146  56.548 -58.127  1.00  0.00     0.158 A 
HETATM   17  N   UNL     1     -44.174  57.348 -57.927  1.00  0.00    -0.269 N 
HETATM   18  S   UNL     1     -42.967  56.025 -59.773  1.00  0.00    -0.064 SA
HETATM   19  C   UNL     1     -44.513  57.881 -56.667  1.00  0.00     0.255 A 
HETATM   20  C   UNL     1     -44.887  57.602 -59.081  1.00  0.00     0.109 A 
HETATM   21  O   UNL     1     -45.473  58.613 -56.517  1.00  0.00    -0.268 OA
HETATM   22  C   UNL     1     -43.604  57.464 -55.588  1.00  0.00     0.101 A 
HETATM   23  C   UNL     1     -44.385  56.980 -60.158  1.00  0.00     0.071 A 
ENDBRANCH   1  13
TORSDOF 4
ENDMDL
MODEL 6
REMARK VINA RESULT:      -6.7      2.379      3.110
REMARK  4 active torsions:
REMARK  status: ('A' for Active; 'I' for Inactive)
REMARK    1  A    between atoms: C_6  and  C_7 
REMARK    2  A    between atoms: C_7  and  N_8 
REMARK    3  A    between atoms: N_8  and  C_9 
REMARK    4  A    between atoms: C_9  and  C_10 
ROOT
HETATM    1  C   UNL     1     -44.272  56.705 -53.744  1.00  0.00     0.327 C 
ENDROOT
BRANCH   1   2
HETATM    2  N   UNL     1     -43.660  55.430 -53.350  1.00  0.00     0.097 N 
HETATM    3  H   UNL     1     -44.364  54.842 -52.899  1.00  0.00     0.317 HD
BRANCH   2   4
HETATM    4  C   UNL     1     -42.570  55.617 -52.368  1.00  0.00     0.252 C 
HETATM    5  C   UNL     1     -43.069  55.673 -50.919  1.00  0.00     0.048 C 
BRANCH   4   6
HETATM    6  C   UNL     1     -41.601  54.487 -52.558  1.00  0.00     0.006 A 
HETATM    7  C   UNL     1     -40.788  54.264 -53.660  1.00  0.00     0.058 A 
HETATM    8  O   UNL     1     -40.007  53.167 -53.465  1.00  0.00    -0.320 OA
HETATM    9  C   UNL     1     -40.594  54.968 -54.946  1.00  0.00     0.077 C 
HETATM   10  C   UNL     1     -40.286  52.684 -52.227  1.00  0.00     0.050 A 
HETATM   11  C   UNL     1     -39.508  51.508 -51.787  1.00  0.00     0.076 C 
HETATM   12  C   UNL     1     -41.262  53.451 -51.632  1.00  0.00     0.044 A 
ENDBRANCH   4   6
ENDBRANCH   2   4
ENDBRANCH   1   2
BRANCH   1  13
HETATM   13  C   UNL     1     -43.597  57.242 -54.992  1.00  0.00     0.044 A 
HETATM   14  N   UNL     1     -43.740  56.466 -56.128  1.00  0.00    -0.338 N 
HETATM   15  H   UNL     1     -44.296  55.608 -56.077  1.00  0.00     0.168 HD
HETATM   16  C   UNL     1     -43.201  56.840 -57.261  1.00  0.00     0.158 A 
HETATM   17  N   UNL     1     -42.512  57.960 -57.361  1.00  0.00    -0.269 N 
HETATM   18  S   UNL     1     -43.316  55.945 -58.743  1.00  0.00    -0.064 SA
HETATM   19  C   UNL     1     -42.304  58.846 -56.285  1.00  0.00     0.255 A 
HETATM   20  C   UNL     1     -42.025  58.175 -58.634  1.00  0.00     0.109 A 
HETATM   21  O   UNL     1     -41.669  59.875 -56.416  1.00  0.00    -0.268 OA
HETATM   22  C   UNL     1     -42.925  58.401 -55.028  1.00  0.00     0.101 A 
HETATM   23  C   UNL     1     -42.356  57.203 -59.497  1.00  0.00     0.071 A 
ENDBRANCH   1  13
TORSDOF 4
ENDMDL
MODEL 7
REMARK VINA RESULT:      -6.7      2.204      3.091
REMARK  4 active torsions:
REMARK  status: ('A' for Active; 'I' for Inactive)
REMARK    1  A    between atoms: C_6  and  C_7 
REMARK    2  A    between atoms: C_7  and  N_8 
REMARK    3  A    between atoms: N_8  and  C_9 
REMARK    4  A    between atoms: C_9  and  C_10 
ROOT
HETATM    1  C   UNL     1     -42.391  55.977 -56.120  1.00  0.00     0.327 C 
ENDROOT
BRANCH   1   2
HETATM    2  N   UNL     1     -42.680  54.610 -55.667  1.00  0.00     0.097 N 
HETATM    3  H   UNL     1     -43.500  54.622 -55.056  1.00  0.00     0.317 HD
BRANCH   2   4
HETATM    4  C   UNL     1     -41.569  54.041 -54.874  1.00  0.00     0.252 C 
HETATM    5  C   UNL     1     -40.276  54.859 -54.978  1.00  0.00     0.048 C 
BRANCH   4   6
HETATM    6  C   UNL     1     -42.036  53.955 -53.451  1.00  0.00     0.006 A 
HETATM    7  C   UNL     1     -41.374  53.353 -52.391  1.00  0.00     0.058 A 
HETATM    8  O   UNL     1     -42.076  53.506 -51.237  1.00  0.00    -0.320 OA
HETATM    9  C   UNL     1     -40.091  52.626 -52.269  1.00  0.00     0.077 C 
HETATM   10  C   UNL     1     -43.188  54.229 -51.530  1.00  0.00     0.050 A 
HETATM   11  C   UNL     1     -44.081  54.555 -50.399  1.00  0.00     0.076 C 
HETATM   12  C   UNL     1     -43.217  54.523 -52.875  1.00  0.00     0.044 A 
ENDBRANCH   4   6
ENDBRANCH   2   4
ENDBRANCH   1   2
BRANCH   1  13
HETATM   13  C   UNL     1     -43.257  56.322 -57.316  1.00  0.00     0.044 A 
HETATM   14  N   UNL     1     -44.297  57.200 -57.067  1.00  0.00    -0.338 N 
HETATM   15  H   UNL     1     -44.411  57.579 -56.123  1.00  0.00     0.168 HD
HETATM   16  C   UNL     1     -45.102  57.567 -58.032  1.00  0.00     0.158 A 
HETATM   17  N   UNL     1     -44.953  57.123 -59.263  1.00  0.00    -0.269 N 
HETATM   18  S   UNL     1     -46.436  58.660 -57.831  1.00  0.00    -0.064 SA
HETATM   19  C   UNL     1     -43.928  56.237 -59.653  1.00  0.00     0.255 A 
HETATM   20  C   UNL     1     -45.900  57.624 -60.132  1.00  0.00     0.109 A 
HETATM   21  O   UNL     1     -43.815  55.852 -60.801  1.00  0.00    -0.268 OA
HETATM   22  C   UNL     1     -43.037  55.845 -58.549  1.00  0.00     0.101 A 
HETATM   23  C   UNL     1     -46.769  58.457 -59.540  1.00  0.00     0.071 A 
ENDBRANCH   1  13
TORSDOF 4
ENDMDL
MODEL 8
REMARK VINA RESULT:      -6.6      4.815      7.911
REMARK  4 active torsions:
REMARK  status: ('A' for Active; 'I' for Inactive)
REMARK    1  A    between atoms: C_6  and  C_7 
REMARK    2  A    between atoms: C_7  and  N_8 
REMARK    3  A    between atoms: N_8  and  C_9 
REMARK    4  A    between atoms: C_9  and  C_10 
ROOT
HETATM    1  C   UNL     1     -44.094  56.773 -51.617  1.00  0.00     0.327 C 
ENDROOT
BRANCH   1   2
HETATM    2  N   UNL     1     -43.792  57.870 -50.689  1.00  0.00     0.097 N 
HETATM    3  H   UNL     1     -44.624  58.083 -50.134  1.00  0.00     0.317 HD
BRANCH   2   4
HETATM    4  C   UNL     1     -43.427  59.114 -51.400  1.00  0.00     0.252 C 
HETATM    5  C   UNL     1     -44.038  60.370 -50.768  1.00  0.00     0.048 C 
BRANCH   4   6
HETATM    6  C   UNL     1     -41.928  59.195 -51.415  1.00  0.00     0.006 A 
HETATM    7  C   UNL     1     -41.104  59.171 -52.530  1.00  0.00     0.058 A 
HETATM    8  O   UNL     1     -39.800  59.309 -52.166  1.00  0.00    -0.320 OA
HETATM    9  C   UNL     1     -41.354  59.053 -53.984  1.00  0.00     0.077 C 
HETATM   10  C   UNL     1     -39.768  59.449 -50.816  1.00  0.00     0.050 A 
HETATM   11  C   UNL     1     -38.439  59.661 -50.206  1.00  0.00     0.076 C 
HETATM   12  C   UNL     1     -41.045  59.378 -50.305  1.00  0.00     0.044 A 
ENDBRANCH   4   6
ENDBRANCH   2   4
ENDBRANCH   1   2
BRANCH   1  13
HETATM   13  C   UNL     1     -43.028  55.699 -51.516  1.00  0.00     0.044 A 
HETATM   14  N   UNL     1     -42.717  55.054 -52.699  1.00  0.00    -0.338 N 
HETATM   15  H   UNL     1     -43.189  55.340 -53.560  1.00  0.00     0.168 HD
HETATM   16  C   UNL     1     -41.806  54.113 -52.724  1.00  0.00     0.158 A 
HETATM   17  N   UNL     1     -41.156  53.752 -51.636  1.00  0.00    -0.269 N 
HETATM   18  S   UNL     1     -41.339  53.239 -54.149  1.00  0.00    -0.064 SA
HETATM   19  C   UNL     1     -41.368  54.338 -50.371  1.00  0.00     0.255 A 
HETATM   20  C   UNL     1     -40.241  52.746 -51.868  1.00  0.00     0.109 A 
HETATM   21  O   UNL     1     -40.745  53.984 -49.388  1.00  0.00    -0.268 OA
HETATM   22  C   UNL     1     -42.393  55.393 -50.375  1.00  0.00     0.101 A 
HETATM   23  C   UNL     1     -40.206  52.351 -53.149  1.00  0.00     0.071 A 
ENDBRANCH   1  13
TORSDOF 4
ENDMDL
MODEL 9
REMARK VINA RESULT:      -6.6      2.931      4.082
REMARK  4 active torsions:
REMARK  status: ('A' for Active; 'I' for Inactive)
REMARK    1  A    between atoms: C_6  and  C_7 
REMARK    2  A    between atoms: C_7  and  N_8 
REMARK    3  A    between atoms: N_8  and  C_9 
REMARK    4  A    between atoms: C_9  and  C_10 
ROOT
HETATM    1  C   UNL     1     -42.704  54.374 -54.975  1.00  0.00     0.327 C 
ENDROOT
BRANCH   1   2
HETATM    2  N   UNL     1     -43.112  54.989 -53.705  1.00  0.00     0.097 N 
HETATM    3  H   UNL     1     -42.974  56.001 -53.759  1.00  0.00     0.317 HD
BRANCH   2   4
HETATM    4  C   UNL     1     -42.295  54.509 -52.569  1.00  0.00     0.252 C 
HETATM    5  C   UNL     1     -41.129  53.613 -53.003  1.00  0.00     0.048 C 
BRANCH   4   6
HETATM    6  C   UNL     1     -41.797  55.721 -51.837  1.00  0.00     0.006 A 
HETATM    7  C   UNL     1     -41.438  55.796 -50.499  1.00  0.00     0.058 A 
HETATM    8  O   UNL     1     -40.991  57.044 -50.192  1.00  0.00    -0.320 OA
HETATM    9  C   UNL     1     -41.423  54.819 -49.388  1.00  0.00     0.077 C 
HETATM   10  C   UNL     1     -41.033  57.783 -51.331  1.00  0.00     0.050 A 
HETATM   11  C   UNL     1     -40.542  59.173 -51.235  1.00  0.00     0.076 C 
HETATM   12  C   UNL     1     -41.527  57.022 -52.367  1.00  0.00     0.044 A 
ENDBRANCH   4   6
ENDBRANCH   2   4
ENDBRANCH   1   2
BRANCH   1  13
HETATM   13  C   UNL     1     -42.781  55.395 -56.094  1.00  0.00     0.044 A 
HETATM   14  N   UNL     1     -43.346  54.945 -57.274  1.00  0.00    -0.338 N 
HETATM   15  H   UNL     1     -43.693  53.984 -57.324  1.00  0.00     0.168 HD
HETATM   16  C   UNL     1     -43.464  55.748 -58.302  1.00  0.00     0.158 A 
HETATM   17  N   UNL     1     -43.059  57.001 -58.251  1.00  0.00    -0.269 N 
HETATM   18  S   UNL     1     -44.154  55.289 -59.828  1.00  0.00    -0.064 SA
HETATM   19  C   UNL     1     -42.480  57.586 -57.107  1.00  0.00     0.255 A 
HETATM   20  C   UNL     1     -43.269  57.680 -59.434  1.00  0.00     0.109 A 
HETATM   21  O   UNL     1     -42.123  58.749 -57.093  1.00  0.00    -0.268 OA
HETATM   22  C   UNL     1     -42.363  56.662 -55.968  1.00  0.00     0.101 A 
HETATM   23  C   UNL     1     -43.842  56.923 -60.381  1.00  0.00     0.071 A 
ENDBRANCH   1  13
TORSDOF 4
ENDMDL
MODEL 10
REMARK VINA RESULT:      -6.5      3.641      4.429
REMARK  4 active torsions:
REMARK  status: ('A' for Active; 'I' for Inactive)
REMARK    1  A    between atoms: C_6  and  C_7 
REMARK    2  A    between atoms: C_7  and  N_8 
REMARK    3  A    between atoms: N_8  and  C_9 
REMARK    4  A    between atoms: C_9  and  C_10 
ROOT
HETATM    1  C   UNL     1     -42.550  54.797 -55.240  1.00  0.00     0.327 C 
ENDROOT
BRANCH   1   2
HETATM    2  N   UNL     1     -42.219  53.614 -54.435  1.00  0.00     0.097 N 
HETATM    3  H   UNL     1     -42.305  53.845 -53.443  1.00  0.00     0.317 HD
BRANCH   2   4
HETATM    4  C   UNL     1     -40.824  53.171 -54.647  1.00  0.00     0.252 C 
HETATM    5  C   UNL     1     -39.881  54.317 -55.032  1.00  0.00     0.048 C 
BRANCH   4   6
HETATM    6  C   UNL     1     -40.371  52.505 -53.382  1.00  0.00     0.006 A 
HETATM    7  C   UNL     1     -40.375  53.049 -52.106  1.00  0.00     0.058 A 
HETATM    8  O   UNL     1     -39.935  52.140 -51.195  1.00  0.00    -0.320 OA
HETATM    9  C   UNL     1     -40.769  54.366 -51.558  1.00  0.00     0.077 C 
HETATM   10  C   UNL     1     -39.666  50.990 -51.865  1.00  0.00     0.050 A 
HETATM   11  C   UNL     1     -39.213  49.843 -51.052  1.00  0.00     0.076 C 
HETATM   12  C   UNL     1     -39.908  51.162 -53.210  1.00  0.00     0.044 A 
ENDBRANCH   4   6
ENDBRANCH   2   4
ENDBRANCH   1   2
BRANCH   1  13
HETATM   13  C   UNL     1     -42.854  55.974 -54.333  1.00  0.00     0.044 A 
HETATM   14  N   UNL     1     -42.333  57.189 -54.738  1.00  0.00    -0.338 N 
HETATM   15  H   UNL     1     -41.805  57.236 -55.613  1.00  0.00     0.168 HD
HETATM   16  C   UNL     1     -42.540  58.270 -54.029  1.00  0.00     0.158 A 
HETATM   17  N   UNL     1     -43.248  58.243 -52.918  1.00  0.00    -0.269 N 
HETATM   18  S   UNL     1     -41.933  59.844 -54.443  1.00  0.00    -0.064 SA
HETATM   19  C   UNL     1     -43.845  57.074 -52.403  1.00  0.00     0.255 A 
HETATM   20  C   UNL     1     -43.350  59.481 -52.318  1.00  0.00     0.109 A 
HETATM   21  O   UNL     1     -44.498  57.086 -51.377  1.00  0.00    -0.268 OA
HETATM   22  C   UNL     1     -43.598  55.877 -53.222  1.00  0.00     0.101 A 
HETATM   23  C   UNL     1     -42.710  60.448 -52.992  1.00  0.00     0.071 A 
ENDBRANCH   1  13
TORSDOF 4
ENDMDL
