MODEL 1
REMARK VINA RESULT:      -7.9      0.000      0.000
REMARK  8 active torsions:
REMARK  status: ('A' for Active; 'I' for Inactive)
REMARK    1  A    between atoms: C_7  and  C_8 
REMARK       I    between atoms: C_8  and  N_9 
REMARK    2  A    between atoms: N_9  and  C_10 
REMARK    3  A    between atoms: C_11  and  C_12 
REMARK       I    between atoms: C_12  and  N_13 
REMARK    4  A    between atoms: N_13  and  C_14 
REMARK    5  A    between atoms: C_14  and  C_15 
REMARK    6  A    between atoms: C_15  and  C_16 
REMARK    7  A    between atoms: C_18  and  O_19 
REMARK    8  A    between atoms: C_21  and  O_22 
ROOT
HETATM    1  C   UNL     1     -42.942  59.799 -52.599  1.00  0.00     0.050 A 
HETATM    2  C   UNL     1     -42.183  59.427 -51.466  1.00  0.00     0.058 A 
HETATM    3  C   UNL     1     -42.054  60.303 -50.371  1.00  0.00     0.019 A 
HETATM    4  C   UNL     1     -42.699  61.537 -50.380  1.00  0.00     0.001 A 
HETATM    5  C   UNL     1     -43.465  61.904 -51.480  1.00  0.00     0.002 A 
HETATM    6  C   UNL     1     -43.583  61.045 -52.579  1.00  0.00     0.030 A 
ENDROOT
BRANCH   2   7
HETATM    7  C   UNL     1     -41.499  58.106 -51.404  1.00  0.00     0.253 C 
HETATM    8  N   UNL     1     -41.747  57.344 -50.282  1.00  0.00    -0.356 N 
HETATM    9  H   UNL     1     -42.457  57.638 -49.622  1.00  0.00     0.162 HD
HETATM   10  O   UNL     1     -40.790  57.728 -52.329  1.00  0.00    -0.268 OA
BRANCH   8  11
HETATM   11  C   UNL     1     -41.141  56.037 -50.116  1.00  0.00     0.127 C 
BRANCH  11  12
HETATM   12  C   UNL     1     -42.006  54.900 -50.671  1.00  0.00     0.058 C 
BRANCH  12  13
HETATM   13  C   UNL     1     -41.309  53.857 -51.520  1.00  0.00    -0.054 A 
HETATM   14  C   UNL     1     -40.520  52.834 -50.972  1.00  0.00     0.046 A 
HETATM   15  C   UNL     1     -39.878  51.896 -51.792  1.00  0.00     0.102 A 
HETATM   16  C   UNL     1     -40.002  51.992 -53.191  1.00  0.00     0.101 A 
HETATM   17  C   UNL     1     -40.769  53.021 -53.743  1.00  0.00     0.040 A 
HETATM   18  C   UNL     1     -41.412  53.945 -52.915  1.00  0.00     0.010 A 
BRANCH  15  19
HETATM   19  O   UNL     1     -39.108  50.857 -51.327  1.00  0.00    -0.353 OA
HETATM   20  C   UNL     1     -39.760  49.819 -50.610  1.00  0.00     0.210 C 
ENDBRANCH  15  19
BRANCH  16  21
HETATM   21  O   UNL     1     -39.343  51.037 -53.926  1.00  0.00    -0.353 OA
HETATM   22  C   UNL     1     -40.107  49.954 -54.436  1.00  0.00     0.210 C 
ENDBRANCH  16  21
ENDBRANCH  12  13
ENDBRANCH  11  12
ENDBRANCH   8  11
ENDBRANCH   2   7
BRANCH   1  23
HETATM   23  N   UNL     1     -43.032  58.916 -53.706  1.00  0.00    -0.321 N 
HETATM   24  C   UNL     1     -42.361  58.973 -54.914  1.00  0.00     0.265 C 
HETATM   25  O   UNL     1     -41.580  59.867 -55.226  1.00  0.00    -0.267 OA
HETATM   26  H   UNL     1     -43.676  58.128 -53.590  1.00  0.00     0.169 HD
BRANCH  24  27
HETATM   27  C   UNL     1     -42.687  57.828 -55.878  1.00  0.00     0.097 C 
HETATM   28  C   UNL     1     -43.563  57.989 -56.904  1.00  0.00     0.064 C 
HETATM   29  C   UNL     1     -44.310  59.267 -57.188  1.00  0.00     0.078 C 
HETATM   30  O   UNL     1     -43.912  57.016 -57.830  1.00  0.00    -0.353 OA
HETATM   31  C   UNL     1     -43.049  55.886 -57.947  1.00  0.00     0.185 C 
HETATM   32  C   UNL     1     -42.858  55.202 -56.612  1.00  0.00     0.106 C 
HETATM   33  S   UNL     1     -41.891  56.300 -55.555  1.00  0.00    -0.120 SA
ENDBRANCH  24  27
ENDBRANCH   1  23
TORSDOF 8
ENDMDL
MODEL 2
REMARK VINA RESULT:      -7.7      2.557      3.798
REMARK  8 active torsions:
REMARK  status: ('A' for Active; 'I' for Inactive)
REMARK    1  A    between atoms: C_7  and  C_8 
REMARK       I    between atoms: C_8  and  N_9 
REMARK    2  A    between atoms: N_9  and  C_10 
REMARK    3  A    between atoms: C_11  and  C_12 
REMARK       I    between atoms: C_12  and  N_13 
REMARK    4  A    between atoms: N_13  and  C_14 
REMARK    5  A    between atoms: C_14  and  C_15 
REMARK    6  A    between atoms: C_15  and  C_16 
REMARK    7  A    between atoms: C_18  and  O_19 
REMARK    8  A    between atoms: C_21  and  O_22 
ROOT
HETATM    1  C   UNL     1     -44.805  57.900 -54.293  1.00  0.00     0.050 A 
HETATM    2  C   UNL     1     -43.967  56.963 -53.645  1.00  0.00     0.058 A 
HETATM    3  C   UNL     1     -43.555  57.173 -52.315  1.00  0.00     0.019 A 
HETATM    4  C   UNL     1     -43.992  58.293 -51.612  1.00  0.00     0.001 A 
HETATM    5  C   UNL     1     -44.833  59.209 -52.234  1.00  0.00     0.002 A 
HETATM    6  C   UNL     1     -45.232  59.015 -53.562  1.00  0.00     0.030 A 
ENDROOT
BRANCH   2   7
HETATM    7  C   UNL     1     -43.498  55.740 -54.351  1.00  0.00     0.253 C 
HETATM    8  N   UNL     1     -42.295  55.845 -55.017  1.00  0.00    -0.356 N 
HETATM    9  H   UNL     1     -41.730  56.678 -54.905  1.00  0.00     0.162 HD
HETATM   10  O   UNL     1     -44.145  54.701 -54.295  1.00  0.00    -0.268 OA
BRANCH   8  11
HETATM   11  C   UNL     1     -41.735  54.716 -55.734  1.00  0.00     0.127 C 
BRANCH  11  12
HETATM   12  C   UNL     1     -40.333  54.333 -55.249  1.00  0.00     0.058 C 
BRANCH  12  13
HETATM   13  C   UNL     1     -40.248  53.476 -54.002  1.00  0.00    -0.054 A 
HETATM   14  C   UNL     1     -40.595  53.951 -52.729  1.00  0.00     0.046 A 
HETATM   15  C   UNL     1     -40.488  53.132 -51.596  1.00  0.00     0.102 A 
HETATM   16  C   UNL     1     -40.001  51.818 -51.729  1.00  0.00     0.101 A 
HETATM   17  C   UNL     1     -39.634  51.347 -52.992  1.00  0.00     0.040 A 
HETATM   18  C   UNL     1     -39.753  52.170 -54.115  1.00  0.00     0.010 A 
BRANCH  15  19
HETATM   19  O   UNL     1     -40.829  53.520 -50.323  1.00  0.00    -0.353 OA
HETATM   20  C   UNL     1     -41.710  54.625 -50.181  1.00  0.00     0.210 C 
ENDBRANCH  15  19
BRANCH  16  21
HETATM   21  O   UNL     1     -39.925  51.079 -50.574  1.00  0.00    -0.353 OA
HETATM   22  C   UNL     1     -39.770  49.673 -50.700  1.00  0.00     0.210 C 
ENDBRANCH  16  21
ENDBRANCH  12  13
ENDBRANCH  11  12
ENDBRANCH   8  11
ENDBRANCH   2   7
BRANCH   1  23
HETATM   23  N   UNL     1     -45.181  57.688 -55.645  1.00  0.00    -0.321 N 
HETATM   24  C   UNL     1     -44.702  58.309 -56.784  1.00  0.00     0.265 C 
HETATM   25  O   UNL     1     -43.865  59.207 -56.778  1.00  0.00    -0.267 OA
HETATM   26  H   UNL     1     -45.900  56.974 -55.796  1.00  0.00     0.169 HD
BRANCH  24  27
HETATM   27  C   UNL     1     -45.323  57.809 -58.091  1.00  0.00     0.097 C 
HETATM   28  C   UNL     1     -44.687  56.908 -58.884  1.00  0.00     0.064 C 
HETATM   29  C   UNL     1     -43.326  56.331 -58.586  1.00  0.00     0.078 C 
HETATM   30  O   UNL     1     -45.174  56.392 -60.076  1.00  0.00    -0.353 OA
HETATM   31  C   UNL     1     -46.571  56.530 -60.325  1.00  0.00     0.185 C 
HETATM   32  C   UNL     1     -47.003  57.976 -60.240  1.00  0.00     0.106 C 
HETATM   33  S   UNL     1     -46.880  58.496 -58.516  1.00  0.00    -0.120 SA
ENDBRANCH  24  27
ENDBRANCH   1  23
TORSDOF 8
ENDMDL
MODEL 3
REMARK VINA RESULT:      -7.6      2.397      7.128
REMARK  8 active torsions:
REMARK  status: ('A' for Active; 'I' for Inactive)
REMARK    1  A    between atoms: C_7  and  C_8 
REMARK       I    between atoms: C_8  and  N_9 
REMARK    2  A    between atoms: N_9  and  C_10 
REMARK    3  A    between atoms: C_11  and  C_12 
REMARK       I    between atoms: C_12  and  N_13 
REMARK    4  A    between atoms: N_13  and  C_14 
REMARK    5  A    between atoms: C_14  and  C_15 
REMARK    6  A    between atoms: C_15  and  C_16 
REMARK    7  A    between atoms: C_18  and  O_19 
REMARK    8  A    between atoms: C_21  and  O_22 
ROOT
HETATM    1  C   UNL     1     -41.130  55.299 -50.795  1.00  0.00     0.050 A 
HETATM    2  C   UNL     1     -40.989  54.250 -51.732  1.00  0.00     0.058 A 
HETATM    3  C   UNL     1     -40.622  52.958 -51.309  1.00  0.00     0.019 A 
HETATM    4  C   UNL     1     -40.424  52.691 -49.957  1.00  0.00     0.001 A 
HETATM    5  C   UNL     1     -40.582  53.710 -49.026  1.00  0.00     0.002 A 
HETATM    6  C   UNL     1     -40.929  55.001 -49.441  1.00  0.00     0.030 A 
ENDROOT
BRANCH   2   7
HETATM    7  C   UNL     1     -41.216  54.486 -53.184  1.00  0.00     0.253 C 
HETATM    8  N   UNL     1     -42.498  54.268 -53.643  1.00  0.00    -0.356 N 
HETATM    9  H   UNL     1     -43.243  54.084 -52.982  1.00  0.00     0.162 HD
HETATM   10  O   UNL     1     -40.306  54.887 -53.900  1.00  0.00    -0.268 OA
BRANCH   8  11
HETATM   11  C   UNL     1     -42.839  54.472 -55.037  1.00  0.00     0.127 C 
BRANCH  11  12
HETATM   12  C   UNL     1     -43.298  55.903 -55.339  1.00  0.00     0.058 C 
BRANCH  12  13
HETATM   13  C   UNL     1     -43.012  56.439 -56.726  1.00  0.00    -0.054 A 
HETATM   14  C   UNL     1     -43.283  55.708 -57.893  1.00  0.00     0.046 A 
HETATM   15  C   UNL     1     -42.989  56.233 -59.160  1.00  0.00     0.102 A 
HETATM   16  C   UNL     1     -42.389  57.502 -59.269  1.00  0.00     0.101 A 
HETATM   17  C   UNL     1     -42.099  58.225 -58.108  1.00  0.00     0.040 A 
HETATM   18  C   UNL     1     -42.404  57.695 -56.851  1.00  0.00     0.010 A 
BRANCH  15  19
HETATM   19  O   UNL     1     -43.244  55.586 -60.345  1.00  0.00    -0.353 OA
HETATM   20  C   UNL     1     -44.600  55.324 -60.679  1.00  0.00     0.210 C 
ENDBRANCH  15  19
BRANCH  16  21
HETATM   21  O   UNL     1     -42.132  57.946 -60.543  1.00  0.00    -0.353 OA
HETATM   22  C   UNL     1     -42.007  59.346 -60.740  1.00  0.00     0.210 C 
ENDBRANCH  16  21
ENDBRANCH  12  13
ENDBRANCH  11  12
ENDBRANCH   8  11
ENDBRANCH   2   7
BRANCH   1  23
HETATM   23  N   UNL     1     -41.466  56.602 -51.244  1.00  0.00    -0.321 N 
HETATM   24  C   UNL     1     -42.702  57.094 -51.625  1.00  0.00     0.265 C 
HETATM   25  O   UNL     1     -43.728  56.422 -51.666  1.00  0.00    -0.267 OA
HETATM   26  H   UNL     1     -40.690  57.269 -51.284  1.00  0.00     0.169 HD
BRANCH  24  27
HETATM   27  C   UNL     1     -42.701  58.570 -52.033  1.00  0.00     0.097 C 
HETATM   28  C   UNL     1     -41.816  59.058 -52.941  1.00  0.00     0.064 C 
HETATM   29  C   UNL     1     -40.749  58.231 -53.612  1.00  0.00     0.078 C 
HETATM   30  O   UNL     1     -41.746  60.374 -53.377  1.00  0.00    -0.353 OA
HETATM   31  C   UNL     1     -42.885  61.200 -53.143  1.00  0.00     0.185 C 
HETATM   32  C   UNL     1     -43.254  61.223 -51.678  1.00  0.00     0.106 C 
HETATM   33  S   UNL     1     -43.884  59.590 -51.236  1.00  0.00    -0.120 SA
ENDBRANCH  24  27
ENDBRANCH   1  23
TORSDOF 8
ENDMDL
MODEL 4
REMARK VINA RESULT:      -7.5      2.227      5.208
REMARK  8 active torsions:
REMARK  status: ('A' for Active; 'I' for Inactive)
REMARK    1  A    between atoms: C_7  and  C_8 
REMARK       I    between atoms: C_8  and  N_9 
REMARK    2  A    between atoms: N_9  and  C_10 
REMARK    3  A    between atoms: C_11  and  C_12 
REMARK       I    between atoms: C_12  and  N_13 
REMARK    4  A    between atoms: N_13  and  C_14 
REMARK    5  A    between atoms: C_14  and  C_15 
REMARK    6  A    between atoms: C_15  and  C_16 
REMARK    7  A    between atoms: C_18  and  O_19 
REMARK    8  A    between atoms: C_21  and  O_22 
ROOT
HETATM    1  C   UNL     1     -42.734  59.528 -56.913  1.00  0.00     0.050 A 
HETATM    2  C   UNL     1     -42.629  58.206 -57.404  1.00  0.00     0.058 A 
HETATM    3  C   UNL     1     -42.278  57.968 -58.747  1.00  0.00     0.019 A 
HETATM    4  C   UNL     1     -42.001  59.033 -59.600  1.00  0.00     0.001 A 
HETATM    5  C   UNL     1     -42.081  60.335 -59.120  1.00  0.00     0.002 A 
HETATM    6  C   UNL     1     -42.446  60.579 -57.792  1.00  0.00     0.030 A 
ENDROOT
BRANCH   2   7
HETATM    7  C   UNL     1     -42.891  57.038 -56.519  1.00  0.00     0.253 C 
HETATM    8  N   UNL     1     -41.791  56.289 -56.158  1.00  0.00    -0.356 N 
HETATM    9  H   UNL     1     -40.862  56.617 -56.391  1.00  0.00     0.162 HD
HETATM   10  O   UNL     1     -44.025  56.801 -56.120  1.00  0.00    -0.268 OA
BRANCH   8  11
HETATM   11  C   UNL     1     -41.925  55.132 -55.293  1.00  0.00     0.127 C 
BRANCH  11  12
HETATM   12  C   UNL     1     -40.679  54.241 -55.287  1.00  0.00     0.058 C 
BRANCH  12  13
HETATM   13  C   UNL     1     -40.450  53.388 -54.056  1.00  0.00    -0.054 A 
HETATM   14  C   UNL     1     -40.683  53.855 -52.754  1.00  0.00     0.046 A 
HETATM   15  C   UNL     1     -40.444  53.040 -51.638  1.00  0.00     0.102 A 
HETATM   16  C   UNL     1     -39.940  51.738 -51.820  1.00  0.00     0.101 A 
HETATM   17  C   UNL     1     -39.688  51.275 -53.114  1.00  0.00     0.040 A 
HETATM   18  C   UNL     1     -39.937  52.094 -54.219  1.00  0.00     0.010 A 
BRANCH  15  19
HETATM   19  O   UNL     1     -40.667  53.421 -50.338  1.00  0.00    -0.353 OA
HETATM   20  C   UNL     1     -39.695  54.247 -49.713  1.00  0.00     0.210 C 
ENDBRANCH  15  19
BRANCH  16  21
HETATM   21  O   UNL     1     -39.733  51.002 -50.679  1.00  0.00    -0.353 OA
HETATM   22  C   UNL     1     -39.705  49.588 -50.803  1.00  0.00     0.210 C 
ENDBRANCH  16  21
ENDBRANCH  12  13
ENDBRANCH  11  12
ENDBRANCH   8  11
ENDBRANCH   2   7
BRANCH   1  23
HETATM   23  N   UNL     1     -43.122  59.748 -55.566  1.00  0.00    -0.321 N 
HETATM   24  C   UNL     1     -42.331  59.777 -54.431  1.00  0.00     0.265 C 
HETATM   25  O   UNL     1     -41.122  59.566 -54.430  1.00  0.00    -0.267 OA
HETATM   26  H   UNL     1     -44.122  59.914 -55.416  1.00  0.00     0.169 HD
BRANCH  24  27
HETATM   27  C   UNL     1     -43.089  60.070 -53.133  1.00  0.00     0.097 C 
HETATM   28  C   UNL     1     -43.592  59.071 -52.361  1.00  0.00     0.064 C 
HETATM   29  C   UNL     1     -43.484  57.605 -52.697  1.00  0.00     0.078 C 
HETATM   30  O   UNL     1     -44.283  59.240 -51.170  1.00  0.00    -0.353 OA
HETATM   31  C   UNL     1     -44.159  60.501 -50.516  1.00  0.00     0.185 C 
HETATM   32  C   UNL     1     -44.550  61.636 -51.435  1.00  0.00     0.106 C 
HETATM   33  S   UNL     1     -43.297  61.763 -52.728  1.00  0.00    -0.120 SA
ENDBRANCH  24  27
ENDBRANCH   1  23
TORSDOF 8
ENDMDL
MODEL 5
REMARK VINA RESULT:      -7.5      2.573      5.537
REMARK  8 active torsions:
REMARK  status: ('A' for Active; 'I' for Inactive)
REMARK    1  A    between atoms: C_7  and  C_8 
REMARK       I    between atoms: C_8  and  N_9 
REMARK    2  A    between atoms: N_9  and  C_10 
REMARK    3  A    between atoms: C_11  and  C_12 
REMARK       I    between atoms: C_12  and  N_13 
REMARK    4  A    between atoms: N_13  and  C_14 
REMARK    5  A    between atoms: C_14  and  C_15 
REMARK    6  A    between atoms: C_15  and  C_16 
REMARK    7  A    between atoms: C_18  and  O_19 
REMARK    8  A    between atoms: C_21  and  O_22 
ROOT
HETATM    1  C   UNL     1     -43.555  58.392 -58.041  1.00  0.00     0.050 A 
HETATM    2  C   UNL     1     -43.284  57.027 -57.793  1.00  0.00     0.058 A 
HETATM    3  C   UNL     1     -43.322  56.088 -58.841  1.00  0.00     0.019 A 
HETATM    4  C   UNL     1     -43.597  56.499 -60.143  1.00  0.00     0.001 A 
HETATM    5  C   UNL     1     -43.843  57.842 -60.401  1.00  0.00     0.002 A 
HETATM    6  C   UNL     1     -43.825  58.778 -59.360  1.00  0.00     0.030 A 
ENDROOT
BRANCH   2   7
HETATM    7  C   UNL     1     -42.961  56.549 -56.421  1.00  0.00     0.253 C 
HETATM    8  N   UNL     1     -41.747  55.912 -56.268  1.00  0.00    -0.356 N 
HETATM    9  H   UNL     1     -41.085  55.903 -57.035  1.00  0.00     0.162 HD
HETATM   10  O   UNL     1     -43.731  56.755 -55.491  1.00  0.00    -0.268 OA
BRANCH   8  11
HETATM   11  C   UNL     1     -41.321  55.411 -54.976  1.00  0.00     0.127 C 
BRANCH  11  12
HETATM   12  C   UNL     1     -40.344  54.236 -55.081  1.00  0.00     0.058 C 
BRANCH  12  13
HETATM   13  C   UNL     1     -40.242  53.317 -53.880  1.00  0.00    -0.054 A 
HETATM   14  C   UNL     1     -40.482  53.753 -52.568  1.00  0.00     0.046 A 
HETATM   15  C   UNL     1     -40.363  52.876 -51.480  1.00  0.00     0.102 A 
HETATM   16  C   UNL     1     -39.972  51.541 -51.699  1.00  0.00     0.101 A 
HETATM   17  C   UNL     1     -39.713  51.108 -53.002  1.00  0.00     0.040 A 
HETATM   18  C   UNL     1     -39.843  51.989 -54.079  1.00  0.00     0.010 A 
BRANCH  15  19
HETATM   19  O   UNL     1     -40.600  53.225 -50.173  1.00  0.00    -0.353 OA
HETATM   20  C   UNL     1     -40.113  54.481 -49.723  1.00  0.00     0.210 C 
ENDBRANCH  15  19
BRANCH  16  21
HETATM   21  O   UNL     1     -39.878  50.745 -50.584  1.00  0.00    -0.353 OA
HETATM   22  C   UNL     1     -39.395  49.422 -50.759  1.00  0.00     0.210 C 
ENDBRANCH  16  21
ENDBRANCH  12  13
ENDBRANCH  11  12
ENDBRANCH   8  11
ENDBRANCH   2   7
BRANCH   1  23
HETATM   23  N   UNL     1     -43.546  59.317 -56.966  1.00  0.00    -0.321 N 
HETATM   24  C   UNL     1     -42.549  60.201 -56.593  1.00  0.00     0.265 C 
HETATM   25  O   UNL     1     -41.459  60.283 -57.150  1.00  0.00    -0.267 OA
HETATM   26  H   UNL     1     -44.396  59.337 -56.394  1.00  0.00     0.169 HD
BRANCH  24  27
HETATM   27  C   UNL     1     -42.894  61.077 -55.385  1.00  0.00     0.097 C 
HETATM   28  C   UNL     1     -42.461  60.769 -54.135  1.00  0.00     0.064 C 
HETATM   29  C   UNL     1     -41.636  59.552 -53.800  1.00  0.00     0.078 C 
HETATM   30  O   UNL     1     -42.715  61.505 -52.986  1.00  0.00    -0.353 OA
HETATM   31  C   UNL     1     -43.149  62.853 -53.157  1.00  0.00     0.185 C 
HETATM   32  C   UNL     1     -44.382  62.925 -54.029  1.00  0.00     0.106 C 
HETATM   33  S   UNL     1     -43.904  62.473 -55.709  1.00  0.00    -0.120 SA
ENDBRANCH  24  27
ENDBRANCH   1  23
TORSDOF 8
ENDMDL
MODEL 6
REMARK VINA RESULT:      -7.5      2.846      8.439
REMARK  8 active torsions:
REMARK  status: ('A' for Active; 'I' for Inactive)
REMARK    1  A    between atoms: C_7  and  C_8 
REMARK       I    between atoms: C_8  and  N_9 
REMARK    2  A    between atoms: N_9  and  C_10 
REMARK    3  A    between atoms: C_11  and  C_12 
REMARK       I    between atoms: C_12  and  N_13 
REMARK    4  A    between atoms: N_13  and  C_14 
REMARK    5  A    between atoms: C_14  and  C_15 
REMARK    6  A    between atoms: C_15  and  C_16 
REMARK    7  A    between atoms: C_18  and  O_19 
REMARK    8  A    between atoms: C_21  and  O_22 
ROOT
HETATM    1  C   UNL     1     -41.176  54.212 -52.679  1.00  0.00     0.050 A 
HETATM    2  C   UNL     1     -41.437  53.677 -53.961  1.00  0.00     0.058 A 
HETATM    3  C   UNL     1     -40.830  52.475 -54.372  1.00  0.00     0.019 A 
HETATM    4  C   UNL     1     -39.986  51.783 -53.507  1.00  0.00     0.001 A 
HETATM    5  C   UNL     1     -39.741  52.289 -52.237  1.00  0.00     0.002 A 
HETATM    6  C   UNL     1     -40.327  53.492 -51.828  1.00  0.00     0.030 A 
ENDROOT
BRANCH   2   7
HETATM    7  C   UNL     1     -42.352  54.372 -54.908  1.00  0.00     0.253 C 
HETATM    8  N   UNL     1     -41.753  55.036 -55.958  1.00  0.00    -0.356 N 
HETATM    9  H   UNL     1     -40.759  54.927 -56.118  1.00  0.00     0.162 HD
HETATM   10  O   UNL     1     -43.567  54.311 -54.758  1.00  0.00    -0.268 OA
BRANCH   8  11
HETATM   11  C   UNL     1     -42.544  55.742 -56.946  1.00  0.00     0.127 C 
BRANCH  11  12
HETATM   12  C   UNL     1     -42.528  57.262 -56.753  1.00  0.00     0.058 C 
BRANCH  12  13
HETATM   13  C   UNL     1     -42.313  58.109 -57.991  1.00  0.00    -0.054 A 
HETATM   14  C   UNL     1     -42.099  59.494 -57.934  1.00  0.00     0.046 A 
HETATM   15  C   UNL     1     -41.919  60.247 -59.104  1.00  0.00     0.102 A 
HETATM   16  C   UNL     1     -41.979  59.612 -60.359  1.00  0.00     0.101 A 
HETATM   17  C   UNL     1     -42.212  58.236 -60.421  1.00  0.00     0.040 A 
HETATM   18  C   UNL     1     -42.381  57.495 -59.248  1.00  0.00     0.010 A 
BRANCH  15  19
HETATM   19  O   UNL     1     -41.685  61.601 -59.126  1.00  0.00    -0.353 OA
HETATM   20  C   UNL     1     -40.501  62.079 -58.504  1.00  0.00     0.210 C 
ENDBRANCH  15  19
BRANCH  16  21
HETATM   21  O   UNL     1     -41.794  60.417 -61.456  1.00  0.00    -0.353 OA
HETATM   22  C   UNL     1     -42.931  60.720 -62.250  1.00  0.00     0.210 C 
ENDBRANCH  16  21
ENDBRANCH  12  13
ENDBRANCH  11  12
ENDBRANCH   8  11
ENDBRANCH   2   7
BRANCH   1  23
HETATM   23  N   UNL     1     -41.770  55.442 -52.296  1.00  0.00    -0.321 N 
HETATM   24  C   UNL     1     -41.513  56.713 -52.776  1.00  0.00     0.265 C 
HETATM   25  O   UNL     1     -40.659  56.971 -53.619  1.00  0.00    -0.267 OA
HETATM   26  H   UNL     1     -42.492  55.376 -51.571  1.00  0.00     0.169 HD
BRANCH  24  27
HETATM   27  C   UNL     1     -42.368  57.817 -52.146  1.00  0.00     0.097 C 
HETATM   28  C   UNL     1     -41.853  58.689 -51.241  1.00  0.00     0.064 C 
HETATM   29  C   UNL     1     -40.428  58.656 -50.750  1.00  0.00     0.078 C 
HETATM   30  O   UNL     1     -42.546  59.722 -50.627  1.00  0.00    -0.353 OA
HETATM   31  C   UNL     1     -43.771  60.135 -51.230  1.00  0.00     0.185 C 
HETATM   32  C   UNL     1     -44.724  58.973 -51.385  1.00  0.00     0.106 C 
HETATM   33  S   UNL     1     -44.051  57.862 -52.638  1.00  0.00    -0.120 SA
ENDBRANCH  24  27
ENDBRANCH   1  23
TORSDOF 8
ENDMDL
MODEL 7
REMARK VINA RESULT:      -7.4      2.790      8.447
REMARK  8 active torsions:
REMARK  status: ('A' for Active; 'I' for Inactive)
REMARK    1  A    between atoms: C_7  and  C_8 
REMARK       I    between atoms: C_8  and  N_9 
REMARK    2  A    between atoms: N_9  and  C_10 
REMARK    3  A    between atoms: C_11  and  C_12 
REMARK       I    between atoms: C_12  and  N_13 
REMARK    4  A    between atoms: N_13  and  C_14 
REMARK    5  A    between atoms: C_14  and  C_15 
REMARK    6  A    between atoms: C_15  and  C_16 
REMARK    7  A    between atoms: C_18  and  O_19 
REMARK    8  A    between atoms: C_21  and  O_22 
ROOT
HETATM    1  C   UNL     1     -41.345  54.457 -52.688  1.00  0.00     0.050 A 
HETATM    2  C   UNL     1     -41.622  54.001 -53.998  1.00  0.00     0.058 A 
HETATM    3  C   UNL     1     -41.056  52.802 -54.473  1.00  0.00     0.019 A 
HETATM    4  C   UNL     1     -40.239  52.035 -53.647  1.00  0.00     0.001 A 
HETATM    5  C   UNL     1     -39.978  52.464 -52.351  1.00  0.00     0.002 A 
HETATM    6  C   UNL     1     -40.522  53.663 -51.878  1.00  0.00     0.030 A 
ENDROOT
BRANCH   2   7
HETATM    7  C   UNL     1     -42.511  54.777 -54.905  1.00  0.00     0.253 C 
HETATM    8  N   UNL     1     -41.883  55.524 -55.880  1.00  0.00    -0.356 N 
HETATM    9  H   UNL     1     -40.885  55.424 -56.024  1.00  0.00     0.162 HD
HETATM   10  O   UNL     1     -43.729  54.710 -54.792  1.00  0.00    -0.268 OA
BRANCH   8  11
HETATM   11  C   UNL     1     -42.647  56.314 -56.826  1.00  0.00     0.127 C 
BRANCH  11  12
HETATM   12  C   UNL     1     -43.063  55.524 -58.071  1.00  0.00     0.058 C 
BRANCH  12  13
HETATM   13  C   UNL     1     -44.220  56.074 -58.879  1.00  0.00    -0.054 A 
HETATM   14  C   UNL     1     -44.815  57.314 -58.607  1.00  0.00     0.046 A 
HETATM   15  C   UNL     1     -45.895  57.783 -59.369  1.00  0.00     0.102 A 
HETATM   16  C   UNL     1     -46.412  56.988 -60.410  1.00  0.00     0.101 A 
HETATM   17  C   UNL     1     -45.836  55.742 -60.672  1.00  0.00     0.040 A 
HETATM   18  C   UNL     1     -44.754  55.290 -59.911  1.00  0.00     0.010 A 
BRANCH  15  19
HETATM   19  O   UNL     1     -46.514  58.994 -59.174  1.00  0.00    -0.353 OA
HETATM   20  C   UNL     1     -47.296  59.157 -57.999  1.00  0.00     0.210 C 
ENDBRANCH  15  19
BRANCH  16  21
HETATM   21  O   UNL     1     -47.469  57.515 -61.109  1.00  0.00    -0.353 OA
HETATM   22  C   UNL     1     -48.175  56.651 -61.987  1.00  0.00     0.210 C 
ENDBRANCH  16  21
ENDBRANCH  12  13
ENDBRANCH  11  12
ENDBRANCH   8  11
ENDBRANCH   2   7
BRANCH   1  23
HETATM   23  N   UNL     1     -41.896  55.684 -52.240  1.00  0.00    -0.321 N 
HETATM   24  C   UNL     1     -41.564  56.972 -52.620  1.00  0.00     0.265 C 
HETATM   25  O   UNL     1     -40.670  57.246 -53.415  1.00  0.00    -0.267 OA
HETATM   26  H   UNL     1     -42.646  55.604 -51.546  1.00  0.00     0.169 HD
BRANCH  24  27
HETATM   27  C   UNL     1     -42.391  58.069 -51.943  1.00  0.00     0.097 C 
HETATM   28  C   UNL     1     -41.819  58.990 -51.124  1.00  0.00     0.064 C 
HETATM   29  C   UNL     1     -40.351  59.020 -50.779  1.00  0.00     0.078 C 
HETATM   30  O   UNL     1     -42.484  60.021 -50.477  1.00  0.00    -0.353 OA
HETATM   31  C   UNL     1     -43.777  60.372 -50.964  1.00  0.00     0.185 C 
HETATM   32  C   UNL     1     -44.699  59.175 -50.984  1.00  0.00     0.106 C 
HETATM   33  S   UNL     1     -44.115  58.042 -52.262  1.00  0.00    -0.120 SA
ENDBRANCH  24  27
ENDBRANCH   1  23
TORSDOF 8
ENDMDL
MODEL 8
REMARK VINA RESULT:      -7.4      2.275      7.302
REMARK  8 active torsions:
REMARK  status: ('A' for Active; 'I' for Inactive)
REMARK    1  A    between atoms: C_7  and  C_8 
REMARK       I    between atoms: C_8  and  N_9 
REMARK    2  A    between atoms: N_9  and  C_10 
REMARK    3  A    between atoms: C_11  and  C_12 
REMARK       I    between atoms: C_12  and  N_13 
REMARK    4  A    between atoms: N_13  and  C_14 
REMARK    5  A    between atoms: C_14  and  C_15 
REMARK    6  A    between atoms: C_15  and  C_16 
REMARK    7  A    between atoms: C_18  and  O_19 
REMARK    8  A    between atoms: C_21  and  O_22 
ROOT
HETATM    1  C   UNL     1     -41.050  53.968 -53.799  1.00  0.00     0.050 A 
HETATM    2  C   UNL     1     -41.030  53.891 -52.387  1.00  0.00     0.058 A 
HETATM    3  C   UNL     1     -40.399  52.812 -51.738  1.00  0.00     0.019 A 
HETATM    4  C   UNL     1     -39.760  51.822 -52.481  1.00  0.00     0.001 A 
HETATM    5  C   UNL     1     -39.756  51.900 -53.868  1.00  0.00     0.002 A 
HETATM    6  C   UNL     1     -40.396  52.960 -54.520  1.00  0.00     0.030 A 
ENDROOT
BRANCH   2   7
HETATM    7  C   UNL     1     -41.678  54.941 -51.555  1.00  0.00     0.253 C 
HETATM    8  N   UNL     1     -40.851  55.934 -51.075  1.00  0.00    -0.356 N 
HETATM    9  H   UNL     1     -39.892  55.987 -51.396  1.00  0.00     0.162 HD
HETATM   10  O   UNL     1     -42.887  54.919 -51.354  1.00  0.00    -0.268 OA
BRANCH   8  11
HETATM   11  C   UNL     1     -41.373  57.014 -50.260  1.00  0.00     0.127 C 
BRANCH  11  12
HETATM   12  C   UNL     1     -40.706  58.362 -50.551  1.00  0.00     0.058 C 
BRANCH  12  13
HETATM   13  C   UNL     1     -41.525  59.384 -51.312  1.00  0.00    -0.054 A 
HETATM   14  C   UNL     1     -42.488  60.198 -50.695  1.00  0.00     0.046 A 
HETATM   15  C   UNL     1     -43.237  61.122 -51.436  1.00  0.00     0.102 A 
HETATM   16  C   UNL     1     -43.043  61.223 -52.827  1.00  0.00     0.101 A 
HETATM   17  C   UNL     1     -42.100  60.401 -53.449  1.00  0.00     0.040 A 
HETATM   18  C   UNL     1     -41.353  59.489 -52.698  1.00  0.00     0.010 A 
BRANCH  15  19
HETATM   19  O   UNL     1     -44.180  61.964 -50.899  1.00  0.00    -0.353 OA
HETATM   20  C   UNL     1     -43.742  62.940 -49.964  1.00  0.00     0.210 C 
ENDBRANCH  15  19
BRANCH  16  21
HETATM   21  O   UNL     1     -43.815  62.151 -53.482  1.00  0.00    -0.353 OA
HETATM   22  C   UNL     1     -43.194  63.366 -53.875  1.00  0.00     0.210 C 
ENDBRANCH  16  21
ENDBRANCH  12  13
ENDBRANCH  11  12
ENDBRANCH   8  11
ENDBRANCH   2   7
BRANCH   1  23
HETATM   23  N   UNL     1     -41.720  55.044 -54.435  1.00  0.00    -0.321 N 
HETATM   24  C   UNL     1     -43.040  55.121 -54.842  1.00  0.00     0.265 C 
HETATM   25  O   UNL     1     -43.847  54.203 -54.738  1.00  0.00    -0.267 OA
HETATM   26  H   UNL     1     -41.151  55.878 -54.608  1.00  0.00     0.169 HD
BRANCH  24  27
HETATM   27  C   UNL     1     -43.433  56.458 -55.477  1.00  0.00     0.097 C 
HETATM   28  C   UNL     1     -44.028  57.443 -54.755  1.00  0.00     0.064 C 
HETATM   29  C   UNL     1     -44.379  57.326 -53.293  1.00  0.00     0.078 C 
HETATM   30  O   UNL     1     -44.410  58.685 -55.240  1.00  0.00    -0.353 OA
HETATM   31  C   UNL     1     -43.834  59.109 -56.474  1.00  0.00     0.185 C 
HETATM   32  C   UNL     1     -44.076  58.095 -57.569  1.00  0.00     0.106 C 
HETATM   33  S   UNL     1     -43.102  56.623 -57.191  1.00  0.00    -0.120 SA
ENDBRANCH  24  27
ENDBRANCH   1  23
TORSDOF 8
ENDMDL
MODEL 9
REMARK VINA RESULT:      -7.3      2.417      5.533
REMARK  8 active torsions:
REMARK  status: ('A' for Active; 'I' for Inactive)
REMARK    1  A    between atoms: C_7  and  C_8 
REMARK       I    between atoms: C_8  and  N_9 
REMARK    2  A    between atoms: N_9  and  C_10 
REMARK    3  A    between atoms: C_11  and  C_12 
REMARK       I    between atoms: C_12  and  N_13 
REMARK    4  A    between atoms: N_13  and  C_14 
REMARK    5  A    between atoms: C_14  and  C_15 
REMARK    6  A    between atoms: C_15  and  C_16 
REMARK    7  A    between atoms: C_18  and  O_19 
REMARK    8  A    between atoms: C_21  and  O_22 
ROOT
HETATM    1  C   UNL     1     -43.118  58.242 -57.822  1.00  0.00     0.050 A 
HETATM    2  C   UNL     1     -42.880  56.850 -57.753  1.00  0.00     0.058 A 
HETATM    3  C   UNL     1     -42.813  56.078 -58.929  1.00  0.00     0.019 A 
HETATM    4  C   UNL     1     -42.951  56.682 -60.175  1.00  0.00     0.001 A 
HETATM    5  C   UNL     1     -43.164  58.053 -60.254  1.00  0.00     0.002 A 
HETATM    6  C   UNL     1     -43.250  58.824 -59.089  1.00  0.00     0.030 A 
ENDROOT
BRANCH   2   7
HETATM    7  C   UNL     1     -42.701  56.169 -56.442  1.00  0.00     0.253 C 
HETATM    8  N   UNL     1     -43.302  54.934 -56.311  1.00  0.00    -0.356 N 
HETATM    9  H   UNL     1     -43.721  54.491 -57.119  1.00  0.00     0.162 HD
HETATM   10  O   UNL     1     -42.023  56.682 -55.560  1.00  0.00    -0.268 OA
BRANCH   8  11
HETATM   11  C   UNL     1     -43.190  54.175 -55.081  1.00  0.00     0.127 C 
BRANCH  11  12
HETATM   12  C   UNL     1     -41.795  53.577 -54.871  1.00  0.00     0.058 C 
BRANCH  12  13
HETATM   13  C   UNL     1     -41.244  53.596 -53.459  1.00  0.00    -0.054 A 
HETATM   14  C   UNL     1     -40.614  52.487 -52.875  1.00  0.00     0.046 A 
HETATM   15  C   UNL     1     -40.131  52.539 -51.559  1.00  0.00     0.102 A 
HETATM   16  C   UNL     1     -40.300  53.712 -50.799  1.00  0.00     0.101 A 
HETATM   17  C   UNL     1     -40.945  54.812 -51.370  1.00  0.00     0.040 A 
HETATM   18  C   UNL     1     -41.415  54.751 -52.685  1.00  0.00     0.010 A 
BRANCH  15  19
HETATM   19  O   UNL     1     -39.487  51.502 -50.929  1.00  0.00    -0.353 OA
HETATM   20  C   UNL     1     -39.517  50.226 -51.551  1.00  0.00     0.210 C 
ENDBRANCH  15  19
BRANCH  16  21
HETATM   21  O   UNL     1     -39.801  53.684 -49.520  1.00  0.00    -0.353 OA
HETATM   22  C   UNL     1     -40.594  54.256 -48.491  1.00  0.00     0.210 C 
ENDBRANCH  16  21
ENDBRANCH  12  13
ENDBRANCH  11  12
ENDBRANCH   8  11
ENDBRANCH   2   7
BRANCH   1  23
HETATM   23  N   UNL     1     -43.217  58.998 -56.625  1.00  0.00    -0.321 N 
HETATM   24  C   UNL     1     -42.397  60.017 -56.175  1.00  0.00     0.265 C 
HETATM   25  O   UNL     1     -41.391  60.402 -56.764  1.00  0.00    -0.267 OA
HETATM   26  H   UNL     1     -44.007  58.760 -56.017  1.00  0.00     0.169 HD
BRANCH  24  27
HETATM   27  C   UNL     1     -42.820  60.632 -54.838  1.00  0.00     0.097 C 
HETATM   28  C   UNL     1     -42.228  60.273 -53.669  1.00  0.00     0.064 C 
HETATM   29  C   UNL     1     -41.135  59.242 -53.555  1.00  0.00     0.078 C 
HETATM   30  O   UNL     1     -42.538  60.782 -52.416  1.00  0.00    -0.353 OA
HETATM   31  C   UNL     1     -43.266  62.007 -52.370  1.00  0.00     0.185 C 
HETATM   32  C   UNL     1     -44.554  61.910 -53.156  1.00  0.00     0.106 C 
HETATM   33  S   UNL     1     -44.132  61.794 -54.906  1.00  0.00    -0.120 SA
ENDBRANCH  24  27
ENDBRANCH   1  23
TORSDOF 8
ENDMDL
MODEL 10
REMARK VINA RESULT:      -7.3      2.355      3.039
REMARK  8 active torsions:
REMARK  status: ('A' for Active; 'I' for Inactive)
REMARK    1  A    between atoms: C_7  and  C_8 
REMARK       I    between atoms: C_8  and  N_9 
REMARK    2  A    between atoms: N_9  and  C_10 
REMARK    3  A    between atoms: C_11  and  C_12 
REMARK       I    between atoms: C_12  and  N_13 
REMARK    4  A    between atoms: N_13  and  C_14 
REMARK    5  A    between atoms: C_14  and  C_15 
REMARK    6  A    between atoms: C_15  and  C_16 
REMARK    7  A    between atoms: C_18  and  O_19 
REMARK    8  A    between atoms: C_21  and  O_22 
ROOT
HETATM    1  C   UNL     1     -45.251  59.605 -55.301  1.00  0.00     0.050 A 
HETATM    2  C   UNL     1     -44.881  59.284 -53.974  1.00  0.00     0.058 A 
HETATM    3  C   UNL     1     -45.035  60.227 -52.941  1.00  0.00     0.019 A 
HETATM    4  C   UNL     1     -45.582  61.479 -53.208  1.00  0.00     0.001 A 
HETATM    5  C   UNL     1     -45.969  61.796 -54.505  1.00  0.00     0.002 A 
HETATM    6  C   UNL     1     -45.802  60.870 -55.541  1.00  0.00     0.030 A 
ENDROOT
BRANCH   2   7
HETATM    7  C   UNL     1     -44.316  57.948 -53.640  1.00  0.00     0.253 C 
HETATM    8  N   UNL     1     -43.195  57.945 -52.836  1.00  0.00    -0.356 N 
HETATM    9  H   UNL     1     -42.880  58.808 -52.411  1.00  0.00     0.162 HD
HETATM   10  O   UNL     1     -44.857  56.924 -54.041  1.00  0.00    -0.268 OA
BRANCH   8  11
HETATM   11  C   UNL     1     -42.562  56.702 -52.440  1.00  0.00     0.127 C 
BRANCH  11  12
HETATM   12  C   UNL     1     -41.434  56.275 -53.384  1.00  0.00     0.058 C 
BRANCH  12  13
HETATM   13  C   UNL     1     -40.967  54.837 -53.292  1.00  0.00    -0.054 A 
HETATM   14  C   UNL     1     -40.844  54.155 -52.072  1.00  0.00     0.046 A 
HETATM   15  C   UNL     1     -40.393  52.828 -52.026  1.00  0.00     0.102 A 
HETATM   16  C   UNL     1     -40.034  52.171 -53.218  1.00  0.00     0.101 A 
HETATM   17  C   UNL     1     -40.136  52.852 -54.434  1.00  0.00     0.040 A 
HETATM   18  C   UNL     1     -40.594  54.173 -54.468  1.00  0.00     0.010 A 
BRANCH  15  19
HETATM   19  O   UNL     1     -40.267  52.092 -50.873  1.00  0.00    -0.353 OA
HETATM   20  C   UNL     1     -40.483  52.755 -49.636  1.00  0.00     0.210 C 
ENDBRANCH  15  19
BRANCH  16  21
HETATM   21  O   UNL     1     -39.602  50.874 -53.090  1.00  0.00    -0.353 OA
HETATM   22  C   UNL     1     -39.957  49.958 -54.116  1.00  0.00     0.210 C 
ENDBRANCH  16  21
ENDBRANCH  12  13
ENDBRANCH  11  12
ENDBRANCH   8  11
ENDBRANCH   2   7
BRANCH   1  23
HETATM   23  N   UNL     1     -45.056  58.653 -56.335  1.00  0.00    -0.321 N 
HETATM   24  C   UNL     1     -44.038  58.587 -57.269  1.00  0.00     0.265 C 
HETATM   25  O   UNL     1     -43.133  59.412 -57.361  1.00  0.00    -0.267 OA
HETATM   26  H   UNL     1     -45.761  57.912 -56.391  1.00  0.00     0.169 HD
BRANCH  24  27
HETATM   27  C   UNL     1     -44.131  57.398 -58.230  1.00  0.00     0.097 C 
HETATM   28  C   UNL     1     -43.523  56.213 -57.958  1.00  0.00     0.064 C 
HETATM   29  C   UNL     1     -42.693  55.950 -56.727  1.00  0.00     0.078 C 
HETATM   30  O   UNL     1     -43.560  55.082 -58.761  1.00  0.00    -0.353 OA
HETATM   31  C   UNL     1     -44.579  55.021 -59.756  1.00  0.00     0.185 C 
HETATM   32  C   UNL     1     -44.530  56.227 -60.666  1.00  0.00     0.106 C 
HETATM   33  S   UNL     1     -45.034  57.670 -59.707  1.00  0.00    -0.120 SA
ENDBRANCH  24  27
ENDBRANCH   1  23
TORSDOF 8
ENDMDL
