MODEL 1
REMARK VINA RESULT:      -8.4      0.000      0.000
REMARK  5 active torsions:
REMARK  status: ('A' for Active; 'I' for Inactive)
REMARK    1  A    between atoms: C_2  and  C_3 
REMARK    2  A    between atoms: C_7  and  N_8 
REMARK    3  A    between atoms: C_13  and  N_14 
REMARK       I    between atoms: N_14  and  C_15 
REMARK    4  A    between atoms: C_15  and  C_16 
REMARK       I    between atoms: C_16  and  N_17 
REMARK    5  A    between atoms: N_17  and  C_18 
ROOT
HETATM    1  N   UNL     1     -40.888  54.382 -53.401  1.00  0.00    -0.045 N 
HETATM    2  N   UNL     1     -40.570  53.280 -52.649  1.00  0.00    -0.156 NA
HETATM    3  C   UNL     1     -40.151  52.379 -53.546  1.00  0.00     0.055 C 
HETATM    4  C   UNL     1     -39.654  51.048 -53.110  1.00  0.00     0.072 C 
HETATM    5  C   UNL     1     -40.268  52.854 -54.873  1.00  0.00     0.079 C 
HETATM    6  C   UNL     1     -40.857  54.090 -54.755  1.00  0.00     0.152 C 
ENDROOT
BRANCH   6   7
HETATM    7  N   UNL     1     -41.284  54.832 -55.840  1.00  0.00    -0.303 N 
HETATM    8  C   UNL     1     -42.677  54.927 -56.186  1.00  0.00     0.315 C 
HETATM    9  O   UNL     1     -43.545  54.300 -55.607  1.00  0.00    -0.262 OA
HETATM   10  H   UNL     1     -40.620  55.189 -56.521  1.00  0.00     0.171 HD
BRANCH   8  11
HETATM   11  C   UNL     1     -42.891  55.635 -57.534  1.00  0.00     0.310 C 
HETATM   12  N   UNL     1     -42.383  56.920 -57.618  1.00  0.00    -0.348 N 
HETATM   13  H   UNL     1     -41.840  57.270 -56.832  1.00  0.00     0.163 HD
HETATM   14  O   UNL     1     -43.637  55.099 -58.345  1.00  0.00    -0.262 OA
BRANCH  12  15
HETATM   15  C   UNL     1     -42.947  57.870 -58.567  1.00  0.00     0.085 C 
HETATM   16  C   UNL     1     -44.347  58.349 -58.138  1.00  0.00     0.034 C 
HETATM   17  C   UNL     1     -44.368  59.377 -56.981  1.00  0.00    -0.045 C 
HETATM   18  C   UNL     1     -43.984  58.745 -55.629  1.00  0.00     0.015 C 
HETATM   19  C   UNL     1     -45.808  59.911 -56.836  1.00  0.00     0.015 C 
HETATM   20  C   UNL     1     -43.426  60.548 -57.326  1.00  0.00     0.013 C 
HETATM   21  C   UNL     1     -42.002  60.102 -57.702  1.00  0.00    -0.016 C 
HETATM   22  C   UNL     1     -41.171  61.320 -58.118  1.00  0.00     0.010 C 
HETATM   23  C   UNL     1     -42.012  59.057 -58.829  1.00  0.00     0.029 C 
ENDBRANCH  12  15
ENDBRANCH   8  11
ENDBRANCH   6   7
BRANCH   1  24
HETATM   24  C   UNL     1     -41.015  55.635 -52.780  1.00  0.00     0.732 A 
HETATM   25  N   UNL     1     -41.080  55.522 -51.423  1.00  0.00    -0.152 N 
HETATM   26  C   UNL     1     -41.146  56.617 -50.623  1.00  0.00     0.268 A 
HETATM   27  H   UNL     1     -41.034  54.607 -50.987  1.00  0.00     0.188 HD
HETATM   28  C   UNL     1     -41.151  57.930 -51.332  1.00  0.00     0.035 A 
HETATM   29  O   UNL     1     -41.183  56.525 -49.403  1.00  0.00    -0.267 OA
HETATM   30  C   UNL     1     -41.084  57.909 -52.681  1.00  0.00     0.061 A 
HETATM   31  N   UNL     1     -41.014  56.752 -53.431  1.00  0.00    -0.067 NA
HETATM   32  C   UNL     1     -41.031  59.160 -53.524  1.00  0.00     0.072 C 
BRANCH  28  33
HETATM   33  C   UNL     1     -41.252  59.149 -50.453  1.00  0.00     0.042 C 
HETATM   34  C   UNL     1     -39.886  59.747 -50.150  1.00  0.00     0.010 C 
ENDBRANCH  28  33
ENDBRANCH   1  24
TORSDOF 5
ENDMDL
MODEL 2
REMARK VINA RESULT:      -8.1      2.805      8.127
REMARK  5 active torsions:
REMARK  status: ('A' for Active; 'I' for Inactive)
REMARK    1  A    between atoms: C_2  and  C_3 
REMARK    2  A    between atoms: C_7  and  N_8 
REMARK    3  A    between atoms: C_13  and  N_14 
REMARK       I    between atoms: N_14  and  C_15 
REMARK    4  A    between atoms: C_15  and  C_16 
REMARK       I    between atoms: C_16  and  N_17 
REMARK    5  A    between atoms: N_17  and  C_18 
ROOT
HETATM    1  N   UNL     1     -43.652  59.572 -55.550  1.00  0.00    -0.045 N 
HETATM    2  N   UNL     1     -43.777  60.872 -55.969  1.00  0.00    -0.156 NA
HETATM    3  C   UNL     1     -43.493  61.598 -54.881  1.00  0.00     0.055 C 
HETATM    4  C   UNL     1     -43.465  63.082 -54.946  1.00  0.00     0.072 C 
HETATM    5  C   UNL     1     -43.264  60.787 -53.745  1.00  0.00     0.079 C 
HETATM    6  C   UNL     1     -43.494  59.503 -54.174  1.00  0.00     0.152 C 
ENDROOT
BRANCH   6   7
HETATM    7  N   UNL     1     -43.521  58.413 -53.325  1.00  0.00    -0.303 N 
HETATM    8  C   UNL     1     -44.548  58.261 -52.329  1.00  0.00     0.315 C 
HETATM    9  O   UNL     1     -45.393  59.111 -52.117  1.00  0.00    -0.262 OA
HETATM   10  H   UNL     1     -42.729  57.780 -53.264  1.00  0.00     0.171 HD
BRANCH   8  11
HETATM   11  C   UNL     1     -44.262  57.086 -51.378  1.00  0.00     0.310 C 
HETATM   12  N   UNL     1     -43.182  56.292 -51.722  1.00  0.00    -0.348 N 
HETATM   13  H   UNL     1     -42.611  56.580 -52.514  1.00  0.00     0.163 HD
HETATM   14  O   UNL     1     -45.098  56.836 -50.518  1.00  0.00    -0.262 OA
BRANCH  12  15
HETATM   15  C   UNL     1     -43.117  54.909 -51.270  1.00  0.00     0.085 C 
HETATM   16  C   UNL     1     -42.801  53.939 -52.425  1.00  0.00     0.034 C 
HETATM   17  C   UNL     1     -41.328  53.933 -52.898  1.00  0.00    -0.045 C 
HETATM   18  C   UNL     1     -40.949  55.223 -53.652  1.00  0.00     0.015 C 
HETATM   19  C   UNL     1     -41.144  52.763 -53.887  1.00  0.00     0.015 C 
HETATM   20  C   UNL     1     -40.405  53.718 -51.681  1.00  0.00     0.013 C 
HETATM   21  C   UNL     1     -40.659  54.712 -50.534  1.00  0.00    -0.016 C 
HETATM   22  C   UNL     1     -39.766  54.361 -49.340  1.00  0.00     0.010 C 
HETATM   23  C   UNL     1     -42.135  54.722 -50.107  1.00  0.00     0.029 C 
ENDBRANCH  12  15
ENDBRANCH   8  11
ENDBRANCH   6   7
BRANCH   1  24
HETATM   24  C   UNL     1     -43.517  58.544 -56.498  1.00  0.00     0.732 A 
HETATM   25  N   UNL     1     -43.551  59.026 -57.772  1.00  0.00    -0.152 N 
HETATM   26  C   UNL     1     -43.378  58.209 -58.843  1.00  0.00     0.268 A 
HETATM   27  H   UNL     1     -43.661  60.022 -57.937  1.00  0.00     0.188 HD
HETATM   28  C   UNL     1     -43.163  56.768 -58.522  1.00  0.00     0.035 A 
HETATM   29  O   UNL     1     -43.386  58.636 -59.990  1.00  0.00    -0.267 OA
HETATM   30  C   UNL     1     -43.153  56.415 -57.218  1.00  0.00     0.061 A 
HETATM   31  N   UNL     1     -43.331  57.305 -56.178  1.00  0.00    -0.067 NA
HETATM   32  C   UNL     1     -42.898  55.005 -56.747  1.00  0.00     0.072 C 
BRANCH  28  33
HETATM   33  C   UNL     1     -42.999  55.851 -59.706  1.00  0.00     0.042 C 
HETATM   34  C   UNL     1     -44.311  55.188 -60.099  1.00  0.00     0.010 C 
ENDBRANCH  28  33
ENDBRANCH   1  24
TORSDOF 5
ENDMDL
MODEL 3
REMARK VINA RESULT:      -8.0      2.321      4.313
REMARK  5 active torsions:
REMARK  status: ('A' for Active; 'I' for Inactive)
REMARK    1  A    between atoms: C_2  and  C_3 
REMARK    2  A    between atoms: C_7  and  N_8 
REMARK    3  A    between atoms: C_13  and  N_14 
REMARK       I    between atoms: N_14  and  C_15 
REMARK    4  A    between atoms: C_15  and  C_16 
REMARK       I    between atoms: C_16  and  N_17 
REMARK    5  A    between atoms: N_17  and  C_18 
ROOT
HETATM    1  N   UNL     1     -42.700  55.860 -52.688  1.00  0.00    -0.045 N 
HETATM    2  N   UNL     1     -43.120  56.539 -51.573  1.00  0.00    -0.156 NA
HETATM    3  C   UNL     1     -44.210  57.202 -51.981  1.00  0.00     0.055 C 
HETATM    4  C   UNL     1     -45.000  58.023 -51.027  1.00  0.00     0.072 C 
HETATM    5  C   UNL     1     -44.455  57.023 -53.362  1.00  0.00     0.079 C 
HETATM    6  C   UNL     1     -43.404  56.262 -53.813  1.00  0.00     0.152 C 
ENDROOT
BRANCH   6   7
HETATM    7  N   UNL     1     -43.187  55.986 -55.149  1.00  0.00    -0.303 N 
HETATM    8  C   UNL     1     -42.504  56.916 -56.008  1.00  0.00     0.315 C 
HETATM    9  O   UNL     1     -42.157  58.023 -55.639  1.00  0.00    -0.262 OA
HETATM   10  H   UNL     1     -43.648  55.202 -55.601  1.00  0.00     0.171 HD
BRANCH   8  11
HETATM   11  C   UNL     1     -42.555  56.485 -57.484  1.00  0.00     0.310 C 
HETATM   12  N   UNL     1     -42.125  57.435 -58.395  1.00  0.00    -0.348 N 
HETATM   13  H   UNL     1     -41.735  58.302 -58.033  1.00  0.00     0.163 HD
HETATM   14  O   UNL     1     -43.130  55.437 -57.750  1.00  0.00    -0.262 OA
BRANCH  12  15
HETATM   15  C   UNL     1     -42.599  57.394 -59.772  1.00  0.00     0.085 C 
HETATM   16  C   UNL     1     -44.134  57.502 -59.856  1.00  0.00     0.034 C 
HETATM   17  C   UNL     1     -44.711  58.917 -59.620  1.00  0.00    -0.045 C 
HETATM   18  C   UNL     1     -44.592  59.362 -58.149  1.00  0.00     0.015 C 
HETATM   19  C   UNL     1     -46.215  58.888 -59.961  1.00  0.00     0.015 C 
HETATM   20  C   UNL     1     -44.000  59.918 -60.554  1.00  0.00     0.013 C 
HETATM   21  C   UNL     1     -42.465  59.874 -60.448  1.00  0.00    -0.016 C 
HETATM   22  C   UNL     1     -41.848  60.828 -61.475  1.00  0.00     0.010 C 
HETATM   23  C   UNL     1     -41.921  58.451 -60.653  1.00  0.00     0.029 C 
ENDBRANCH  12  15
ENDBRANCH   8  11
ENDBRANCH   6   7
BRANCH   1  24
HETATM   24  C   UNL     1     -41.809  54.783 -52.553  1.00  0.00     0.732 A 
HETATM   25  N   UNL     1     -41.237  54.753 -51.316  1.00  0.00    -0.152 N 
HETATM   26  C   UNL     1     -40.388  53.758 -50.953  1.00  0.00     0.268 A 
HETATM   27  H   UNL     1     -41.479  55.458 -50.627  1.00  0.00     0.188 HD
HETATM   28  C   UNL     1     -40.126  52.725 -51.997  1.00  0.00     0.035 A 
HETATM   29  O   UNL     1     -39.887  53.712 -49.837  1.00  0.00    -0.267 OA
HETATM   30  C   UNL     1     -40.752  52.867 -53.185  1.00  0.00     0.061 A 
HETATM   31  N   UNL     1     -41.610  53.907 -53.483  1.00  0.00    -0.067 NA
HETATM   32  C   UNL     1     -40.619  51.874 -54.312  1.00  0.00     0.072 C 
BRANCH  28  33
HETATM   33  C   UNL     1     -39.162  51.633 -51.610  1.00  0.00     0.042 C 
HETATM   34  C   UNL     1     -39.864  50.472 -50.922  1.00  0.00     0.010 C 
ENDBRANCH  28  33
ENDBRANCH   1  24
TORSDOF 5
ENDMDL
MODEL 4
REMARK VINA RESULT:      -8.0      2.676      8.431
REMARK  5 active torsions:
REMARK  status: ('A' for Active; 'I' for Inactive)
REMARK    1  A    between atoms: C_2  and  C_3 
REMARK    2  A    between atoms: C_7  and  N_8 
REMARK    3  A    between atoms: C_13  and  N_14 
REMARK       I    between atoms: N_14  and  C_15 
REMARK    4  A    between atoms: C_15  and  C_16 
REMARK       I    between atoms: C_16  and  N_17 
REMARK    5  A    between atoms: N_17  and  C_18 
ROOT
HETATM    1  N   UNL     1     -43.763  59.936 -58.239  1.00  0.00    -0.045 N 
HETATM    2  N   UNL     1     -43.528  61.080 -58.957  1.00  0.00    -0.156 NA
HETATM    3  C   UNL     1     -42.844  61.864 -58.115  1.00  0.00     0.055 C 
HETATM    4  C   UNL     1     -42.347  63.194 -58.552  1.00  0.00     0.072 C 
HETATM    5  C   UNL     1     -42.702  61.276 -56.837  1.00  0.00     0.079 C 
HETATM    6  C   UNL     1     -43.405  60.098 -56.909  1.00  0.00     0.152 C 
ENDROOT
BRANCH   6   7
HETATM    7  N   UNL     1     -43.641  59.288 -55.815  1.00  0.00    -0.303 N 
HETATM    8  C   UNL     1     -42.898  58.075 -55.602  1.00  0.00     0.315 C 
HETATM    9  O   UNL     1     -42.089  57.648 -56.405  1.00  0.00    -0.262 OA
HETATM   10  H   UNL     1     -44.454  59.434 -55.224  1.00  0.00     0.171 HD
BRANCH   8  11
HETATM   11  C   UNL     1     -43.465  57.245 -54.438  1.00  0.00     0.310 C 
HETATM   12  N   UNL     1     -42.536  56.504 -53.728  1.00  0.00    -0.348 N 
HETATM   13  H   UNL     1     -41.553  56.621 -53.964  1.00  0.00     0.163 HD
HETATM   14  O   UNL     1     -44.683  57.156 -54.346  1.00  0.00    -0.262 OA
BRANCH  12  15
HETATM   15  C   UNL     1     -42.952  55.315 -52.998  1.00  0.00     0.085 C 
HETATM   16  C   UNL     1     -42.611  54.021 -53.763  1.00  0.00     0.034 C 
HETATM   17  C   UNL     1     -41.121  53.610 -53.734  1.00  0.00    -0.045 C 
HETATM   18  C   UNL     1     -40.237  54.544 -54.583  1.00  0.00     0.015 C 
HETATM   19  C   UNL     1     -40.998  52.198 -54.344  1.00  0.00     0.015 C 
HETATM   20  C   UNL     1     -40.632  53.573 -52.271  1.00  0.00     0.013 C 
HETATM   21  C   UNL     1     -40.906  54.876 -51.499  1.00  0.00    -0.016 C 
HETATM   22  C   UNL     1     -40.475  54.711 -50.038  1.00  0.00     0.010 C 
HETATM   23  C   UNL     1     -42.387  55.279 -51.572  1.00  0.00     0.029 C 
ENDBRANCH  12  15
ENDBRANCH   8  11
ENDBRANCH   6   7
BRANCH   1  24
HETATM   24  C   UNL     1     -44.131  58.757 -58.907  1.00  0.00     0.732 A 
HETATM   25  N   UNL     1     -43.042  58.028 -59.281  1.00  0.00    -0.152 N 
HETATM   26  C   UNL     1     -43.173  56.821 -59.890  1.00  0.00     0.268 A 
HETATM   27  H   UNL     1     -42.108  58.362 -59.064  1.00  0.00     0.188 HD
HETATM   28  C   UNL     1     -44.575  56.369 -60.123  1.00  0.00     0.035 A 
HETATM   29  O   UNL     1     -42.200  56.151 -60.209  1.00  0.00    -0.267 OA
HETATM   30  C   UNL     1     -45.570  57.183 -59.708  1.00  0.00     0.061 A 
HETATM   31  N   UNL     1     -45.360  58.399 -59.089  1.00  0.00    -0.067 NA
HETATM   32  C   UNL     1     -47.031  56.832 -59.835  1.00  0.00     0.072 C 
BRANCH  28  33
HETATM   33  C   UNL     1     -44.727  55.044 -60.824  1.00  0.00     0.042 C 
HETATM   34  C   UNL     1     -44.818  53.887 -59.840  1.00  0.00     0.010 C 
ENDBRANCH  28  33
ENDBRANCH   1  24
TORSDOF 5
ENDMDL
MODEL 5
REMARK VINA RESULT:      -7.7      3.133      6.395
REMARK  5 active torsions:
REMARK  status: ('A' for Active; 'I' for Inactive)
REMARK    1  A    between atoms: C_2  and  C_3 
REMARK    2  A    between atoms: C_7  and  N_8 
REMARK    3  A    between atoms: C_13  and  N_14 
REMARK       I    between atoms: N_14  and  C_15 
REMARK    4  A    between atoms: C_15  and  C_16 
REMARK       I    between atoms: C_16  and  N_17 
REMARK    5  A    between atoms: N_17  and  C_18 
ROOT
HETATM    1  N   UNL     1     -41.922  55.012 -54.462  1.00  0.00    -0.045 N 
HETATM    2  N   UNL     1     -42.418  54.600 -55.672  1.00  0.00    -0.156 NA
HETATM    3  C   UNL     1     -42.607  55.735 -56.355  1.00  0.00     0.055 C 
HETATM    4  C   UNL     1     -43.090  55.704 -57.759  1.00  0.00     0.072 C 
HETATM    5  C   UNL     1     -42.315  56.879 -55.577  1.00  0.00     0.079 C 
HETATM    6  C   UNL     1     -41.999  56.390 -54.333  1.00  0.00     0.152 C 
ENDROOT
BRANCH   6   7
HETATM    7  N   UNL     1     -41.793  57.198 -53.231  1.00  0.00    -0.303 N 
HETATM    8  C   UNL     1     -42.841  57.454 -52.279  1.00  0.00     0.315 C 
HETATM    9  O   UNL     1     -43.980  57.053 -52.429  1.00  0.00    -0.262 OA
HETATM   10  H   UNL     1     -40.956  57.768 -53.151  1.00  0.00     0.171 HD
BRANCH   8  11
HETATM   11  C   UNL     1     -42.443  58.530 -51.256  1.00  0.00     0.310 C 
HETATM   12  N   UNL     1     -43.470  59.358 -50.834  1.00  0.00    -0.348 N 
HETATM   13  H   UNL     1     -44.412  59.151 -51.156  1.00  0.00     0.163 HD
HETATM   14  O   UNL     1     -41.249  58.693 -51.038  1.00  0.00    -0.262 OA
BRANCH  12  15
HETATM   15  C   UNL     1     -43.173  60.690 -50.324  1.00  0.00     0.085 C 
HETATM   16  C   UNL     1     -42.992  61.714 -51.461  1.00  0.00     0.034 C 
HETATM   17  C   UNL     1     -44.299  62.184 -52.142  1.00  0.00    -0.045 C 
HETATM   18  C   UNL     1     -44.937  61.081 -53.010  1.00  0.00     0.015 C 
HETATM   19  C   UNL     1     -43.957  63.356 -53.085  1.00  0.00     0.015 C 
HETATM   20  C   UNL     1     -45.286  62.672 -51.063  1.00  0.00     0.013 C 
HETATM   21  C   UNL     1     -45.533  61.645 -49.944  1.00  0.00    -0.016 C 
HETATM   22  C   UNL     1     -46.447  62.253 -48.876  1.00  0.00     0.010 C 
HETATM   23  C   UNL     1     -44.216  61.171 -49.308  1.00  0.00     0.029 C 
ENDBRANCH  12  15
ENDBRANCH   8  11
ENDBRANCH   6   7
BRANCH   1  24
HETATM   24  C   UNL     1     -41.266  54.091 -53.627  1.00  0.00     0.732 A 
HETATM   25  N   UNL     1     -40.995  52.925 -54.278  1.00  0.00    -0.152 N 
HETATM   26  C   UNL     1     -40.312  51.919 -53.673  1.00  0.00     0.268 A 
HETATM   27  H   UNL     1     -41.263  52.811 -55.250  1.00  0.00     0.188 HD
HETATM   28  C   UNL     1     -39.900  52.181 -52.263  1.00  0.00     0.035 A 
HETATM   29  O   UNL     1     -40.046  50.877 -54.257  1.00  0.00    -0.267 OA
HETATM   30  C   UNL     1     -40.231  53.376 -51.729  1.00  0.00     0.061 A 
HETATM   31  N   UNL     1     -40.924  54.358 -52.409  1.00  0.00    -0.067 NA
HETATM   32  C   UNL     1     -39.836  53.795 -50.335  1.00  0.00     0.072 C 
BRANCH  28  33
HETATM   33  C   UNL     1     -39.167  51.058 -51.577  1.00  0.00     0.042 C 
HETATM   34  C   UNL     1     -40.089  50.234 -50.690  1.00  0.00     0.010 C 
ENDBRANCH  28  33
ENDBRANCH   1  24
TORSDOF 5
ENDMDL
MODEL 6
REMARK VINA RESULT:      -7.7      1.758      4.299
REMARK  5 active torsions:
REMARK  status: ('A' for Active; 'I' for Inactive)
REMARK    1  A    between atoms: C_2  and  C_3 
REMARK    2  A    between atoms: C_7  and  N_8 
REMARK    3  A    between atoms: C_13  and  N_14 
REMARK       I    between atoms: N_14  and  C_15 
REMARK    4  A    between atoms: C_15  and  C_16 
REMARK       I    between atoms: C_16  and  N_17 
REMARK    5  A    between atoms: N_17  and  C_18 
ROOT
HETATM    1  N   UNL     1     -41.398  57.096 -52.223  1.00  0.00    -0.045 N 
HETATM    2  N   UNL     1     -41.373  57.981 -51.176  1.00  0.00    -0.156 NA
HETATM    3  C   UNL     1     -42.039  59.049 -51.631  1.00  0.00     0.055 C 
HETATM    4  C   UNL     1     -42.280  60.223 -50.753  1.00  0.00     0.072 C 
HETATM    5  C   UNL     1     -42.425  58.899 -52.983  1.00  0.00     0.079 C 
HETATM    6  C   UNL     1     -41.895  57.693 -53.371  1.00  0.00     0.152 C 
ENDROOT
BRANCH   6   7
HETATM    7  N   UNL     1     -41.920  57.240 -54.677  1.00  0.00    -0.303 N 
HETATM    8  C   UNL     1     -43.048  56.520 -55.202  1.00  0.00     0.315 C 
HETATM    9  O   UNL     1     -44.000  56.194 -54.517  1.00  0.00    -0.262 OA
HETATM   10  H   UNL     1     -41.080  57.252 -55.248  1.00  0.00     0.171 HD
BRANCH   8  11
HETATM   11  C   UNL     1     -42.769  55.948 -56.602  1.00  0.00     0.310 C 
HETATM   12  N   UNL     1     -42.491  56.885 -57.583  1.00  0.00    -0.348 N 
HETATM   13  H   UNL     1     -42.409  57.860 -57.301  1.00  0.00     0.163 HD
HETATM   14  O   UNL     1     -42.991  54.757 -56.784  1.00  0.00    -0.262 OA
BRANCH  12  15
HETATM   15  C   UNL     1     -42.735  56.572 -58.984  1.00  0.00     0.085 C 
HETATM   16  C   UNL     1     -44.240  56.519 -59.309  1.00  0.00     0.034 C 
HETATM   17  C   UNL     1     -44.942  57.894 -59.416  1.00  0.00    -0.045 C 
HETATM   18  C   UNL     1     -45.090  58.585 -58.046  1.00  0.00     0.015 C 
HETATM   19  C   UNL     1     -46.367  57.666 -59.961  1.00  0.00     0.015 C 
HETATM   20  C   UNL     1     -44.160  58.788 -60.399  1.00  0.00     0.013 C 
HETATM   21  C   UNL     1     -42.663  58.907 -60.065  1.00  0.00    -0.016 C 
HETATM   22  C   UNL     1     -41.955  59.732 -61.144  1.00  0.00     0.010 C 
HETATM   23  C   UNL     1     -41.998  57.527 -59.931  1.00  0.00     0.029 C 
ENDBRANCH  12  15
ENDBRANCH   8  11
ENDBRANCH   6   7
BRANCH   1  24
HETATM   24  C   UNL     1     -41.121  55.738 -51.995  1.00  0.00     0.732 A 
HETATM   25  N   UNL     1     -41.003  55.464 -50.665  1.00  0.00    -0.152 N 
HETATM   26  C   UNL     1     -40.794  54.199 -50.218  1.00  0.00     0.268 A 
HETATM   27  H   UNL     1     -41.117  56.206 -49.981  1.00  0.00     0.188 HD
HETATM   28  C   UNL     1     -40.696  53.153 -51.277  1.00  0.00     0.035 A 
HETATM   29  O   UNL     1     -40.709  53.941 -49.025  1.00  0.00    -0.267 OA
HETATM   30  C   UNL     1     -40.828  53.552 -52.561  1.00  0.00     0.061 A 
HETATM   31  N   UNL     1     -41.045  54.861 -52.941  1.00  0.00    -0.067 NA
HETATM   32  C   UNL     1     -40.799  52.597 -53.729  1.00  0.00     0.072 C 
BRANCH  28  33
HETATM   33  C   UNL     1     -40.436  51.751 -50.790  1.00  0.00     0.042 C 
HETATM   34  C   UNL     1     -39.279  51.096 -51.531  1.00  0.00     0.010 C 
ENDBRANCH  28  33
ENDBRANCH   1  24
TORSDOF 5
ENDMDL
MODEL 7
REMARK VINA RESULT:      -7.6      2.775      5.298
REMARK  5 active torsions:
REMARK  status: ('A' for Active; 'I' for Inactive)
REMARK    1  A    between atoms: C_2  and  C_3 
REMARK    2  A    between atoms: C_7  and  N_8 
REMARK    3  A    between atoms: C_13  and  N_14 
REMARK       I    between atoms: N_14  and  C_15 
REMARK    4  A    between atoms: C_15  and  C_16 
REMARK       I    between atoms: C_16  and  N_17 
REMARK    5  A    between atoms: N_17  and  C_18 
ROOT
HETATM    1  N   UNL     1     -43.636  57.836 -52.758  1.00  0.00    -0.045 N 
HETATM    2  N   UNL     1     -44.049  58.037 -51.466  1.00  0.00    -0.156 NA
HETATM    3  C   UNL     1     -44.863  59.097 -51.541  1.00  0.00     0.055 C 
HETATM    4  C   UNL     1     -45.569  59.599 -50.334  1.00  0.00     0.072 C 
HETATM    5  C   UNL     1     -44.920  59.632 -52.849  1.00  0.00     0.079 C 
HETATM    6  C   UNL     1     -44.030  58.881 -53.578  1.00  0.00     0.152 C 
ENDROOT
BRANCH   6   7
HETATM    7  N   UNL     1     -43.676  59.179 -54.880  1.00  0.00    -0.303 N 
HETATM    8  C   UNL     1     -42.366  59.672 -55.210  1.00  0.00     0.315 C 
HETATM    9  O   UNL     1     -41.528  59.936 -54.367  1.00  0.00    -0.262 OA
HETATM   10  H   UNL     1     -44.377  59.221 -55.614  1.00  0.00     0.171 HD
BRANCH   8  11
HETATM   11  C   UNL     1     -42.268  60.118 -56.679  1.00  0.00     0.310 C 
HETATM   12  N   UNL     1     -43.390  59.871 -57.451  1.00  0.00    -0.348 N 
HETATM   13  H   UNL     1     -44.215  59.498 -56.988  1.00  0.00     0.163 HD
HETATM   14  O   UNL     1     -41.171  60.476 -57.091  1.00  0.00    -0.262 OA
BRANCH  12  15
HETATM   15  C   UNL     1     -43.268  59.735 -58.897  1.00  0.00     0.085 C 
HETATM   16  C   UNL     1     -42.541  58.436 -59.293  1.00  0.00     0.034 C 
HETATM   17  C   UNL     1     -43.381  57.144 -59.166  1.00  0.00    -0.045 C 
HETATM   18  C   UNL     1     -43.637  56.751 -57.698  1.00  0.00     0.015 C 
HETATM   19  C   UNL     1     -42.587  55.987 -59.808  1.00  0.00     0.015 C 
HETATM   20  C   UNL     1     -44.712  57.327 -59.924  1.00  0.00     0.013 C 
HETATM   21  C   UNL     1     -45.489  58.587 -59.506  1.00  0.00    -0.016 C 
HETATM   22  C   UNL     1     -46.742  58.735 -60.375  1.00  0.00     0.010 C 
HETATM   23  C   UNL     1     -44.621  59.852 -59.609  1.00  0.00     0.029 C 
ENDBRANCH  12  15
ENDBRANCH   8  11
ENDBRANCH   6   7
BRANCH   1  24
HETATM   24  C   UNL     1     -43.070  56.603 -53.124  1.00  0.00     0.732 A 
HETATM   25  N   UNL     1     -42.139  56.187 -52.220  1.00  0.00    -0.152 N 
HETATM   26  C   UNL     1     -41.511  54.990 -52.351  1.00  0.00     0.268 A 
HETATM   27  H   UNL     1     -41.935  56.754 -51.403  1.00  0.00     0.188 HD
HETATM   28  C   UNL     1     -41.903  54.186 -53.545  1.00  0.00     0.035 A 
HETATM   29  O   UNL     1     -40.689  54.599 -51.532  1.00  0.00    -0.267 OA
HETATM   30  C   UNL     1     -42.837  54.710 -54.368  1.00  0.00     0.061 A 
HETATM   31  N   UNL     1     -43.439  55.936 -54.168  1.00  0.00    -0.067 NA
HETATM   32  C   UNL     1     -43.364  53.987 -55.583  1.00  0.00     0.072 C 
BRANCH  28  33
HETATM   33  C   UNL     1     -41.190  52.870 -53.711  1.00  0.00     0.042 C 
HETATM   34  C   UNL     1     -40.022  52.975 -54.681  1.00  0.00     0.010 C 
ENDBRANCH  28  33
ENDBRANCH   1  24
TORSDOF 5
ENDMDL
MODEL 8
REMARK VINA RESULT:      -7.5      3.024      6.177
REMARK  5 active torsions:
REMARK  status: ('A' for Active; 'I' for Inactive)
REMARK    1  A    between atoms: C_2  and  C_3 
REMARK    2  A    between atoms: C_7  and  N_8 
REMARK    3  A    between atoms: C_13  and  N_14 
REMARK       I    between atoms: N_14  and  C_15 
REMARK    4  A    between atoms: C_15  and  C_16 
REMARK       I    between atoms: C_16  and  N_17 
REMARK    5  A    between atoms: N_17  and  C_18 
ROOT
HETATM    1  N   UNL     1     -42.008  54.849 -54.932  1.00  0.00    -0.045 N 
HETATM    2  N   UNL     1     -40.963  53.969 -55.054  1.00  0.00    -0.156 NA
HETATM    3  C   UNL     1     -41.066  53.183 -53.975  1.00  0.00     0.055 C 
HETATM    4  C   UNL     1     -40.131  52.047 -53.772  1.00  0.00     0.072 C 
HETATM    5  C   UNL     1     -42.114  53.591 -53.117  1.00  0.00     0.079 C 
HETATM    6  C   UNL     1     -42.619  54.732 -53.693  1.00  0.00     0.152 C 
ENDROOT
BRANCH   6   7
HETATM    7  N   UNL     1     -43.567  55.531 -53.084  1.00  0.00    -0.303 N 
HETATM    8  C   UNL     1     -43.201  56.731 -52.381  1.00  0.00     0.315 C 
HETATM    9  O   UNL     1     -42.044  57.067 -52.207  1.00  0.00    -0.262 OA
HETATM   10  H   UNL     1     -44.524  55.209 -52.969  1.00  0.00     0.171 HD
BRANCH   8  11
HETATM   11  C   UNL     1     -44.391  57.344 -51.623  1.00  0.00     0.310 C 
HETATM   12  N   UNL     1     -44.752  58.621 -52.017  1.00  0.00    -0.348 N 
HETATM   13  H   UNL     1     -44.274  59.027 -52.818  1.00  0.00     0.163 HD
HETATM   14  O   UNL     1     -44.798  56.751 -50.632  1.00  0.00    -0.262 OA
BRANCH  12  15
HETATM   15  C   UNL     1     -45.452  59.502 -51.091  1.00  0.00     0.085 C 
HETATM   16  C   UNL     1     -44.486  60.457 -50.364  1.00  0.00     0.034 C 
HETATM   17  C   UNL     1     -43.963  61.640 -51.212  1.00  0.00    -0.045 C 
HETATM   18  C   UNL     1     -42.966  61.188 -52.298  1.00  0.00     0.015 C 
HETATM   19  C   UNL     1     -43.203  62.604 -50.278  1.00  0.00     0.015 C 
HETATM   20  C   UNL     1     -45.159  62.382 -51.841  1.00  0.00     0.013 C 
HETATM   21  C   UNL     1     -46.111  61.461 -52.625  1.00  0.00    -0.016 C 
HETATM   22  C   UNL     1     -47.312  62.266 -53.129  1.00  0.00     0.010 C 
HETATM   23  C   UNL     1     -46.588  60.276 -51.770  1.00  0.00     0.029 C 
ENDBRANCH  12  15
ENDBRANCH   8  11
ENDBRANCH   6   7
BRANCH   1  24
HETATM   24  C   UNL     1     -42.436  55.582 -56.051  1.00  0.00     0.732 A 
HETATM   25  N   UNL     1     -42.134  56.905 -55.933  1.00  0.00    -0.152 N 
HETATM   26  C   UNL     1     -42.406  57.786 -56.931  1.00  0.00     0.268 A 
HETATM   27  H   UNL     1     -41.653  57.245 -55.106  1.00  0.00     0.188 HD
HETATM   28  C   UNL     1     -43.060  57.204 -58.139  1.00  0.00     0.035 A 
HETATM   29  O   UNL     1     -42.118  58.972 -56.842  1.00  0.00    -0.267 OA
HETATM   30  C   UNL     1     -43.310  55.876 -58.133  1.00  0.00     0.061 A 
HETATM   31  N   UNL     1     -42.999  55.039 -57.081  1.00  0.00    -0.067 NA
HETATM   32  C   UNL     1     -43.920  55.147 -59.305  1.00  0.00     0.072 C 
BRANCH  28  33
HETATM   33  C   UNL     1     -43.391  58.179 -59.238  1.00  0.00     0.042 C 
HETATM   34  C   UNL     1     -42.266  58.293 -60.256  1.00  0.00     0.010 C 
ENDBRANCH  28  33
ENDBRANCH   1  24
TORSDOF 5
ENDMDL
MODEL 9
REMARK VINA RESULT:      -7.4      3.088      5.668
REMARK  5 active torsions:
REMARK  status: ('A' for Active; 'I' for Inactive)
REMARK    1  A    between atoms: C_2  and  C_3 
REMARK    2  A    between atoms: C_7  and  N_8 
REMARK    3  A    between atoms: C_13  and  N_14 
REMARK       I    between atoms: N_14  and  C_15 
REMARK    4  A    between atoms: C_15  and  C_16 
REMARK       I    between atoms: C_16  and  N_17 
REMARK    5  A    between atoms: N_17  and  C_18 
ROOT
HETATM    1  N   UNL     1     -44.174  58.977 -52.031  1.00  0.00    -0.045 N 
HETATM    2  N   UNL     1     -43.907  59.737 -50.921  1.00  0.00    -0.156 NA
HETATM    3  C   UNL     1     -44.825  60.711 -50.960  1.00  0.00     0.055 C 
HETATM    4  C   UNL     1     -44.903  61.723 -49.875  1.00  0.00     0.072 C 
HETATM    5  C   UNL     1     -45.632  60.636 -52.119  1.00  0.00     0.079 C 
HETATM    6  C   UNL     1     -45.112  59.592 -52.845  1.00  0.00     0.152 C 
ENDROOT
BRANCH   6   7
HETATM    7  N   UNL     1     -45.526  59.281 -54.126  1.00  0.00    -0.303 N 
HETATM    8  C   UNL     1     -44.777  59.698 -55.281  1.00  0.00     0.315 C 
HETATM    9  O   UNL     1     -43.795  60.414 -55.208  1.00  0.00    -0.262 OA
HETATM   10  H   UNL     1     -46.452  58.899 -54.297  1.00  0.00     0.171 HD
BRANCH   8  11
HETATM   11  C   UNL     1     -45.528  59.412 -56.592  1.00  0.00     0.310 C 
HETATM   12  N   UNL     1     -45.101  58.295 -57.290  1.00  0.00    -0.348 N 
HETATM   13  H   UNL     1     -44.394  57.704 -56.859  1.00  0.00     0.163 HD
HETATM   14  O   UNL     1     -46.297  60.271 -57.005  1.00  0.00    -0.262 OA
BRANCH  12  15
HETATM   15  C   UNL     1     -45.317  58.204 -58.728  1.00  0.00     0.085 C 
HETATM   16  C   UNL     1     -44.202  58.910 -59.523  1.00  0.00     0.034 C 
HETATM   17  C   UNL     1     -42.860  58.145 -59.600  1.00  0.00    -0.045 C 
HETATM   18  C   UNL     1     -42.116  58.127 -58.250  1.00  0.00     0.015 C 
HETATM   19  C   UNL     1     -41.946  58.875 -60.607  1.00  0.00     0.015 C 
HETATM   20  C   UNL     1     -43.120  56.710 -60.102  1.00  0.00     0.013 C 
HETATM   21  C   UNL     1     -44.188  55.959 -59.288  1.00  0.00    -0.016 C 
HETATM   22  C   UNL     1     -44.446  54.586 -59.915  1.00  0.00     0.010 C 
HETATM   23  C   UNL     1     -45.500  56.755 -59.199  1.00  0.00     0.029 C 
ENDBRANCH  12  15
ENDBRANCH   8  11
ENDBRANCH   6   7
BRANCH   1  24
HETATM   24  C   UNL     1     -43.657  57.674 -52.123  1.00  0.00     0.732 A 
HETATM   25  N   UNL     1     -43.007  57.307 -50.983  1.00  0.00    -0.152 N 
HETATM   26  C   UNL     1     -42.481  56.064 -50.836  1.00  0.00     0.268 A 
HETATM   27  H   UNL     1     -42.948  57.952 -50.201  1.00  0.00     0.188 HD
HETATM   28  C   UNL     1     -42.657  55.151 -52.004  1.00  0.00     0.035 A 
HETATM   29  O   UNL     1     -41.915  55.719 -49.807  1.00  0.00    -0.267 OA
HETATM   30  C   UNL     1     -43.318  55.634 -53.078  1.00  0.00     0.061 A 
HETATM   31  N   UNL     1     -43.832  56.913 -53.154  1.00  0.00    -0.067 NA
HETATM   32  C   UNL     1     -43.611  54.809 -54.306  1.00  0.00     0.072 C 
BRANCH  28  33
HETATM   33  C   UNL     1     -42.051  53.779 -51.859  1.00  0.00     0.042 C 
HETATM   34  C   UNL     1     -40.635  53.722 -52.412  1.00  0.00     0.010 C 
ENDBRANCH  28  33
ENDBRANCH   1  24
TORSDOF 5
ENDMDL
MODEL 10
REMARK VINA RESULT:      -7.4      2.915      6.583
REMARK  5 active torsions:
REMARK  status: ('A' for Active; 'I' for Inactive)
REMARK    1  A    between atoms: C_2  and  C_3 
REMARK    2  A    between atoms: C_7  and  N_8 
REMARK    3  A    between atoms: C_13  and  N_14 
REMARK       I    between atoms: N_14  and  C_15 
REMARK    4  A    between atoms: C_15  and  C_16 
REMARK       I    between atoms: C_16  and  N_17 
REMARK    5  A    between atoms: N_17  and  C_18 
ROOT
HETATM    1  N   UNL     1     -41.588  55.543 -55.140  1.00  0.00    -0.045 N 
HETATM    2  N   UNL     1     -41.239  54.247 -55.418  1.00  0.00    -0.156 NA
HETATM    3  C   UNL     1     -40.764  53.777 -54.258  1.00  0.00     0.055 C 
HETATM    4  C   UNL     1     -40.329  52.362 -54.134  1.00  0.00     0.072 C 
HETATM    5  C   UNL     1     -40.728  54.773 -53.255  1.00  0.00     0.079 C 
HETATM    6  C   UNL     1     -41.145  55.922 -53.882  1.00  0.00     0.152 C 
ENDROOT
BRANCH   6   7
HETATM    7  N   UNL     1     -41.110  57.167 -53.283  1.00  0.00    -0.303 N 
HETATM    8  C   UNL     1     -42.067  57.547 -52.279  1.00  0.00     0.315 C 
HETATM    9  O   UNL     1     -43.005  56.840 -51.960  1.00  0.00    -0.262 OA
HETATM   10  H   UNL     1     -40.519  57.907 -53.653  1.00  0.00     0.171 HD
BRANCH   8  11
HETATM   11  C   UNL     1     -41.955  59.034 -51.905  1.00  0.00     0.310 C 
HETATM   12  N   UNL     1     -42.952  59.516 -51.075  1.00  0.00    -0.348 N 
HETATM   13  H   UNL     1     -43.629  58.851 -50.707  1.00  0.00     0.163 HD
HETATM   14  O   UNL     1     -41.124  59.708 -52.502  1.00  0.00    -0.262 OA
BRANCH  12  15
HETATM   15  C   UNL     1     -43.282  60.935 -51.074  1.00  0.00     0.085 C 
HETATM   16  C   UNL     1     -44.527  61.236 -51.930  1.00  0.00     0.034 C 
HETATM   17  C   UNL     1     -45.880  60.843 -51.291  1.00  0.00    -0.045 C 
HETATM   18  C   UNL     1     -46.081  59.316 -51.235  1.00  0.00     0.015 C 
HETATM   19  C   UNL     1     -47.013  61.413 -52.171  1.00  0.00     0.015 C 
HETATM   20  C   UNL     1     -45.974  61.460 -49.881  1.00  0.00     0.013 C 
HETATM   21  C   UNL     1     -44.770  61.126 -48.983  1.00  0.00    -0.016 C 
HETATM   22  C   UNL     1     -44.906  61.857 -47.643  1.00  0.00     0.010 C 
HETATM   23  C   UNL     1     -43.438  61.495 -49.655  1.00  0.00     0.029 C 
ENDBRANCH  12  15
ENDBRANCH   8  11
ENDBRANCH   6   7
BRANCH   1  24
HETATM   24  C   UNL     1     -42.453  56.233 -56.006  1.00  0.00     0.732 A 
HETATM   25  N   UNL     1     -42.340  55.790 -57.289  1.00  0.00    -0.152 N 
HETATM   26  C   UNL     1     -43.128  56.281 -58.280  1.00  0.00     0.268 A 
HETATM   27  H   UNL     1     -41.688  55.045 -57.514  1.00  0.00     0.188 HD
HETATM   28  C   UNL     1     -44.102  57.332 -57.864  1.00  0.00     0.035 A 
HETATM   29  O   UNL     1     -43.048  55.873 -59.431  1.00  0.00    -0.267 OA
HETATM   30  C   UNL     1     -44.115  57.688 -56.561  1.00  0.00     0.061 A 
HETATM   31  N   UNL     1     -43.284  57.139 -55.605  1.00  0.00    -0.067 NA
HETATM   32  C   UNL     1     -45.079  58.699 -55.991  1.00  0.00     0.072 C 
BRANCH  28  33
HETATM   33  C   UNL     1     -44.960  57.902 -58.963  1.00  0.00     0.042 C 
HETATM   34  C   UNL     1     -46.293  57.177 -59.078  1.00  0.00     0.010 C 
ENDBRANCH  28  33
ENDBRANCH   1  24
TORSDOF 5
ENDMDL
