MODEL 1
REMARK VINA RESULT:      -8.9      0.000      0.000
REMARK  8 active torsions:
REMARK  status: ('A' for Active; 'I' for Inactive)
REMARK    1  A    between atoms: C_2  and  N_3 
REMARK    2  A    between atoms: N_3  and  N_4 
REMARK       I    between atoms: N_4  and  C_5 
REMARK    3  A    between atoms: C_5  and  C_6 
REMARK    4  A    between atoms: C_6  and  O_7 
REMARK    5  A    between atoms: O_7  and  C_8 
REMARK    6  A    between atoms: C_19  and  C_20 
REMARK       I    between atoms: C_20  and  N_21 
REMARK    7  A    between atoms: N_21  and  C_22 
REMARK    8  A    between atoms: C_25  and  C_26 
REMARK       I    between atoms: C_26  and  N_27 
ROOT
HETATM    1  C   UNL     1     -43.925  59.004 -53.581  1.00  0.00     0.070 C 
HETATM    2  C   UNL     1     -42.425  58.801 -53.653  1.00  0.00     0.027 C 
HETATM    3  C   UNL     1     -41.866  57.824 -54.397  1.00  0.00     0.100 C 
ENDROOT
BRANCH   2   4
HETATM    4  N   UNL     1     -41.694  59.704 -52.883  1.00  0.00    -0.302 N 
HETATM    5  H   UNL     1     -40.699  59.725 -53.141  1.00  0.00     0.186 HD
BRANCH   4   6
HETATM    6  N   UNL     1     -41.910  59.891 -51.515  1.00  0.00    -0.268 N 
HETATM    7  C   UNL     1     -41.199  59.181 -50.567  1.00  0.00     0.260 C 
HETATM    8  O   UNL     1     -41.134  59.602 -49.410  1.00  0.00    -0.269 OA
HETATM    9  H   UNL     1     -42.213  60.823 -51.242  1.00  0.00     0.190 HD
BRANCH   7  10
HETATM   10  C   UNL     1     -40.608  57.833 -50.977  1.00  0.00     0.280 C 
BRANCH  10  11
HETATM   11  O   UNL     1     -41.507  56.765 -50.691  1.00  0.00    -0.342 OA
BRANCH  11  12
HETATM   12  C   UNL     1     -41.007  55.512 -50.933  1.00  0.00     0.070 A 
HETATM   13  C   UNL     1     -41.164  55.043 -52.239  1.00  0.00     0.049 A 
HETATM   14  C   UNL     1     -40.699  53.770 -52.613  1.00  0.00    -0.023 A 
HETATM   15  C   UNL     1     -40.079  52.949 -51.644  1.00  0.00    -0.026 A 
HETATM   16  C   UNL     1     -40.832  53.294 -53.928  1.00  0.00     0.012 A 
HETATM   17  C   UNL     1     -39.955  53.419 -50.329  1.00  0.00     0.015 A 
HETATM   18  C   UNL     1     -39.605  51.680 -52.015  1.00  0.00     0.012 A 
HETATM   19  C   UNL     1     -40.423  54.688 -49.974  1.00  0.00     0.037 A 
HETATM   20  C   UNL     1     -39.742  51.225 -53.326  1.00  0.00     0.001 A 
HETATM   21  C   UNL     1     -40.356  52.030 -54.282  1.00  0.00     0.001 A 
ENDBRANCH  11  12
ENDBRANCH  10  11
ENDBRANCH   7  10
ENDBRANCH   4   6
ENDBRANCH   2   4
BRANCH   3  22
HETATM   22  C   UNL     1     -42.631  56.977 -55.354  1.00  0.00     0.247 C 
HETATM   23  N   UNL     1     -42.682  57.536 -56.614  1.00  0.00    -0.324 N 
HETATM   24  H   UNL     1     -42.205  58.417 -56.751  1.00  0.00     0.169 HD
HETATM   25  O   UNL     1     -43.165  55.939 -54.986  1.00  0.00    -0.268 OA
BRANCH  23  26
HETATM   26  C   UNL     1     -43.322  56.997 -57.752  1.00  0.00     0.035 A 
HETATM   27  C   UNL     1     -42.804  55.949 -58.516  1.00  0.00     0.030 A 
HETATM   28  C   UNL     1     -43.487  55.475 -59.644  1.00  0.00     0.019 A 
HETATM   29  C   UNL     1     -44.701  56.052 -60.024  1.00  0.00     0.032 A 
HETATM   30  C   UNL     1     -45.236  57.088 -59.251  1.00  0.00     0.019 A 
HETATM   31  C   UNL     1     -44.548  57.560 -58.127  1.00  0.00     0.030 A 
BRANCH  29  32
HETATM   32  C   UNL     1     -45.460  55.592 -61.217  1.00  0.00     0.249 C 
HETATM   33  N   UNL     1     -46.693  56.141 -61.433  1.00  0.00    -0.366 N 
HETATM   34  H   UNL     1     -47.188  56.677 -60.736  1.00  0.00     0.159 HD
HETATM   35  H   UNL     1     -47.234  55.743 -62.190  1.00  0.00     0.159 HD
HETATM   36  O   UNL     1     -45.020  54.726 -61.962  1.00  0.00    -0.268 OA
ENDBRANCH  29  32
ENDBRANCH  23  26
ENDBRANCH   3  22
TORSDOF 8
ENDMDL
MODEL 2
REMARK VINA RESULT:      -8.9      2.555      3.710
REMARK  8 active torsions:
REMARK  status: ('A' for Active; 'I' for Inactive)
REMARK    1  A    between atoms: C_2  and  N_3 
REMARK    2  A    between atoms: N_3  and  N_4 
REMARK       I    between atoms: N_4  and  C_5 
REMARK    3  A    between atoms: C_5  and  C_6 
REMARK    4  A    between atoms: C_6  and  O_7 
REMARK    5  A    between atoms: O_7  and  C_8 
REMARK    6  A    between atoms: C_19  and  C_20 
REMARK       I    between atoms: C_20  and  N_21 
REMARK    7  A    between atoms: N_21  and  C_22 
REMARK    8  A    between atoms: C_25  and  C_26 
REMARK       I    between atoms: C_26  and  N_27 
ROOT
HETATM    1  C   UNL     1     -42.897  55.773 -56.278  1.00  0.00     0.070 C 
HETATM    2  C   UNL     1     -43.573  56.907 -55.534  1.00  0.00     0.027 C 
HETATM    3  C   UNL     1     -44.263  57.875 -56.172  1.00  0.00     0.100 C 
ENDROOT
BRANCH   2   4
HETATM    4  N   UNL     1     -43.407  56.855 -54.152  1.00  0.00    -0.302 N 
HETATM    5  H   UNL     1     -42.514  57.264 -53.847  1.00  0.00     0.186 HD
BRANCH   4   6
HETATM    6  N   UNL     1     -43.803  55.763 -53.375  1.00  0.00    -0.268 N 
HETATM    7  C   UNL     1     -43.134  55.421 -52.215  1.00  0.00     0.260 C 
HETATM    8  O   UNL     1     -43.692  54.713 -51.374  1.00  0.00    -0.269 OA
HETATM    9  H   UNL     1     -44.795  55.541 -53.400  1.00  0.00     0.190 HD
BRANCH   7  10
HETATM   10  C   UNL     1     -41.676  55.853 -52.075  1.00  0.00     0.280 C 
BRANCH  10  11
HETATM   11  O   UNL     1     -40.921  55.514 -53.235  1.00  0.00    -0.342 OA
BRANCH  11  12
HETATM   12  C   UNL     1     -40.641  54.179 -53.370  1.00  0.00     0.070 A 
HETATM   13  C   UNL     1     -40.398  53.491 -52.179  1.00  0.00     0.049 A 
HETATM   14  C   UNL     1     -40.095  52.119 -52.184  1.00  0.00    -0.023 A 
HETATM   15  C   UNL     1     -40.018  51.433 -53.418  1.00  0.00    -0.026 A 
HETATM   16  C   UNL     1     -39.867  51.410 -50.993  1.00  0.00     0.012 A 
HETATM   17  C   UNL     1     -40.233  52.142 -54.608  1.00  0.00     0.015 A 
HETATM   18  C   UNL     1     -39.722  50.060 -53.427  1.00  0.00     0.012 A 
HETATM   19  C   UNL     1     -40.535  53.507 -54.585  1.00  0.00     0.037 A 
HETATM   20  C   UNL     1     -39.505  49.370 -52.234  1.00  0.00     0.001 A 
HETATM   21  C   UNL     1     -39.575  50.045 -51.018  1.00  0.00     0.001 A 
ENDBRANCH  11  12
ENDBRANCH  10  11
ENDBRANCH   7  10
ENDBRANCH   4   6
ENDBRANCH   2   4
BRANCH   3  22
HETATM   22  C   UNL     1     -44.588  57.835 -57.625  1.00  0.00     0.247 C 
HETATM   23  N   UNL     1     -45.942  57.693 -57.849  1.00  0.00    -0.324 N 
HETATM   24  H   UNL     1     -46.544  57.646 -57.038  1.00  0.00     0.169 HD
HETATM   25  O   UNL     1     -43.703  57.880 -58.469  1.00  0.00    -0.268 OA
BRANCH  23  26
HETATM   26  C   UNL     1     -46.589  57.622 -59.102  1.00  0.00     0.035 A 
HETATM   27  C   UNL     1     -47.136  58.725 -59.762  1.00  0.00     0.030 A 
HETATM   28  C   UNL     1     -47.779  58.577 -60.999  1.00  0.00     0.019 A 
HETATM   29  C   UNL     1     -47.885  57.316 -61.589  1.00  0.00     0.032 A 
HETATM   30  C   UNL     1     -47.320  56.210 -60.944  1.00  0.00     0.019 A 
HETATM   31  C   UNL     1     -46.682  56.362 -59.707  1.00  0.00     0.030 A 
BRANCH  29  32
HETATM   32  C   UNL     1     -48.564  57.105 -62.894  1.00  0.00     0.249 C 
HETATM   33  N   UNL     1     -49.760  57.736 -63.096  1.00  0.00    -0.366 N 
HETATM   34  H   UNL     1     -50.290  58.163 -62.351  1.00  0.00     0.159 HD
HETATM   35  H   UNL     1     -50.253  57.500 -63.947  1.00  0.00     0.159 HD
HETATM   36  O   UNL     1     -48.095  56.363 -63.749  1.00  0.00    -0.268 OA
ENDBRANCH  29  32
ENDBRANCH  23  26
ENDBRANCH   3  22
TORSDOF 8
ENDMDL
MODEL 3
REMARK VINA RESULT:      -8.8      2.331      3.128
REMARK  8 active torsions:
REMARK  status: ('A' for Active; 'I' for Inactive)
REMARK    1  A    between atoms: C_2  and  N_3 
REMARK    2  A    between atoms: N_3  and  N_4 
REMARK       I    between atoms: N_4  and  C_5 
REMARK    3  A    between atoms: C_5  and  C_6 
REMARK    4  A    between atoms: C_6  and  O_7 
REMARK    5  A    between atoms: O_7  and  C_8 
REMARK    6  A    between atoms: C_19  and  C_20 
REMARK       I    between atoms: C_20  and  N_21 
REMARK    7  A    between atoms: N_21  and  C_22 
REMARK    8  A    between atoms: C_25  and  C_26 
REMARK       I    between atoms: C_26  and  N_27 
ROOT
HETATM    1  C   UNL     1     -42.851  55.313 -56.128  1.00  0.00     0.070 C 
HETATM    2  C   UNL     1     -43.113  56.681 -55.532  1.00  0.00     0.027 C 
HETATM    3  C   UNL     1     -43.547  57.720 -56.276  1.00  0.00     0.100 C 
ENDROOT
BRANCH   2   4
HETATM    4  N   UNL     1     -42.858  56.760 -54.164  1.00  0.00    -0.302 N 
HETATM    5  H   UNL     1     -41.866  56.607 -53.939  1.00  0.00     0.186 HD
BRANCH   4   6
HETATM    6  N   UNL     1     -43.725  56.248 -53.194  1.00  0.00    -0.268 N 
HETATM    7  C   UNL     1     -43.376  56.216 -51.858  1.00  0.00     0.260 C 
HETATM    8  O   UNL     1     -44.254  56.111 -50.999  1.00  0.00    -0.269 OA
HETATM    9  H   UNL     1     -44.717  56.346 -53.395  1.00  0.00     0.190 HD
BRANCH   7  10
HETATM   10  C   UNL     1     -41.889  56.204 -51.506  1.00  0.00     0.280 C 
BRANCH  10  11
HETATM   11  O   UNL     1     -41.115  55.612 -52.545  1.00  0.00    -0.342 OA
BRANCH  11  12
HETATM   12  C   UNL     1     -40.708  54.327 -52.299  1.00  0.00     0.070 A 
HETATM   13  C   UNL     1     -40.677  53.481 -53.410  1.00  0.00     0.049 A 
HETATM   14  C   UNL     1     -40.283  52.138 -53.288  1.00  0.00    -0.023 A 
HETATM   15  C   UNL     1     -39.931  51.634 -52.015  1.00  0.00    -0.026 A 
HETATM   16  C   UNL     1     -40.229  51.282 -54.400  1.00  0.00     0.012 A 
HETATM   17  C   UNL     1     -39.996  52.485 -50.902  1.00  0.00     0.015 A 
HETATM   18  C   UNL     1     -39.529  50.295 -51.889  1.00  0.00     0.012 A 
HETATM   19  C   UNL     1     -40.389  53.820 -51.042  1.00  0.00     0.037 A 
HETATM   20  C   UNL     1     -39.476  49.460 -53.005  1.00  0.00     0.001 A 
HETATM   21  C   UNL     1     -39.827  49.952 -54.259  1.00  0.00     0.001 A 
ENDBRANCH  11  12
ENDBRANCH  10  11
ENDBRANCH   7  10
ENDBRANCH   4   6
ENDBRANCH   2   4
BRANCH   3  22
HETATM   22  C   UNL     1     -43.986  57.591 -57.693  1.00  0.00     0.247 C 
HETATM   23  N   UNL     1     -45.360  57.600 -57.813  1.00  0.00    -0.324 N 
HETATM   24  H   UNL     1     -45.899  57.700 -56.963  1.00  0.00     0.169 HD
HETATM   25  O   UNL     1     -43.169  57.451 -58.594  1.00  0.00    -0.268 OA
BRANCH  23  26
HETATM   26  C   UNL     1     -46.105  57.498 -59.008  1.00  0.00     0.035 A 
HETATM   27  C   UNL     1     -46.891  58.531 -59.528  1.00  0.00     0.030 A 
HETATM   28  C   UNL     1     -47.618  58.354 -60.713  1.00  0.00     0.019 A 
HETATM   29  C   UNL     1     -47.570  57.134 -61.391  1.00  0.00     0.032 A 
HETATM   30  C   UNL     1     -46.769  56.103 -60.887  1.00  0.00     0.019 A 
HETATM   31  C   UNL     1     -46.048  56.284 -59.701  1.00  0.00     0.030 A 
BRANCH  29  32
HETATM   32  C   UNL     1     -48.330  56.893 -62.646  1.00  0.00     0.249 C 
HETATM   33  N   UNL     1     -48.064  57.705 -63.713  1.00  0.00    -0.366 N 
HETATM   34  H   UNL     1     -47.541  58.564 -63.635  1.00  0.00     0.159 HD
HETATM   35  H   UNL     1     -48.660  57.591 -64.522  1.00  0.00     0.159 HD
HETATM   36  O   UNL     1     -49.191  56.026 -62.718  1.00  0.00    -0.268 OA
ENDBRANCH  29  32
ENDBRANCH  23  26
ENDBRANCH   3  22
TORSDOF 8
ENDMDL
MODEL 4
REMARK VINA RESULT:      -8.7      2.213      3.001
REMARK  8 active torsions:
REMARK  status: ('A' for Active; 'I' for Inactive)
REMARK    1  A    between atoms: C_2  and  N_3 
REMARK    2  A    between atoms: N_3  and  N_4 
REMARK       I    between atoms: N_4  and  C_5 
REMARK    3  A    between atoms: C_5  and  C_6 
REMARK    4  A    between atoms: C_6  and  O_7 
REMARK    5  A    between atoms: O_7  and  C_8 
REMARK    6  A    between atoms: C_19  and  C_20 
REMARK       I    between atoms: C_20  and  N_21 
REMARK    7  A    between atoms: N_21  and  C_22 
REMARK    8  A    between atoms: C_25  and  C_26 
REMARK       I    between atoms: C_26  and  N_27 
ROOT
HETATM    1  C   UNL     1     -42.692  55.968 -56.644  1.00  0.00     0.070 C 
HETATM    2  C   UNL     1     -42.803  57.397 -56.151  1.00  0.00     0.027 C 
HETATM    3  C   UNL     1     -43.250  58.397 -56.939  1.00  0.00     0.100 C 
ENDROOT
BRANCH   2   4
HETATM    4  N   UNL     1     -42.398  57.572 -54.830  1.00  0.00    -0.302 N 
HETATM    5  H   UNL     1     -43.169  57.441 -54.161  1.00  0.00     0.186 HD
BRANCH   4   6
HETATM    6  N   UNL     1     -41.491  58.559 -54.433  1.00  0.00    -0.268 N 
HETATM    7  C   UNL     1     -40.793  58.463 -53.245  1.00  0.00     0.260 C 
HETATM    8  O   UNL     1     -39.764  59.123 -53.085  1.00  0.00    -0.269 OA
HETATM    9  H   UNL     1     -41.022  59.054 -55.188  1.00  0.00     0.190 HD
BRANCH   7  10
HETATM   10  C   UNL     1     -41.397  57.615 -52.126  1.00  0.00     0.280 C 
BRANCH  10  11
HETATM   11  O   UNL     1     -42.047  56.459 -52.645  1.00  0.00    -0.342 OA
BRANCH  11  12
HETATM   12  C   UNL     1     -41.418  55.273 -52.371  1.00  0.00     0.070 A 
HETATM   13  C   UNL     1     -41.367  54.360 -53.427  1.00  0.00     0.049 A 
HETATM   14  C   UNL     1     -40.753  53.105 -53.271  1.00  0.00    -0.023 A 
HETATM   15  C   UNL     1     -40.195  52.759 -52.019  1.00  0.00    -0.026 A 
HETATM   16  C   UNL     1     -40.677  52.185 -54.330  1.00  0.00     0.012 A 
HETATM   17  C   UNL     1     -40.280  53.673 -50.958  1.00  0.00     0.015 A 
HETATM   18  C   UNL     1     -39.574  51.510 -51.860  1.00  0.00     0.012 A 
HETATM   19  C   UNL     1     -40.894  54.917 -51.131  1.00  0.00     0.037 A 
HETATM   20  C   UNL     1     -39.503  50.611 -52.924  1.00  0.00     0.001 A 
HETATM   21  C   UNL     1     -40.056  50.947 -54.157  1.00  0.00     0.001 A 
ENDBRANCH  11  12
ENDBRANCH  10  11
ENDBRANCH   7  10
ENDBRANCH   4   6
ENDBRANCH   2   4
BRANCH   3  22
HETATM   22  C   UNL     1     -43.847  58.180 -58.287  1.00  0.00     0.247 C 
HETATM   23  N   UNL     1     -45.222  58.080 -58.234  1.00  0.00    -0.324 N 
HETATM   24  H   UNL     1     -45.660  58.172 -57.327  1.00  0.00     0.169 HD
HETATM   25  O   UNL     1     -43.138  58.068 -59.278  1.00  0.00    -0.268 OA
BRANCH  23  26
HETATM   26  C   UNL     1     -46.097  57.876 -59.324  1.00  0.00     0.035 A 
HETATM   27  C   UNL     1     -46.700  58.909 -60.045  1.00  0.00     0.030 A 
HETATM   28  C   UNL     1     -47.572  58.633 -61.106  1.00  0.00     0.019 A 
HETATM   29  C   UNL     1     -47.854  57.310 -61.456  1.00  0.00     0.032 A 
HETATM   30  C   UNL     1     -47.238  56.270 -60.752  1.00  0.00     0.019 A 
HETATM   31  C   UNL     1     -46.370  56.552 -59.690  1.00  0.00     0.030 A 
BRANCH  29  32
HETATM   32  C   UNL     1     -48.779  56.963 -62.568  1.00  0.00     0.249 C 
HETATM   33  N   UNL     1     -49.993  57.589 -62.601  1.00  0.00    -0.366 N 
HETATM   34  H   UNL     1     -50.367  58.109 -61.820  1.00  0.00     0.159 HD
HETATM   35  H   UNL     1     -50.645  57.266 -63.304  1.00  0.00     0.159 HD
HETATM   36  O   UNL     1     -48.485  56.120 -63.406  1.00  0.00    -0.268 OA
ENDBRANCH  29  32
ENDBRANCH  23  26
ENDBRANCH   3  22
TORSDOF 8
ENDMDL
MODEL 5
REMARK VINA RESULT:      -8.6      3.030      7.054
REMARK  8 active torsions:
REMARK  status: ('A' for Active; 'I' for Inactive)
REMARK    1  A    between atoms: C_2  and  N_3 
REMARK    2  A    between atoms: N_3  and  N_4 
REMARK       I    between atoms: N_4  and  C_5 
REMARK    3  A    between atoms: C_5  and  C_6 
REMARK    4  A    between atoms: C_6  and  O_7 
REMARK    5  A    between atoms: O_7  and  C_8 
REMARK    6  A    between atoms: C_19  and  C_20 
REMARK       I    between atoms: C_20  and  N_21 
REMARK    7  A    between atoms: N_21  and  C_22 
REMARK    8  A    between atoms: C_25  and  C_26 
REMARK       I    between atoms: C_26  and  N_27 
ROOT
HETATM    1  C   UNL     1     -44.105  57.031 -51.383  1.00  0.00     0.070 C 
HETATM    2  C   UNL     1     -42.866  57.902 -51.438  1.00  0.00     0.027 C 
HETATM    3  C   UNL     1     -41.629  57.409 -51.218  1.00  0.00     0.100 C 
ENDROOT
BRANCH   2   4
HETATM    4  N   UNL     1     -43.127  59.240 -51.724  1.00  0.00    -0.302 N 
HETATM    5  H   UNL     1     -42.895  59.863 -50.939  1.00  0.00     0.186 HD
BRANCH   4   6
HETATM    6  N   UNL     1     -44.246  59.663 -52.447  1.00  0.00    -0.268 N 
HETATM    7  C   UNL     1     -44.176  59.920 -53.803  1.00  0.00     0.260 C 
HETATM    8  O   UNL     1     -45.208  59.933 -54.476  1.00  0.00    -0.269 OA
HETATM    9  H   UNL     1     -45.143  59.334 -52.100  1.00  0.00     0.190 HD
BRANCH   7  10
HETATM   10  C   UNL     1     -42.815  60.287 -54.393  1.00  0.00     0.280 C 
BRANCH  10  11
HETATM   11  O   UNL     1     -41.939  59.164 -54.417  1.00  0.00    -0.342 OA
BRANCH  11  12
HETATM   12  C   UNL     1     -42.253  58.209 -55.349  1.00  0.00     0.070 A 
HETATM   13  C   UNL     1     -42.215  58.632 -56.680  1.00  0.00     0.049 A 
HETATM   14  C   UNL     1     -42.522  57.749 -57.729  1.00  0.00    -0.023 A 
HETATM   15  C   UNL     1     -42.891  56.418 -57.428  1.00  0.00    -0.026 A 
HETATM   16  C   UNL     1     -42.470  58.155 -59.073  1.00  0.00     0.012 A 
HETATM   17  C   UNL     1     -42.955  56.015 -56.086  1.00  0.00     0.015 A 
HETATM   18  C   UNL     1     -43.190  55.530 -58.473  1.00  0.00     0.012 A 
HETATM   19  C   UNL     1     -42.645  56.906 -55.054  1.00  0.00     0.037 A 
HETATM   20  C   UNL     1     -43.128  55.949 -59.802  1.00  0.00     0.001 A 
HETATM   21  C   UNL     1     -42.770  57.261 -60.102  1.00  0.00     0.001 A 
ENDBRANCH  11  12
ENDBRANCH  10  11
ENDBRANCH   7  10
ENDBRANCH   4   6
ENDBRANCH   2   4
BRANCH   3  22
HETATM   22  C   UNL     1     -41.334  55.954 -51.087  1.00  0.00     0.247 C 
HETATM   23  N   UNL     1     -41.010  55.381 -52.299  1.00  0.00    -0.324 N 
HETATM   24  H   UNL     1     -40.997  55.985 -53.111  1.00  0.00     0.169 HD
HETATM   25  O   UNL     1     -41.431  55.388 -50.007  1.00  0.00    -0.268 OA
BRANCH  23  26
HETATM   26  C   UNL     1     -40.676  54.029 -52.533  1.00  0.00     0.035 A 
HETATM   27  C   UNL     1     -40.058  53.204 -51.589  1.00  0.00     0.030 A 
HETATM   28  C   UNL     1     -39.741  51.873 -51.895  1.00  0.00     0.019 A 
HETATM   29  C   UNL     1     -40.035  51.354 -53.158  1.00  0.00     0.032 A 
HETATM   30  C   UNL     1     -40.673  52.168 -54.100  1.00  0.00     0.019 A 
HETATM   31  C   UNL     1     -40.985  53.497 -53.791  1.00  0.00     0.030 A 
BRANCH  29  32
HETATM   32  C   UNL     1     -39.711  49.953 -53.535  1.00  0.00     0.249 C 
HETATM   33  N   UNL     1     -39.336  49.098 -52.537  1.00  0.00    -0.366 N 
HETATM   34  H   UNL     1     -39.079  49.410 -51.612  1.00  0.00     0.159 HD
HETATM   35  H   UNL     1     -39.023  48.181 -52.826  1.00  0.00     0.159 HD
HETATM   36  O   UNL     1     -39.739  49.580 -54.702  1.00  0.00    -0.268 OA
ENDBRANCH  29  32
ENDBRANCH  23  26
ENDBRANCH   3  22
TORSDOF 8
ENDMDL
MODEL 6
REMARK VINA RESULT:      -8.6      2.832      4.659
REMARK  8 active torsions:
REMARK  status: ('A' for Active; 'I' for Inactive)
REMARK    1  A    between atoms: C_2  and  N_3 
REMARK    2  A    between atoms: N_3  and  N_4 
REMARK       I    between atoms: N_4  and  C_5 
REMARK    3  A    between atoms: C_5  and  C_6 
REMARK    4  A    between atoms: C_6  and  O_7 
REMARK    5  A    between atoms: O_7  and  C_8 
REMARK    6  A    between atoms: C_19  and  C_20 
REMARK       I    between atoms: C_20  and  N_21 
REMARK    7  A    between atoms: N_21  and  C_22 
REMARK    8  A    between atoms: C_25  and  C_26 
REMARK       I    between atoms: C_26  and  N_27 
ROOT
HETATM    1  C   UNL     1     -43.563  57.322 -57.643  1.00  0.00     0.070 C 
HETATM    2  C   UNL     1     -43.437  55.823 -57.828  1.00  0.00     0.027 C 
HETATM    3  C   UNL     1     -44.030  55.172 -58.850  1.00  0.00     0.100 C 
ENDROOT
BRANCH   2   4
HETATM    4  N   UNL     1     -42.668  55.195 -56.850  1.00  0.00    -0.302 N 
HETATM    5  H   UNL     1     -41.859  54.698 -57.245  1.00  0.00     0.186 HD
BRANCH   4   6
HETATM    6  N   UNL     1     -43.221  54.548 -55.742  1.00  0.00    -0.268 N 
HETATM    7  C   UNL     1     -43.088  55.060 -54.465  1.00  0.00     0.260 C 
HETATM    8  O   UNL     1     -43.862  54.697 -53.577  1.00  0.00    -0.269 OA
HETATM    9  H   UNL     1     -44.066  54.012 -55.922  1.00  0.00     0.190 HD
BRANCH   7  10
HETATM   10  C   UNL     1     -41.904  55.984 -54.184  1.00  0.00     0.280 C 
BRANCH  10  11
HETATM   11  O   UNL     1     -40.663  55.316 -54.398  1.00  0.00    -0.342 OA
BRANCH  11  12
HETATM   12  C   UNL     1     -40.437  54.244 -53.576  1.00  0.00     0.070 A 
HETATM   13  C   UNL     1     -40.246  53.020 -54.220  1.00  0.00     0.049 A 
HETATM   14  C   UNL     1     -40.012  51.844 -53.487  1.00  0.00    -0.023 A 
HETATM   15  C   UNL     1     -39.986  51.903 -52.075  1.00  0.00    -0.026 A 
HETATM   16  C   UNL     1     -39.798  50.610 -54.123  1.00  0.00     0.012 A 
HETATM   17  C   UNL     1     -40.210  53.132 -51.439  1.00  0.00     0.015 A 
HETATM   18  C   UNL     1     -39.744  50.732 -51.338  1.00  0.00     0.012 A 
HETATM   19  C   UNL     1     -40.441  54.293 -52.184  1.00  0.00     0.037 A 
HETATM   20  C   UNL     1     -39.529  49.516 -51.986  1.00  0.00     0.001 A 
HETATM   21  C   UNL     1     -39.558  49.454 -53.377  1.00  0.00     0.001 A 
ENDBRANCH  11  12
ENDBRANCH  10  11
ENDBRANCH   7  10
ENDBRANCH   4   6
ENDBRANCH   2   4
BRANCH   3  22
HETATM   22  C   UNL     1     -44.700  55.861 -59.988  1.00  0.00     0.247 C 
HETATM   23  N   UNL     1     -45.998  56.217 -59.686  1.00  0.00    -0.324 N 
HETATM   24  H   UNL     1     -46.338  55.993 -58.759  1.00  0.00     0.169 HD
HETATM   25  O   UNL     1     -44.123  56.018 -61.056  1.00  0.00    -0.268 OA
BRANCH  23  26
HETATM   26  C   UNL     1     -46.911  56.882 -60.533  1.00  0.00     0.035 A 
HETATM   27  C   UNL     1     -47.663  56.246 -61.524  1.00  0.00     0.030 A 
HETATM   28  C   UNL     1     -48.540  56.973 -62.340  1.00  0.00     0.019 A 
HETATM   29  C   UNL     1     -48.671  58.353 -62.175  1.00  0.00     0.032 A 
HETATM   30  C   UNL     1     -47.937  58.994 -61.171  1.00  0.00     0.019 A 
HETATM   31  C   UNL     1     -47.060  58.264 -60.360  1.00  0.00     0.030 A 
BRANCH  29  32
HETATM   32  C   UNL     1     -49.581  59.172 -63.020  1.00  0.00     0.249 C 
HETATM   33  N   UNL     1     -50.409  58.510 -63.883  1.00  0.00    -0.366 N 
HETATM   34  H   UNL     1     -50.298  57.535 -64.116  1.00  0.00     0.159 HD
HETATM   35  H   UNL     1     -50.946  59.086 -64.518  1.00  0.00     0.159 HD
HETATM   36  O   UNL     1     -49.566  60.396 -62.979  1.00  0.00    -0.268 OA
ENDBRANCH  29  32
ENDBRANCH  23  26
ENDBRANCH   3  22
TORSDOF 8
ENDMDL
MODEL 7
REMARK VINA RESULT:      -8.6      3.132      7.847
REMARK  8 active torsions:
REMARK  status: ('A' for Active; 'I' for Inactive)
REMARK    1  A    between atoms: C_2  and  N_3 
REMARK    2  A    between atoms: N_3  and  N_4 
REMARK       I    between atoms: N_4  and  C_5 
REMARK    3  A    between atoms: C_5  and  C_6 
REMARK    4  A    between atoms: C_6  and  O_7 
REMARK    5  A    between atoms: O_7  and  C_8 
REMARK    6  A    between atoms: C_19  and  C_20 
REMARK       I    between atoms: C_20  and  N_21 
REMARK    7  A    between atoms: N_21  and  C_22 
REMARK    8  A    between atoms: C_25  and  C_26 
REMARK       I    between atoms: C_26  and  N_27 
ROOT
HETATM    1  C   UNL     1     -40.439  58.459 -52.387  1.00  0.00     0.070 C 
HETATM    2  C   UNL     1     -41.329  58.494 -53.613  1.00  0.00     0.027 C 
HETATM    3  C   UNL     1     -41.895  57.380 -54.123  1.00  0.00     0.100 C 
ENDROOT
BRANCH   2   4
HETATM    4  N   UNL     1     -41.495  59.766 -54.156  1.00  0.00    -0.302 N 
HETATM    5  H   UNL     1     -40.765  60.423 -53.849  1.00  0.00     0.186 HD
BRANCH   4   6
HETATM    6  N   UNL     1     -42.744  60.372 -54.316  1.00  0.00    -0.268 N 
HETATM    7  C   UNL     1     -43.233  60.702 -55.566  1.00  0.00     0.260 C 
HETATM    8  O   UNL     1     -44.441  60.888 -55.720  1.00  0.00    -0.269 OA
HETATM    9  H   UNL     1     -43.440  60.138 -53.612  1.00  0.00     0.190 HD
BRANCH   7  10
HETATM   10  C   UNL     1     -42.225  60.930 -56.691  1.00  0.00     0.280 C 
BRANCH  10  11
HETATM   11  O   UNL     1     -41.619  59.707 -57.101  1.00  0.00    -0.342 OA
BRANCH  11  12
HETATM   12  C   UNL     1     -42.333  58.995 -58.030  1.00  0.00     0.070 A 
HETATM   13  C   UNL     1     -42.481  57.632 -57.761  1.00  0.00     0.049 A 
HETATM   14  C   UNL     1     -43.187  56.792 -58.639  1.00  0.00    -0.023 A 
HETATM   15  C   UNL     1     -43.738  57.336 -59.821  1.00  0.00    -0.026 A 
HETATM   16  C   UNL     1     -43.360  55.425 -58.371  1.00  0.00     0.012 A 
HETATM   17  C   UNL     1     -43.556  58.700 -60.096  1.00  0.00     0.015 A 
HETATM   18  C   UNL     1     -44.451  56.503 -60.698  1.00  0.00     0.012 A 
HETATM   19  C   UNL     1     -42.852  59.521 -59.210  1.00  0.00     0.037 A 
HETATM   20  C   UNL     1     -44.618  55.148 -60.414  1.00  0.00     0.001 A 
HETATM   21  C   UNL     1     -44.072  54.608 -59.253  1.00  0.00     0.001 A 
ENDBRANCH  11  12
ENDBRANCH  10  11
ENDBRANCH   7  10
ENDBRANCH   4   6
ENDBRANCH   2   4
BRANCH   3  22
HETATM   22  C   UNL     1     -41.862  56.055 -53.444  1.00  0.00     0.247 C 
HETATM   23  N   UNL     1     -40.851  55.250 -53.927  1.00  0.00    -0.324 N 
HETATM   24  H   UNL     1     -40.257  55.635 -54.651  1.00  0.00     0.169 HD
HETATM   25  O   UNL     1     -42.696  55.761 -52.597  1.00  0.00    -0.268 OA
BRANCH  23  26
HETATM   26  C   UNL     1     -40.539  53.939 -53.506  1.00  0.00     0.035 A 
HETATM   27  C   UNL     1     -40.337  53.575 -52.172  1.00  0.00     0.030 A 
HETATM   28  C   UNL     1     -40.015  52.255 -51.828  1.00  0.00     0.019 A 
HETATM   29  C   UNL     1     -39.886  51.282 -52.821  1.00  0.00     0.032 A 
HETATM   30  C   UNL     1     -40.109  51.635 -54.156  1.00  0.00     0.019 A 
HETATM   31  C   UNL     1     -40.427  52.955 -54.495  1.00  0.00     0.030 A 
BRANCH  29  32
HETATM   32  C   UNL     1     -39.537  49.870 -52.509  1.00  0.00     0.249 C 
HETATM   33  N   UNL     1     -39.382  49.532 -51.194  1.00  0.00    -0.366 N 
HETATM   34  H   UNL     1     -39.294  50.215 -50.456  1.00  0.00     0.159 HD
HETATM   35  H   UNL     1     -39.047  48.596 -51.009  1.00  0.00     0.159 HD
HETATM   36  O   UNL     1     -39.356  49.044 -53.394  1.00  0.00    -0.268 OA
ENDBRANCH  29  32
ENDBRANCH  23  26
ENDBRANCH   3  22
TORSDOF 8
ENDMDL
MODEL 8
REMARK VINA RESULT:      -8.5      4.672      9.124
REMARK  8 active torsions:
REMARK  status: ('A' for Active; 'I' for Inactive)
REMARK    1  A    between atoms: C_2  and  N_3 
REMARK    2  A    between atoms: N_3  and  N_4 
REMARK       I    between atoms: N_4  and  C_5 
REMARK    3  A    between atoms: C_5  and  C_6 
REMARK    4  A    between atoms: C_6  and  O_7 
REMARK    5  A    between atoms: O_7  and  C_8 
REMARK    6  A    between atoms: C_19  and  C_20 
REMARK       I    between atoms: C_20  and  N_21 
REMARK    7  A    between atoms: N_21  and  C_22 
REMARK    8  A    between atoms: C_25  and  C_26 
REMARK       I    between atoms: C_26  and  N_27 
ROOT
HETATM    1  C   UNL     1     -45.507  58.627 -51.182  1.00  0.00     0.070 C 
HETATM    2  C   UNL     1     -44.003  58.709 -51.353  1.00  0.00     0.027 C 
HETATM    3  C   UNL     1     -43.303  59.819 -51.038  1.00  0.00     0.100 C 
ENDROOT
BRANCH   2   4
HETATM    4  N   UNL     1     -43.428  57.549 -51.867  1.00  0.00    -0.302 N 
HETATM    5  H   UNL     1     -43.029  57.690 -52.805  1.00  0.00     0.186 HD
BRANCH   4   6
HETATM    6  N   UNL     1     -43.985  56.279 -51.693  1.00  0.00    -0.268 N 
HETATM    7  C   UNL     1     -43.457  55.376 -50.790  1.00  0.00     0.260 C 
HETATM    8  O   UNL     1     -44.148  54.436 -50.391  1.00  0.00    -0.269 OA
HETATM    9  H   UNL     1     -44.985  56.210 -51.861  1.00  0.00     0.190 HD
BRANCH   7  10
HETATM   10  C   UNL     1     -41.987  55.525 -50.404  1.00  0.00     0.280 C 
BRANCH  10  11
HETATM   11  O   UNL     1     -41.166  55.717 -51.553  1.00  0.00    -0.342 OA
BRANCH  11  12
HETATM   12  C   UNL     1     -40.959  54.591 -52.306  1.00  0.00     0.070 A 
HETATM   13  C   UNL     1     -40.442  53.491 -51.618  1.00  0.00     0.049 A 
HETATM   14  C   UNL     1     -40.180  52.279 -52.280  1.00  0.00    -0.023 A 
HETATM   15  C   UNL     1     -40.429  52.182 -53.668  1.00  0.00    -0.026 A 
HETATM   16  C   UNL     1     -39.679  51.160 -51.596  1.00  0.00     0.012 A 
HETATM   17  C   UNL     1     -40.919  53.303 -54.354  1.00  0.00     0.015 A 
HETATM   18  C   UNL     1     -40.177  50.971 -54.332  1.00  0.00     0.012 A 
HETATM   19  C   UNL     1     -41.175  54.501 -53.679  1.00  0.00     0.037 A 
HETATM   20  C   UNL     1     -39.684  49.867 -53.636  1.00  0.00     0.001 A 
HETATM   21  C   UNL     1     -39.433  49.962 -52.270  1.00  0.00     0.001 A 
ENDBRANCH  11  12
ENDBRANCH  10  11
ENDBRANCH   7  10
ENDBRANCH   4   6
ENDBRANCH   2   4
BRANCH   3  22
HETATM   22  C   UNL     1     -43.889  60.989 -50.327  1.00  0.00     0.247 C 
HETATM   23  N   UNL     1     -44.072  60.741 -48.983  1.00  0.00    -0.324 N 
HETATM   24  H   UNL     1     -43.789  59.833 -48.636  1.00  0.00     0.169 HD
HETATM   25  O   UNL     1     -44.192  62.007 -50.936  1.00  0.00    -0.268 OA
BRANCH  23  26
HETATM   26  C   UNL     1     -44.602  61.630 -48.023  1.00  0.00     0.035 A 
HETATM   27  C   UNL     1     -44.861  62.981 -48.270  1.00  0.00     0.030 A 
HETATM   28  C   UNL     1     -45.374  63.811 -47.264  1.00  0.00     0.019 A 
HETATM   29  C   UNL     1     -45.629  63.295 -45.991  1.00  0.00     0.032 A 
HETATM   30  C   UNL     1     -45.392  61.939 -45.743  1.00  0.00     0.019 A 
HETATM   31  C   UNL     1     -44.877  61.115 -46.750  1.00  0.00     0.030 A 
BRANCH  29  32
HETATM   32  C   UNL     1     -46.165  64.135 -44.887  1.00  0.00     0.249 C 
HETATM   33  N   UNL     1     -45.393  64.277 -43.768  1.00  0.00    -0.366 N 
HETATM   34  H   UNL     1     -44.592  63.694 -43.573  1.00  0.00     0.159 HD
HETATM   35  H   UNL     1     -45.817  64.767 -42.990  1.00  0.00     0.159 HD
HETATM   36  O   UNL     1     -47.272  64.653 -44.954  1.00  0.00    -0.268 OA
ENDBRANCH  29  32
ENDBRANCH  23  26
ENDBRANCH   3  22
TORSDOF 8
ENDMDL
MODEL 9
REMARK VINA RESULT:      -8.4      2.932      3.555
REMARK  8 active torsions:
REMARK  status: ('A' for Active; 'I' for Inactive)
REMARK    1  A    between atoms: C_2  and  N_3 
REMARK    2  A    between atoms: N_3  and  N_4 
REMARK       I    between atoms: N_4  and  C_5 
REMARK    3  A    between atoms: C_5  and  C_6 
REMARK    4  A    between atoms: C_6  and  O_7 
REMARK    5  A    between atoms: O_7  and  C_8 
REMARK    6  A    between atoms: C_19  and  C_20 
REMARK       I    between atoms: C_20  and  N_21 
REMARK    7  A    between atoms: N_21  and  C_22 
REMARK    8  A    between atoms: C_25  and  C_26 
REMARK       I    between atoms: C_26  and  N_27 
ROOT
HETATM    1  C   UNL     1     -44.705  59.038 -53.309  1.00  0.00     0.070 C 
HETATM    2  C   UNL     1     -44.066  57.665 -53.373  1.00  0.00     0.027 C 
HETATM    3  C   UNL     1     -43.786  57.056 -54.544  1.00  0.00     0.100 C 
ENDROOT
BRANCH   2   4
HETATM    4  N   UNL     1     -43.808  57.102 -52.125  1.00  0.00    -0.302 N 
HETATM    5  H   UNL     1     -44.620  56.598 -51.746  1.00  0.00     0.186 HD
BRANCH   4   6
HETATM    6  N   UNL     1     -43.051  57.742 -51.139  1.00  0.00    -0.268 N 
HETATM    7  C   UNL     1     -41.744  57.376 -50.880  1.00  0.00     0.260 C 
HETATM    8  O   UNL     1     -40.996  58.159 -50.291  1.00  0.00    -0.269 OA
HETATM    9  H   UNL     1     -43.284  58.718 -50.971  1.00  0.00     0.190 HD
BRANCH   7  10
HETATM   10  C   UNL     1     -41.313  55.956 -51.244  1.00  0.00     0.280 C 
BRANCH  10  11
HETATM   11  O   UNL     1     -41.091  55.825 -52.645  1.00  0.00    -0.342 OA
BRANCH  11  12
HETATM   12  C   UNL     1     -40.803  54.552 -53.065  1.00  0.00     0.070 A 
HETATM   13  C   UNL     1     -40.471  53.645 -52.056  1.00  0.00     0.049 A 
HETATM   14  C   UNL     1     -40.149  52.311 -52.357  1.00  0.00    -0.023 A 
HETATM   15  C   UNL     1     -40.145  51.889 -53.707  1.00  0.00    -0.026 A 
HETATM   16  C   UNL     1     -39.834  51.383 -51.351  1.00  0.00     0.012 A 
HETATM   17  C   UNL     1     -40.450  52.817 -54.713  1.00  0.00     0.015 A 
HETATM   18  C   UNL     1     -39.833  50.555 -54.013  1.00  0.00     0.012 A 
HETATM   19  C   UNL     1     -40.769  54.141 -54.395  1.00  0.00     0.037 A 
HETATM   20  C   UNL     1     -39.526  49.646 -53.000  1.00  0.00     0.001 A 
HETATM   21  C   UNL     1     -39.525  50.059 -51.671  1.00  0.00     0.001 A 
ENDBRANCH  11  12
ENDBRANCH  10  11
ENDBRANCH   7  10
ENDBRANCH   4   6
ENDBRANCH   2   4
BRANCH   3  22
HETATM   22  C   UNL     1     -43.897  57.727 -55.870  1.00  0.00     0.247 C 
HETATM   23  N   UNL     1     -42.677  58.179 -56.326  1.00  0.00    -0.324 N 
HETATM   24  H   UNL     1     -41.869  58.003 -55.743  1.00  0.00     0.169 HD
HETATM   25  O   UNL     1     -44.985  57.868 -56.413  1.00  0.00    -0.268 OA
BRANCH  23  26
HETATM   26  C   UNL     1     -42.425  58.854 -57.540  1.00  0.00     0.035 A 
HETATM   27  C   UNL     1     -42.243  58.212 -58.768  1.00  0.00     0.030 A 
HETATM   28  C   UNL     1     -41.981  58.946 -59.932  1.00  0.00     0.019 A 
HETATM   29  C   UNL     1     -41.893  60.339 -59.879  1.00  0.00     0.032 A 
HETATM   30  C   UNL     1     -42.095  60.990 -58.658  1.00  0.00     0.019 A 
HETATM   31  C   UNL     1     -42.354  60.252 -57.497  1.00  0.00     0.030 A 
BRANCH  29  32
HETATM   32  C   UNL     1     -41.608  61.163 -61.084  1.00  0.00     0.249 C 
HETATM   33  N   UNL     1     -41.962  60.650 -62.300  1.00  0.00    -0.366 N 
HETATM   34  H   UNL     1     -42.214  59.682 -62.438  1.00  0.00     0.159 HD
HETATM   35  H   UNL     1     -41.669  61.179 -63.112  1.00  0.00     0.159 HD
HETATM   36  O   UNL     1     -41.043  62.246 -61.001  1.00  0.00    -0.268 OA
ENDBRANCH  29  32
ENDBRANCH  23  26
ENDBRANCH   3  22
TORSDOF 8
ENDMDL
MODEL 10
REMARK VINA RESULT:      -8.3      3.393      6.743
REMARK  8 active torsions:
REMARK  status: ('A' for Active; 'I' for Inactive)
REMARK    1  A    between atoms: C_2  and  N_3 
REMARK    2  A    between atoms: N_3  and  N_4 
REMARK       I    between atoms: N_4  and  C_5 
REMARK    3  A    between atoms: C_5  and  C_6 
REMARK    4  A    between atoms: C_6  and  O_7 
REMARK    5  A    between atoms: O_7  and  C_8 
REMARK    6  A    between atoms: C_19  and  C_20 
REMARK       I    between atoms: C_20  and  N_21 
REMARK    7  A    between atoms: N_21  and  C_22 
REMARK    8  A    between atoms: C_25  and  C_26 
REMARK       I    between atoms: C_26  and  N_27 
ROOT
HETATM    1  C   UNL     1     -44.158  57.122 -52.429  1.00  0.00     0.070 C 
HETATM    2  C   UNL     1     -43.213  57.480 -51.299  1.00  0.00     0.027 C 
HETATM    3  C   UNL     1     -42.494  56.548 -50.640  1.00  0.00     0.100 C 
ENDROOT
BRANCH   2   4
HETATM    4  N   UNL     1     -43.168  58.842 -51.010  1.00  0.00    -0.302 N 
HETATM    5  H   UNL     1     -43.432  59.425 -51.816  1.00  0.00     0.186 HD
BRANCH   4   6
HETATM    6  N   UNL     1     -42.174  59.423 -50.217  1.00  0.00    -0.268 N 
HETATM    7  C   UNL     1     -40.936  59.750 -50.734  1.00  0.00     0.260 C 
HETATM    8  O   UNL     1     -40.224  60.567 -50.147  1.00  0.00    -0.269 OA
HETATM    9  H   UNL     1     -42.507  60.005 -49.452  1.00  0.00     0.190 HD
BRANCH   7  10
HETATM   10  C   UNL     1     -40.452  58.991 -51.969  1.00  0.00     0.280 C 
BRANCH  10  11
HETATM   11  O   UNL     1     -40.943  59.585 -53.168  1.00  0.00    -0.342 OA
BRANCH  11  12
HETATM   12  C   UNL     1     -41.377  58.695 -54.115  1.00  0.00     0.070 A 
HETATM   13  C   UNL     1     -42.230  59.220 -55.089  1.00  0.00     0.049 A 
HETATM   14  C   UNL     1     -42.748  58.408 -56.112  1.00  0.00    -0.023 A 
HETATM   15  C   UNL     1     -42.412  57.035 -56.142  1.00  0.00    -0.026 A 
HETATM   16  C   UNL     1     -43.591  58.926 -57.109  1.00  0.00     0.012 A 
HETATM   17  C   UNL     1     -41.580  56.514 -55.141  1.00  0.00     0.015 A 
HETATM   18  C   UNL     1     -42.921  56.221 -57.167  1.00  0.00     0.012 A 
HETATM   19  C   UNL     1     -41.072  57.336 -54.130  1.00  0.00     0.037 A 
HETATM   20  C   UNL     1     -43.753  56.754 -58.152  1.00  0.00     0.001 A 
HETATM   21  C   UNL     1     -44.089  58.105 -58.123  1.00  0.00     0.001 A 
ENDBRANCH  11  12
ENDBRANCH  10  11
ENDBRANCH   7  10
ENDBRANCH   4   6
ENDBRANCH   2   4
BRANCH   3  22
HETATM   22  C   UNL     1     -42.408  55.123 -51.063  1.00  0.00     0.247 C 
HETATM   23  N   UNL     1     -41.249  54.859 -51.763  1.00  0.00    -0.324 N 
HETATM   24  H   UNL     1     -40.603  55.626 -51.898  1.00  0.00     0.169 HD
HETATM   25  O   UNL     1     -43.318  54.340 -50.823  1.00  0.00    -0.268 OA
BRANCH  23  26
HETATM   26  C   UNL     1     -40.852  53.617 -52.305  1.00  0.00     0.035 A 
HETATM   27  C   UNL     1     -41.120  53.216 -53.616  1.00  0.00     0.030 A 
HETATM   28  C   UNL     1     -40.709  51.960 -54.083  1.00  0.00     0.019 A 
HETATM   29  C   UNL     1     -40.027  51.085 -53.234  1.00  0.00     0.032 A 
HETATM   30  C   UNL     1     -39.737  51.488 -51.926  1.00  0.00     0.019 A 
HETATM   31  C   UNL     1     -40.152  52.742 -51.464  1.00  0.00     0.030 A 
BRANCH  29  32
HETATM   32  C   UNL     1     -39.577  49.738 -53.677  1.00  0.00     0.249 C 
HETATM   33  N   UNL     1     -39.108  48.881 -52.722  1.00  0.00    -0.366 N 
HETATM   34  H   UNL     1     -38.866  49.176 -51.787  1.00  0.00     0.159 HD
HETATM   35  H   UNL     1     -38.714  48.011 -53.055  1.00  0.00     0.159 HD
HETATM   36  O   UNL     1     -39.589  49.415 -54.859  1.00  0.00    -0.268 OA
ENDBRANCH  29  32
ENDBRANCH  23  26
ENDBRANCH   3  22
TORSDOF 8
ENDMDL
