MODEL 1
REMARK VINA RESULT:      -8.7      0.000      0.000
REMARK  9 active torsions:
REMARK  status: ('A' for Active; 'I' for Inactive)
REMARK    1  A    between atoms: C_11  and  S_12 
REMARK    2  A    between atoms: S_12  and  C_13 
REMARK    3  A    between atoms: C_13  and  C_14 
REMARK       I    between atoms: C_14  and  N_15 
REMARK    4  A    between atoms: N_15  and  N_16 
REMARK    5  A    between atoms: N_16  and  C_17 
REMARK    6  A    between atoms: C_17  and  N_18 
REMARK    7  A    between atoms: N_18  and  C_19 
REMARK    8  A    between atoms: C_22  and  O_23 
REMARK    9  A    between atoms: O_23  and  C_24 
ROOT
HETATM    1  C   UNL     1     -44.579  58.626 -51.361  1.00  0.00     0.245 C 
HETATM    2  N   UNL     1     -43.566  57.682 -51.231  1.00  0.00    -0.267 N 
HETATM    3  O   UNL     1     -45.696  58.468 -50.878  1.00  0.00    -0.271 OA
HETATM    4  H   UNL     1     -42.726  57.683 -51.802  1.00  0.00     0.190 HD
ENDROOT
BRANCH   2   5
HETATM    5  N   UNL     1     -43.787  56.570 -50.413  1.00  0.00    -0.274 N 
HETATM    6  H   UNL     1     -44.607  56.634 -49.819  1.00  0.00     0.189 HD
BRANCH   5   7
HETATM    7  C   UNL     1     -43.267  55.334 -50.707  1.00  0.00     0.191 C 
HETATM    8  S   UNL     1     -44.153  53.911 -50.713  1.00  0.00    -0.039 SA
BRANCH   7   9
HETATM    9  N   UNL     1     -41.976  55.297 -51.168  1.00  0.00    -0.332 N 
HETATM   10  H   UNL     1     -41.455  56.144 -50.964  1.00  0.00     0.168 HD
BRANCH   9  11
HETATM   11  C   UNL     1     -41.290  54.307 -51.899  1.00  0.00     0.034 A 
HETATM   12  C   UNL     1     -41.215  54.282 -53.292  1.00  0.00     0.032 A 
HETATM   13  C   UNL     1     -40.545  53.242 -53.947  1.00  0.00     0.039 A 
HETATM   14  C   UNL     1     -39.915  52.228 -53.222  1.00  0.00     0.078 A 
HETATM   15  C   UNL     1     -39.931  52.288 -51.830  1.00  0.00     0.039 A 
HETATM   16  C   UNL     1     -40.604  53.328 -51.174  1.00  0.00     0.032 A 
BRANCH  14  17
HETATM   17  O   UNL     1     -39.324  51.267 -53.990  1.00  0.00    -0.255 OA
BRANCH  17  18
HETATM   18  C   UNL     1     -40.037  50.062 -54.206  1.00  0.00     0.530 C 
HETATM   19  F   UNL     1     -39.931  49.239 -53.141  1.00  0.00    -0.144 F 
HETATM   20  F   UNL     1     -41.340  50.303 -54.463  1.00  0.00    -0.144 F 
HETATM   21  F   UNL     1     -39.509  49.432 -55.279  1.00  0.00    -0.144 F 
ENDBRANCH  17  18
ENDBRANCH  14  17
ENDBRANCH   9  11
ENDBRANCH   7   9
ENDBRANCH   5   7
ENDBRANCH   2   5
BRANCH   1  22
HETATM   22  C   UNL     1     -44.107  59.871 -52.098  1.00  0.00     0.187 C 
BRANCH  22  23
HETATM   23  S   UNL     1     -42.312  59.964 -52.354  1.00  0.00    -0.079 SA
BRANCH  23  24
HETATM   24  C   UNL     1     -42.192  59.335 -54.018  1.00  0.00     0.211 A 
HETATM   25  N   UNL     1     -41.818  60.198 -55.008  1.00  0.00    -0.122 NA
HETATM   26  N   UNL     1     -41.836  59.819 -56.290  1.00  0.00    -0.143 NA
HETATM   27  C   UNL     1     -42.230  58.542 -56.530  1.00  0.00     0.137 A 
HETATM   28  C   UNL     1     -42.429  57.813 -57.731  1.00  0.00     0.025 A 
HETATM   29  C   UNL     1     -42.538  57.707 -55.472  1.00  0.00     0.162 A 
HETATM   30  C   UNL     1     -42.313  58.116 -59.103  1.00  0.00     0.016 A 
HETATM   31  C   UNL     1     -42.839  56.525 -57.361  1.00  0.00     0.046 A 
HETATM   32  C   UNL     1     -42.610  57.130 -60.050  1.00  0.00     0.001 A 
HETATM   33  C   UNL     1     -43.010  55.856 -59.651  1.00  0.00     0.002 A 
HETATM   34  C   UNL     1     -43.131  55.528 -58.298  1.00  0.00     0.030 A 
HETATM   35  N   UNL     1     -42.884  56.492 -55.984  1.00  0.00    -0.338 N 
HETATM   36  H   UNL     1     -43.160  55.700 -55.421  1.00  0.00     0.167 HD
HETATM   37  N   UNL     1     -42.522  58.035 -54.171  1.00  0.00    -0.201 NA
ENDBRANCH  23  24
ENDBRANCH  22  23
ENDBRANCH   1  22
TORSDOF 9
ENDMDL
MODEL 2
REMARK VINA RESULT:      -8.7      3.592      7.207
REMARK  9 active torsions:
REMARK  status: ('A' for Active; 'I' for Inactive)
REMARK    1  A    between atoms: C_11  and  S_12 
REMARK    2  A    between atoms: S_12  and  C_13 
REMARK    3  A    between atoms: C_13  and  C_14 
REMARK       I    between atoms: C_14  and  N_15 
REMARK    4  A    between atoms: N_15  and  N_16 
REMARK    5  A    between atoms: N_16  and  C_17 
REMARK    6  A    between atoms: C_17  and  N_18 
REMARK    7  A    between atoms: N_18  and  C_19 
REMARK    8  A    between atoms: C_22  and  O_23 
REMARK    9  A    between atoms: O_23  and  C_24 
ROOT
HETATM    1  C   UNL     1     -40.686  58.916 -52.465  1.00  0.00     0.245 C 
HETATM    2  N   UNL     1     -41.994  59.252 -52.796  1.00  0.00    -0.267 N 
HETATM    3  O   UNL     1     -39.733  59.165 -53.198  1.00  0.00    -0.271 OA
HETATM    4  H   UNL     1     -42.806  58.862 -52.327  1.00  0.00     0.190 HD
ENDROOT
BRANCH   2   5
HETATM    5  N   UNL     1     -42.219  60.017 -53.945  1.00  0.00    -0.274 N 
HETATM    6  H   UNL     1     -41.623  60.833 -54.038  1.00  0.00     0.189 HD
BRANCH   5   7
HETATM    7  C   UNL     1     -42.816  59.491 -55.064  1.00  0.00     0.191 C 
HETATM    8  S   UNL     1     -44.396  59.803 -55.529  1.00  0.00    -0.039 SA
BRANCH   7   9
HETATM    9  N   UNL     1     -42.013  58.787 -55.924  1.00  0.00    -0.332 N 
HETATM   10  H   UNL     1     -41.027  58.849 -55.690  1.00  0.00     0.168 HD
BRANCH   9  11
HETATM   11  C   UNL     1     -42.332  58.044 -57.077  1.00  0.00     0.034 A 
HETATM   12  C   UNL     1     -42.169  58.521 -58.379  1.00  0.00     0.032 A 
HETATM   13  C   UNL     1     -42.546  57.735 -59.474  1.00  0.00     0.039 A 
HETATM   14  C   UNL     1     -43.063  56.451 -59.289  1.00  0.00     0.078 A 
HETATM   15  C   UNL     1     -43.163  55.946 -57.993  1.00  0.00     0.039 A 
HETATM   16  C   UNL     1     -42.788  56.735 -56.897  1.00  0.00     0.032 A 
BRANCH  14  17
HETATM   17  O   UNL     1     -43.411  55.809 -60.442  1.00  0.00    -0.255 OA
BRANCH  17  18
HETATM   18  C   UNL     1     -44.594  55.031 -60.434  1.00  0.00     0.530 C 
HETATM   19  F   UNL     1     -45.644  55.749 -59.980  1.00  0.00    -0.144 F 
HETATM   20  F   UNL     1     -44.875  54.553 -61.666  1.00  0.00    -0.144 F 
HETATM   21  F   UNL     1     -44.416  53.977 -59.607  1.00  0.00    -0.144 F 
ENDBRANCH  17  18
ENDBRANCH  14  17
ENDBRANCH   9  11
ENDBRANCH   7   9
ENDBRANCH   5   7
ENDBRANCH   2   5
BRANCH   1  22
HETATM   22  C   UNL     1     -40.591  58.280 -51.085  1.00  0.00     0.187 C 
BRANCH  22  23
HETATM   23  S   UNL     1     -41.912  57.091 -50.709  1.00  0.00    -0.079 SA
BRANCH  23  24
HETATM   24  C   UNL     1     -41.271  55.636 -51.516  1.00  0.00     0.211 A 
HETATM   25  N   UNL     1     -41.323  55.579 -52.879  1.00  0.00    -0.122 NA
HETATM   26  N   UNL     1     -40.978  54.464 -53.531  1.00  0.00    -0.143 NA
HETATM   27  C   UNL     1     -40.570  53.423 -52.762  1.00  0.00     0.137 A 
HETATM   28  C   UNL     1     -40.190  52.092 -53.077  1.00  0.00     0.025 A 
HETATM   29  C   UNL     1     -40.487  53.573 -51.389  1.00  0.00     0.162 A 
HETATM   30  C   UNL     1     -40.102  51.344 -54.269  1.00  0.00     0.016 A 
HETATM   31  C   UNL     1     -39.860  51.467 -51.867  1.00  0.00     0.046 A 
HETATM   32  C   UNL     1     -39.691  50.008 -54.211  1.00  0.00     0.001 A 
HETATM   33  C   UNL     1     -39.364  49.416 -52.992  1.00  0.00     0.002 A 
HETATM   34  C   UNL     1     -39.440  50.134 -51.796  1.00  0.00     0.030 A 
HETATM   35  N   UNL     1     -40.041  52.396 -50.865  1.00  0.00    -0.338 N 
HETATM   36  H   UNL     1     -39.897  52.237 -49.878  1.00  0.00     0.167 HD
HETATM   37  N   UNL     1     -40.806  54.673 -50.691  1.00  0.00    -0.201 NA
ENDBRANCH  23  24
ENDBRANCH  22  23
ENDBRANCH   1  22
TORSDOF 9
ENDMDL
MODEL 3
REMARK VINA RESULT:      -8.6      3.363      6.886
REMARK  9 active torsions:
REMARK  status: ('A' for Active; 'I' for Inactive)
REMARK    1  A    between atoms: C_11  and  S_12 
REMARK    2  A    between atoms: S_12  and  C_13 
REMARK    3  A    between atoms: C_13  and  C_14 
REMARK       I    between atoms: C_14  and  N_15 
REMARK    4  A    between atoms: N_15  and  N_16 
REMARK    5  A    between atoms: N_16  and  C_17 
REMARK    6  A    between atoms: C_17  and  N_18 
REMARK    7  A    between atoms: N_18  and  C_19 
REMARK    8  A    between atoms: C_22  and  O_23 
REMARK    9  A    between atoms: O_23  and  C_24 
ROOT
HETATM    1  C   UNL     1     -41.826  59.639 -52.782  1.00  0.00     0.245 C 
HETATM    2  N   UNL     1     -42.679  60.149 -53.754  1.00  0.00    -0.267 N 
HETATM    3  O   UNL     1     -40.618  59.513 -52.961  1.00  0.00    -0.271 OA
HETATM    4  H   UNL     1     -43.689  60.051 -53.717  1.00  0.00     0.190 HD
ENDROOT
BRANCH   2   5
HETATM    5  N   UNL     1     -42.124  60.657 -54.933  1.00  0.00    -0.274 N 
HETATM    6  H   UNL     1     -41.145  60.913 -54.868  1.00  0.00     0.189 HD
BRANCH   5   7
HETATM    7  C   UNL     1     -42.668  60.393 -56.166  1.00  0.00     0.191 C 
HETATM    8  S   UNL     1     -44.114  61.036 -56.720  1.00  0.00    -0.039 SA
BRANCH   7   9
HETATM    9  N   UNL     1     -41.898  59.676 -57.044  1.00  0.00    -0.332 N 
HETATM   10  H   UNL     1     -40.957  60.044 -57.143  1.00  0.00     0.168 HD
BRANCH   9  11
HETATM   11  C   UNL     1     -42.214  58.560 -57.844  1.00  0.00     0.034 A 
HETATM   12  C   UNL     1     -42.138  58.556 -59.238  1.00  0.00     0.032 A 
HETATM   13  C   UNL     1     -42.506  57.418 -59.964  1.00  0.00     0.039 A 
HETATM   14  C   UNL     1     -42.929  56.258 -59.311  1.00  0.00     0.078 A 
HETATM   15  C   UNL     1     -42.941  56.237 -57.917  1.00  0.00     0.039 A 
HETATM   16  C   UNL     1     -42.574  57.378 -57.190  1.00  0.00     0.032 A 
BRANCH  14  17
HETATM   17  O   UNL     1     -43.281  55.235 -60.144  1.00  0.00    -0.255 OA
BRANCH  17  18
HETATM   18  C   UNL     1     -44.630  54.804 -60.127  1.00  0.00     0.530 C 
HETATM   19  F   UNL     1     -45.048  54.471 -61.367  1.00  0.00    -0.144 F 
HETATM   20  F   UNL     1     -44.799  53.753 -59.296  1.00  0.00    -0.144 F 
HETATM   21  F   UNL     1     -45.405  55.818 -59.681  1.00  0.00    -0.144 F 
ENDBRANCH  17  18
ENDBRANCH  14  17
ENDBRANCH   9  11
ENDBRANCH   7   9
ENDBRANCH   5   7
ENDBRANCH   2   5
BRANCH   1  22
HETATM   22  C   UNL     1     -42.558  59.334 -51.483  1.00  0.00     0.187 C 
BRANCH  22  23
HETATM   23  S   UNL     1     -43.892  58.111 -51.636  1.00  0.00    -0.079 SA
BRANCH  23  24
HETATM   24  C   UNL     1     -42.981  56.726 -52.292  1.00  0.00     0.211 A 
HETATM   25  N   UNL     1     -43.256  56.319 -53.566  1.00  0.00    -0.122 NA
HETATM   26  N   UNL     1     -42.700  55.210 -54.066  1.00  0.00    -0.143 NA
HETATM   27  C   UNL     1     -41.854  54.541 -53.241  1.00  0.00     0.137 A 
HETATM   28  C   UNL     1     -41.137  53.325 -53.388  1.00  0.00     0.025 A 
HETATM   29  C   UNL     1     -41.578  55.046 -51.983  1.00  0.00     0.162 A 
HETATM   30  C   UNL     1     -41.033  52.355 -54.407  1.00  0.00     0.016 A 
HETATM   31  C   UNL     1     -40.417  53.133 -52.203  1.00  0.00     0.046 A 
HETATM   32  C   UNL     1     -40.219  51.235 -54.205  1.00  0.00     0.001 A 
HETATM   33  C   UNL     1     -39.510  51.075 -53.016  1.00  0.00     0.002 A 
HETATM   34  C   UNL     1     -39.594  52.022 -51.991  1.00  0.00     0.030 A 
HETATM   35  N   UNL     1     -40.698  54.200 -51.376  1.00  0.00    -0.338 N 
HETATM   36  H   UNL     1     -40.338  54.336 -50.443  1.00  0.00     0.167 HD
HETATM   37  N   UNL     1     -42.098  56.159 -51.443  1.00  0.00    -0.201 NA
ENDBRANCH  23  24
ENDBRANCH  22  23
ENDBRANCH   1  22
TORSDOF 9
ENDMDL
MODEL 4
REMARK VINA RESULT:      -8.5      3.525      7.389
REMARK  9 active torsions:
REMARK  status: ('A' for Active; 'I' for Inactive)
REMARK    1  A    between atoms: C_11  and  S_12 
REMARK    2  A    between atoms: S_12  and  C_13 
REMARK    3  A    between atoms: C_13  and  C_14 
REMARK       I    between atoms: C_14  and  N_15 
REMARK    4  A    between atoms: N_15  and  N_16 
REMARK    5  A    between atoms: N_16  and  C_17 
REMARK    6  A    between atoms: C_17  and  N_18 
REMARK    7  A    between atoms: N_18  and  C_19 
REMARK    8  A    between atoms: C_22  and  O_23 
REMARK    9  A    between atoms: O_23  and  C_24 
ROOT
HETATM    1  C   UNL     1     -41.599  59.103 -53.261  1.00  0.00     0.245 C 
HETATM    2  N   UNL     1     -42.557  59.669 -54.094  1.00  0.00    -0.267 N 
HETATM    3  O   UNL     1     -40.397  59.309 -53.399  1.00  0.00    -0.271 OA
HETATM    4  H   UNL     1     -43.517  59.342 -54.145  1.00  0.00     0.190 HD
ENDROOT
BRANCH   2   5
HETATM    5  N   UNL     1     -42.147  60.609 -55.046  1.00  0.00    -0.274 N 
HETATM    6  H   UNL     1     -41.291  61.102 -54.816  1.00  0.00     0.189 HD
BRANCH   5   7
HETATM    7  C   UNL     1     -42.553  60.543 -56.356  1.00  0.00     0.191 C 
HETATM    8  S   UNL     1     -43.696  61.557 -57.044  1.00  0.00    -0.039 SA
BRANCH   7   9
HETATM    9  N   UNL     1     -41.865  59.688 -57.177  1.00  0.00    -0.332 N 
HETATM   10  H   UNL     1     -40.917  59.995 -57.369  1.00  0.00     0.168 HD
BRANCH   9  11
HETATM   11  C   UNL     1     -42.274  58.500 -57.816  1.00  0.00     0.034 A 
HETATM   12  C   UNL     1     -42.753  57.378 -57.137  1.00  0.00     0.032 A 
HETATM   13  C   UNL     1     -43.104  56.221 -57.842  1.00  0.00     0.039 A 
HETATM   14  C   UNL     1     -43.010  56.175 -59.234  1.00  0.00     0.078 A 
HETATM   15  C   UNL     1     -42.597  57.316 -59.919  1.00  0.00     0.039 A 
HETATM   16  C   UNL     1     -42.244  58.475 -59.213  1.00  0.00     0.032 A 
BRANCH  14  17
HETATM   17  O   UNL     1     -43.361  54.976 -59.785  1.00  0.00    -0.255 OA
BRANCH  17  18
HETATM   18  C   UNL     1     -44.720  54.781 -60.134  1.00  0.00     0.530 C 
HETATM   19  F   UNL     1     -45.492  55.779 -59.653  1.00  0.00    -0.144 F 
HETATM   20  F   UNL     1     -44.875  54.696 -61.473  1.00  0.00    -0.144 F 
HETATM   21  F   UNL     1     -45.146  53.620 -59.589  1.00  0.00    -0.144 F 
ENDBRANCH  17  18
ENDBRANCH  14  17
ENDBRANCH   9  11
ENDBRANCH   7   9
ENDBRANCH   5   7
ENDBRANCH   2   5
BRANCH   1  22
HETATM   22  C   UNL     1     -42.228  58.278 -52.147  1.00  0.00     0.187 C 
BRANCH  22  23
HETATM   23  S   UNL     1     -41.094  57.846 -50.795  1.00  0.00    -0.079 SA
BRANCH  23  24
HETATM   24  C   UNL     1     -40.898  56.098 -51.089  1.00  0.00     0.211 A 
HETATM   25  N   UNL     1     -40.457  55.317 -50.060  1.00  0.00    -0.122 NA
HETATM   26  N   UNL     1     -40.168  54.027 -50.254  1.00  0.00    -0.143 NA
HETATM   27  C   UNL     1     -40.351  53.557 -51.515  1.00  0.00     0.137 A 
HETATM   28  C   UNL     1     -40.104  52.291 -52.109  1.00  0.00     0.025 A 
HETATM   29  C   UNL     1     -40.856  54.392 -52.494  1.00  0.00     0.162 A 
HETATM   30  C   UNL     1     -39.577  51.068 -51.647  1.00  0.00     0.016 A 
HETATM   31  C   UNL     1     -40.494  52.390 -53.451  1.00  0.00     0.046 A 
HETATM   32  C   UNL     1     -39.458  49.994 -52.537  1.00  0.00     0.001 A 
HETATM   33  C   UNL     1     -39.860  50.122 -53.866  1.00  0.00     0.002 A 
HETATM   34  C   UNL     1     -40.387  51.322 -54.349  1.00  0.00     0.030 A 
HETATM   35  N   UNL     1     -40.955  53.674 -53.649  1.00  0.00    -0.338 N 
HETATM   36  H   UNL     1     -41.293  54.053 -54.521  1.00  0.00     0.167 HD
HETATM   37  N   UNL     1     -41.175  55.687 -52.345  1.00  0.00    -0.201 NA
ENDBRANCH  23  24
ENDBRANCH  22  23
ENDBRANCH   1  22
TORSDOF 9
ENDMDL
MODEL 5
REMARK VINA RESULT:      -8.5      2.669      5.341
REMARK  9 active torsions:
REMARK  status: ('A' for Active; 'I' for Inactive)
REMARK    1  A    between atoms: C_11  and  S_12 
REMARK    2  A    between atoms: S_12  and  C_13 
REMARK    3  A    between atoms: C_13  and  C_14 
REMARK       I    between atoms: C_14  and  N_15 
REMARK    4  A    between atoms: N_15  and  N_16 
REMARK    5  A    between atoms: N_16  and  C_17 
REMARK    6  A    between atoms: C_17  and  N_18 
REMARK    7  A    between atoms: N_18  and  C_19 
REMARK    8  A    between atoms: C_22  and  O_23 
REMARK    9  A    between atoms: O_23  and  C_24 
ROOT
HETATM    1  C   UNL     1     -42.818  59.846 -57.409  1.00  0.00     0.245 C 
HETATM    2  N   UNL     1     -42.202  58.700 -56.918  1.00  0.00    -0.267 N 
HETATM    3  O   UNL     1     -43.199  59.947 -58.572  1.00  0.00    -0.271 OA
HETATM    4  H   UNL     1     -41.683  58.676 -56.046  1.00  0.00     0.190 HD
ENDROOT
BRANCH   2   5
HETATM    5  N   UNL     1     -42.128  57.574 -57.744  1.00  0.00    -0.274 N 
HETATM    6  H   UNL     1     -41.229  57.433 -58.192  1.00  0.00     0.189 HD
BRANCH   5   7
HETATM    7  C   UNL     1     -42.980  56.507 -57.599  1.00  0.00     0.191 C 
HETATM    8  S   UNL     1     -43.560  55.579 -58.869  1.00  0.00    -0.039 SA
BRANCH   7   9
HETATM    9  N   UNL     1     -43.249  56.096 -56.319  1.00  0.00    -0.332 N 
HETATM   10  H   UNL     1     -44.123  56.463 -55.957  1.00  0.00     0.168 HD
BRANCH   9  11
HETATM   11  C   UNL     1     -42.498  55.296 -55.435  1.00  0.00     0.034 A 
HETATM   12  C   UNL     1     -41.113  55.391 -55.286  1.00  0.00     0.032 A 
HETATM   13  C   UNL     1     -40.434  54.534 -54.413  1.00  0.00     0.039 A 
HETATM   14  C   UNL     1     -41.128  53.590 -53.654  1.00  0.00     0.078 A 
HETATM   15  C   UNL     1     -42.517  53.539 -53.749  1.00  0.00     0.039 A 
HETATM   16  C   UNL     1     -43.197  54.396 -54.626  1.00  0.00     0.032 A 
BRANCH  14  17
HETATM   17  O   UNL     1     -40.336  52.805 -52.866  1.00  0.00    -0.255 OA
BRANCH  17  18
HETATM   18  C   UNL     1     -39.919  51.555 -53.384  1.00  0.00     0.530 C 
HETATM   19  F   UNL     1     -38.700  51.649 -53.956  1.00  0.00    -0.144 F 
HETATM   20  F   UNL     1     -39.895  50.608 -52.421  1.00  0.00    -0.144 F 
HETATM   21  F   UNL     1     -40.799  51.163 -54.333  1.00  0.00    -0.144 F 
ENDBRANCH  17  18
ENDBRANCH  14  17
ENDBRANCH   9  11
ENDBRANCH   7   9
ENDBRANCH   5   7
ENDBRANCH   2   5
BRANCH   1  22
HETATM   22  C   UNL     1     -43.015  60.897 -56.325  1.00  0.00     0.187 C 
BRANCH  22  23
HETATM   23  S   UNL     1     -44.464  60.626 -55.264  1.00  0.00    -0.079 SA
BRANCH  23  24
HETATM   24  C   UNL     1     -43.762  59.541 -54.036  1.00  0.00     0.211 A 
HETATM   25  N   UNL     1     -42.430  59.656 -53.759  1.00  0.00    -0.122 NA
HETATM   26  N   UNL     1     -41.822  58.787 -52.945  1.00  0.00    -0.143 NA
HETATM   27  C   UNL     1     -42.607  57.813 -52.417  1.00  0.00     0.137 A 
HETATM   28  C   UNL     1     -42.320  56.704 -51.579  1.00  0.00     0.025 A 
HETATM   29  C   UNL     1     -43.961  57.794 -52.696  1.00  0.00     0.162 A 
HETATM   30  C   UNL     1     -41.148  56.182 -50.995  1.00  0.00     0.016 A 
HETATM   31  C   UNL     1     -43.535  56.043 -51.351  1.00  0.00     0.046 A 
HETATM   32  C   UNL     1     -41.229  55.026 -50.211  1.00  0.00     0.001 A 
HETATM   33  C   UNL     1     -42.454  54.394 -49.998  1.00  0.00     0.002 A 
HETATM   34  C   UNL     1     -43.631  54.891 -50.563  1.00  0.00     0.030 A 
HETATM   35  N   UNL     1     -44.511  56.737 -52.034  1.00  0.00    -0.338 N 
HETATM   36  H   UNL     1     -45.490  56.494 -52.074  1.00  0.00     0.167 HD
HETATM   37  N   UNL     1     -44.619  58.651 -53.492  1.00  0.00    -0.201 NA
ENDBRANCH  23  24
ENDBRANCH  22  23
ENDBRANCH   1  22
TORSDOF 9
ENDMDL
MODEL 6
REMARK VINA RESULT:      -7.8      2.267      2.744
REMARK  9 active torsions:
REMARK  status: ('A' for Active; 'I' for Inactive)
REMARK    1  A    between atoms: C_11  and  S_12 
REMARK    2  A    between atoms: S_12  and  C_13 
REMARK    3  A    between atoms: C_13  and  C_14 
REMARK       I    between atoms: C_14  and  N_15 
REMARK    4  A    between atoms: N_15  and  N_16 
REMARK    5  A    between atoms: N_16  and  C_17 
REMARK    6  A    between atoms: C_17  and  N_18 
REMARK    7  A    between atoms: N_18  and  C_19 
REMARK    8  A    between atoms: C_22  and  O_23 
REMARK    9  A    between atoms: O_23  and  C_24 
ROOT
HETATM    1  C   UNL     1     -43.653  60.163 -51.499  1.00  0.00     0.245 C 
HETATM    2  N   UNL     1     -42.485  60.684 -50.953  1.00  0.00    -0.267 N 
HETATM    3  O   UNL     1     -44.058  59.034 -51.240  1.00  0.00    -0.271 OA
HETATM    4  H   UNL     1     -42.016  61.507 -51.320  1.00  0.00     0.190 HD
ENDROOT
BRANCH   2   5
HETATM    5  N   UNL     1     -41.814  59.943 -49.975  1.00  0.00    -0.274 N 
HETATM    6  H   UNL     1     -42.278  59.907 -49.074  1.00  0.00     0.189 HD
BRANCH   5   7
HETATM    7  C   UNL     1     -40.899  58.972 -50.298  1.00  0.00     0.191 C 
HETATM    8  S   UNL     1     -39.324  59.279 -50.783  1.00  0.00    -0.039 SA
BRANCH   7   9
HETATM    9  N   UNL     1     -41.264  57.671 -50.062  1.00  0.00    -0.332 N 
HETATM   10  H   UNL     1     -41.464  57.484 -49.084  1.00  0.00     0.168 HD
BRANCH   9  11
HETATM   11  C   UNL     1     -41.361  56.571 -50.937  1.00  0.00     0.034 A 
HETATM   12  C   UNL     1     -41.435  56.688 -52.326  1.00  0.00     0.032 A 
HETATM   13  C   UNL     1     -41.568  55.547 -53.126  1.00  0.00     0.039 A 
HETATM   14  C   UNL     1     -41.601  54.273 -52.556  1.00  0.00     0.078 A 
HETATM   15  C   UNL     1     -41.459  54.150 -51.175  1.00  0.00     0.039 A 
HETATM   16  C   UNL     1     -41.328  55.293 -50.374  1.00  0.00     0.032 A 
BRANCH  14  17
HETATM   17  O   UNL     1     -41.760  53.256 -53.452  1.00  0.00    -0.255 OA
BRANCH  17  18
HETATM   18  C   UNL     1     -40.593  52.627 -53.953  1.00  0.00     0.530 C 
HETATM   19  F   UNL     1     -40.016  53.375 -54.917  1.00  0.00    -0.144 F 
HETATM   20  F   UNL     1     -39.700  52.394 -52.967  1.00  0.00    -0.144 F 
HETATM   21  F   UNL     1     -40.939  51.438 -54.494  1.00  0.00    -0.144 F 
ENDBRANCH  17  18
ENDBRANCH  14  17
ENDBRANCH   9  11
ENDBRANCH   7   9
ENDBRANCH   5   7
ENDBRANCH   2   5
BRANCH   1  22
HETATM   22  C   UNL     1     -44.374  61.177 -52.376  1.00  0.00     0.187 C 
BRANCH  22  23
HETATM   23  S   UNL     1     -45.688  60.476 -53.416  1.00  0.00    -0.079 SA
BRANCH  23  24
HETATM   24  C   UNL     1     -44.715  59.798 -54.747  1.00  0.00     0.211 A 
HETATM   25  N   UNL     1     -43.862  60.632 -55.412  1.00  0.00    -0.122 NA
HETATM   26  N   UNL     1     -43.204  60.215 -56.498  1.00  0.00    -0.143 NA
HETATM   27  C   UNL     1     -43.429  58.931 -56.877  1.00  0.00     0.137 A 
HETATM   28  C   UNL     1     -42.971  58.165 -57.981  1.00  0.00     0.025 A 
HETATM   29  C   UNL     1     -44.261  58.126 -56.120  1.00  0.00     0.162 A 
HETATM   30  C   UNL     1     -42.143  58.429 -59.092  1.00  0.00     0.016 A 
HETATM   31  C   UNL     1     -43.532  56.888 -57.850  1.00  0.00     0.046 A 
HETATM   32  C   UNL     1     -41.907  57.414 -60.026  1.00  0.00     0.001 A 
HETATM   33  C   UNL     1     -42.475  56.151 -59.865  1.00  0.00     0.002 A 
HETATM   34  C   UNL     1     -43.298  55.863 -58.772  1.00  0.00     0.030 A 
HETATM   35  N   UNL     1     -44.300  56.895 -56.706  1.00  0.00    -0.338 N 
HETATM   36  H   UNL     1     -44.843  56.121 -56.353  1.00  0.00     0.167 HD
HETATM   37  N   UNL     1     -44.931  58.493 -55.017  1.00  0.00    -0.201 NA
ENDBRANCH  23  24
ENDBRANCH  22  23
ENDBRANCH   1  22
TORSDOF 9
ENDMDL
MODEL 7
REMARK VINA RESULT:      -7.8      3.370      5.911
REMARK  9 active torsions:
REMARK  status: ('A' for Active; 'I' for Inactive)
REMARK    1  A    between atoms: C_11  and  S_12 
REMARK    2  A    between atoms: S_12  and  C_13 
REMARK    3  A    between atoms: C_13  and  C_14 
REMARK       I    between atoms: C_14  and  N_15 
REMARK    4  A    between atoms: N_15  and  N_16 
REMARK    5  A    between atoms: N_16  and  C_17 
REMARK    6  A    between atoms: C_17  and  N_18 
REMARK    7  A    between atoms: N_18  and  C_19 
REMARK    8  A    between atoms: C_22  and  O_23 
REMARK    9  A    between atoms: O_23  and  C_24 
ROOT
HETATM    1  C   UNL     1     -40.352  54.040 -50.000  1.00  0.00     0.245 C 
HETATM    2  N   UNL     1     -40.572  53.045 -50.945  1.00  0.00    -0.267 N 
HETATM    3  O   UNL     1     -39.226  54.395 -49.662  1.00  0.00    -0.271 OA
HETATM    4  H   UNL     1     -41.467  52.583 -51.071  1.00  0.00     0.190 HD
ENDROOT
BRANCH   2   5
HETATM    5  N   UNL     1     -39.472  52.516 -51.630  1.00  0.00    -0.274 N 
HETATM    6  H   UNL     1     -38.581  52.632 -51.159  1.00  0.00     0.189 HD
BRANCH   5   7
HETATM    7  C   UNL     1     -39.609  51.531 -52.576  1.00  0.00     0.191 C 
HETATM    8  S   UNL     1     -39.633  49.889 -52.235  1.00  0.00    -0.039 SA
BRANCH   7   9
HETATM    9  N   UNL     1     -39.891  51.932 -53.856  1.00  0.00    -0.332 N 
HETATM   10  H   UNL     1     -39.491  51.323 -54.562  1.00  0.00     0.168 HD
BRANCH   9  11
HETATM   11  C   UNL     1     -40.596  53.055 -54.332  1.00  0.00     0.034 A 
HETATM   12  C   UNL     1     -39.982  54.201 -54.840  1.00  0.00     0.032 A 
HETATM   13  C   UNL     1     -40.752  55.291 -55.259  1.00  0.00     0.039 A 
HETATM   14  C   UNL     1     -42.147  55.245 -55.205  1.00  0.00     0.078 A 
HETATM   15  C   UNL     1     -42.764  54.077 -54.762  1.00  0.00     0.039 A 
HETATM   16  C   UNL     1     -41.992  52.985 -54.340  1.00  0.00     0.032 A 
BRANCH  14  17
HETATM   17  O   UNL     1     -42.767  56.387 -55.621  1.00  0.00    -0.255 OA
BRANCH  17  18
HETATM   18  C   UNL     1     -42.974  56.558 -57.012  1.00  0.00     0.530 C 
HETATM   19  F   UNL     1     -42.841  55.387 -57.669  1.00  0.00    -0.144 F 
HETATM   20  F   UNL     1     -44.192  57.083 -57.266  1.00  0.00    -0.144 F 
HETATM   21  F   UNL     1     -42.043  57.415 -57.487  1.00  0.00    -0.144 F 
ENDBRANCH  17  18
ENDBRANCH  14  17
ENDBRANCH   9  11
ENDBRANCH   7   9
ENDBRANCH   5   7
ENDBRANCH   2   5
BRANCH   1  22
HETATM   22  C   UNL     1     -41.653  54.659 -49.510  1.00  0.00     0.187 C 
BRANCH  22  23
HETATM   23  S   UNL     1     -43.113  54.237 -50.505  1.00  0.00    -0.079 SA
BRANCH  23  24
HETATM   24  C   UNL     1     -43.612  55.861 -51.046  1.00  0.00     0.211 A 
HETATM   25  N   UNL     1     -44.766  56.384 -50.537  1.00  0.00    -0.122 NA
HETATM   26  N   UNL     1     -45.258  57.538 -50.999  1.00  0.00    -0.143 NA
HETATM   27  C   UNL     1     -44.538  58.144 -51.978  1.00  0.00     0.137 A 
HETATM   28  C   UNL     1     -44.763  59.320 -52.741  1.00  0.00     0.025 A 
HETATM   29  C   UNL     1     -43.347  57.585 -52.403  1.00  0.00     0.162 A 
HETATM   30  C   UNL     1     -45.791  60.284 -52.794  1.00  0.00     0.016 A 
HETATM   31  C   UNL     1     -43.671  59.456 -53.608  1.00  0.00     0.046 A 
HETATM   32  C   UNL     1     -45.693  61.341 -53.705  1.00  0.00     0.001 A 
HETATM   33  C   UNL     1     -44.590  61.452 -54.551  1.00  0.00     0.002 A 
HETATM   34  C   UNL     1     -43.556  60.512 -54.518  1.00  0.00     0.030 A 
HETATM   35  N   UNL     1     -42.825  58.394 -53.370  1.00  0.00    -0.338 N 
HETATM   36  H   UNL     1     -41.958  58.209 -53.851  1.00  0.00     0.167 HD
HETATM   37  N   UNL     1     -42.805  56.440 -51.960  1.00  0.00    -0.201 NA
ENDBRANCH  23  24
ENDBRANCH  22  23
ENDBRANCH   1  22
TORSDOF 9
ENDMDL
MODEL 8
REMARK VINA RESULT:      -7.7      2.347      2.931
REMARK  9 active torsions:
REMARK  status: ('A' for Active; 'I' for Inactive)
REMARK    1  A    between atoms: C_11  and  S_12 
REMARK    2  A    between atoms: S_12  and  C_13 
REMARK    3  A    between atoms: C_13  and  C_14 
REMARK       I    between atoms: C_14  and  N_15 
REMARK    4  A    between atoms: N_15  and  N_16 
REMARK    5  A    between atoms: N_16  and  C_17 
REMARK    6  A    between atoms: C_17  and  N_18 
REMARK    7  A    between atoms: N_18  and  C_19 
REMARK    8  A    between atoms: C_22  and  O_23 
REMARK    9  A    between atoms: O_23  and  C_24 
ROOT
HETATM    1  C   UNL     1     -44.449  58.827 -52.512  1.00  0.00     0.245 C 
HETATM    2  N   UNL     1     -44.448  57.644 -53.242  1.00  0.00    -0.267 N 
HETATM    3  O   UNL     1     -43.774  58.981 -51.498  1.00  0.00    -0.271 OA
HETATM    4  H   UNL     1     -45.153  57.415 -53.935  1.00  0.00     0.190 HD
ENDROOT
BRANCH   2   5
HETATM    5  N   UNL     1     -43.547  56.636 -52.882  1.00  0.00    -0.274 N 
HETATM    6  H   UNL     1     -43.955  55.867 -52.361  1.00  0.00     0.189 HD
BRANCH   5   7
HETATM    7  C   UNL     1     -42.367  56.440 -53.554  1.00  0.00     0.191 C 
HETATM    8  S   UNL     1     -41.182  57.611 -53.747  1.00  0.00    -0.039 SA
BRANCH   7   9
HETATM    9  N   UNL     1     -42.087  55.161 -53.961  1.00  0.00    -0.332 N 
HETATM   10  H   UNL     1     -42.538  54.913 -54.836  1.00  0.00     0.168 HD
BRANCH   9  11
HETATM   11  C   UNL     1     -41.324  54.148 -53.347  1.00  0.00     0.034 A 
HETATM   12  C   UNL     1     -40.965  54.155 -51.999  1.00  0.00     0.032 A 
HETATM   13  C   UNL     1     -40.172  53.129 -51.472  1.00  0.00     0.039 A 
HETATM   14  C   UNL     1     -39.750  52.067 -52.274  1.00  0.00     0.078 A 
HETATM   15  C   UNL     1     -40.165  52.022 -53.604  1.00  0.00     0.039 A 
HETATM   16  C   UNL     1     -40.957  53.052 -54.132  1.00  0.00     0.032 A 
BRANCH  14  17
HETATM   17  O   UNL     1     -38.963  51.153 -51.635  1.00  0.00    -0.255 OA
BRANCH  17  18
HETATM   18  C   UNL     1     -39.596  50.032 -51.045  1.00  0.00     0.530 C 
HETATM   19  F   UNL     1     -38.722  49.310 -50.313  1.00  0.00    -0.144 F 
HETATM   20  F   UNL     1     -40.634  50.409 -50.267  1.00  0.00    -0.144 F 
HETATM   21  F   UNL     1     -40.077  49.238 -52.028  1.00  0.00    -0.144 F 
ENDBRANCH  17  18
ENDBRANCH  14  17
ENDBRANCH   9  11
ENDBRANCH   7   9
ENDBRANCH   5   7
ENDBRANCH   2   5
BRANCH   1  22
HETATM   22  C   UNL     1     -45.319  59.896 -53.159  1.00  0.00     0.187 C 
BRANCH  22  23
HETATM   23  S   UNL     1     -44.471  60.903 -54.411  1.00  0.00    -0.079 SA
BRANCH  23  24
HETATM   24  C   UNL     1     -44.737  59.901 -55.861  1.00  0.00     0.211 A 
HETATM   25  N   UNL     1     -45.917  60.041 -56.534  1.00  0.00    -0.122 NA
HETATM   26  N   UNL     1     -46.227  59.229 -57.550  1.00  0.00    -0.143 NA
HETATM   27  C   UNL     1     -45.302  58.286 -57.864  1.00  0.00     0.137 A 
HETATM   28  C   UNL     1     -45.296  57.233 -58.817  1.00  0.00     0.025 A 
HETATM   29  C   UNL     1     -44.103  58.242 -57.176  1.00  0.00     0.162 A 
HETATM   30  C   UNL     1     -46.219  56.756 -59.769  1.00  0.00     0.016 A 
HETATM   31  C   UNL     1     -44.062  56.581 -58.692  1.00  0.00     0.046 A 
HETATM   32  C   UNL     1     -45.879  55.651 -60.558  1.00  0.00     0.001 A 
HETATM   33  C   UNL     1     -44.641  55.026 -60.414  1.00  0.00     0.002 A 
HETATM   34  C   UNL     1     -43.707  55.480 -59.479  1.00  0.00     0.030 A 
HETATM   35  N   UNL     1     -43.359  57.224 -57.696  1.00  0.00    -0.338 N 
HETATM   36  H   UNL     1     -42.438  56.974 -57.365  1.00  0.00     0.167 HD
HETATM   37  N   UNL     1     -43.740  59.042 -56.162  1.00  0.00    -0.201 NA
ENDBRANCH  23  24
ENDBRANCH  22  23
ENDBRANCH   1  22
TORSDOF 9
ENDMDL
MODEL 9
REMARK VINA RESULT:      -7.7      4.567      8.101
REMARK  9 active torsions:
REMARK  status: ('A' for Active; 'I' for Inactive)
REMARK    1  A    between atoms: C_11  and  S_12 
REMARK    2  A    between atoms: S_12  and  C_13 
REMARK    3  A    between atoms: C_13  and  C_14 
REMARK       I    between atoms: C_14  and  N_15 
REMARK    4  A    between atoms: N_15  and  N_16 
REMARK    5  A    between atoms: N_16  and  C_17 
REMARK    6  A    between atoms: C_17  and  N_18 
REMARK    7  A    between atoms: N_18  and  C_19 
REMARK    8  A    between atoms: C_22  and  O_23 
REMARK    9  A    between atoms: O_23  and  C_24 
ROOT
HETATM    1  C   UNL     1     -44.934  58.014 -51.326  1.00  0.00     0.245 C 
HETATM    2  N   UNL     1     -44.178  58.368 -52.437  1.00  0.00    -0.267 N 
HETATM    3  O   UNL     1     -44.850  56.913 -50.791  1.00  0.00    -0.271 OA
HETATM    4  H   UNL     1     -44.389  59.169 -53.024  1.00  0.00     0.190 HD
ENDROOT
BRANCH   2   5
HETATM    5  N   UNL     1     -43.192  57.483 -52.886  1.00  0.00    -0.274 N 
HETATM    6  H   UNL     1     -43.449  56.936 -53.700  1.00  0.00     0.189 HD
BRANCH   5   7
HETATM    7  C   UNL     1     -41.864  57.662 -52.589  1.00  0.00     0.191 C 
HETATM    8  S   UNL     1     -41.292  58.666 -51.374  1.00  0.00    -0.039 SA
BRANCH   7   9
HETATM    9  N   UNL     1     -40.967  56.851 -53.236  1.00  0.00    -0.332 N 
HETATM   10  H   UNL     1     -40.166  57.354 -53.603  1.00  0.00     0.168 HD
BRANCH   9  11
HETATM   11  C   UNL     1     -41.005  55.467 -53.500  1.00  0.00     0.034 A 
HETATM   12  C   UNL     1     -41.459  54.514 -52.587  1.00  0.00     0.032 A 
HETATM   13  C   UNL     1     -41.429  53.153 -52.911  1.00  0.00     0.039 A 
HETATM   14  C   UNL     1     -40.974  52.724 -54.159  1.00  0.00     0.078 A 
HETATM   15  C   UNL     1     -40.584  53.678 -55.097  1.00  0.00     0.039 A 
HETATM   16  C   UNL     1     -40.612  55.041 -54.771  1.00  0.00     0.032 A 
BRANCH  14  17
HETATM   17  O   UNL     1     -40.976  51.369 -54.328  1.00  0.00    -0.255 OA
BRANCH  17  18
HETATM   18  C   UNL     1     -39.783  50.664 -54.033  1.00  0.00     0.530 C 
HETATM   19  F   UNL     1     -39.337  49.992 -55.115  1.00  0.00    -0.144 F 
HETATM   20  F   UNL     1     -38.818  51.498 -53.589  1.00  0.00    -0.144 F 
HETATM   21  F   UNL     1     -40.041  49.766 -53.056  1.00  0.00    -0.144 F 
ENDBRANCH  17  18
ENDBRANCH  14  17
ENDBRANCH   9  11
ENDBRANCH   7   9
ENDBRANCH   5   7
ENDBRANCH   2   5
BRANCH   1  22
HETATM   22  C   UNL     1     -45.800  59.166 -50.835  1.00  0.00     0.187 C 
BRANCH  22  23
HETATM   23  S   UNL     1     -45.379  60.784 -51.544  1.00  0.00    -0.079 SA
BRANCH  23  24
HETATM   24  C   UNL     1     -45.461  61.804 -50.084  1.00  0.00     0.211 A 
HETATM   25  N   UNL     1     -44.344  62.502 -49.721  1.00  0.00    -0.122 NA
HETATM   26  N   UNL     1     -44.304  63.179 -48.570  1.00  0.00    -0.143 NA
HETATM   27  C   UNL     1     -45.429  63.136 -47.811  1.00  0.00     0.137 A 
HETATM   28  C   UNL     1     -45.741  63.667 -46.532  1.00  0.00     0.025 A 
HETATM   29  C   UNL     1     -46.543  62.457 -48.270  1.00  0.00     0.162 A 
HETATM   30  C   UNL     1     -45.028  64.410 -45.569  1.00  0.00     0.016 A 
HETATM   31  C   UNL     1     -47.066  63.307 -46.255  1.00  0.00     0.046 A 
HETATM   32  C   UNL     1     -45.660  64.765 -44.372  1.00  0.00     0.001 A 
HETATM   33  C   UNL     1     -46.982  64.396 -44.128  1.00  0.00     0.002 A 
HETATM   34  C   UNL     1     -47.712  63.661 -45.066  1.00  0.00     0.030 A 
HETATM   35  N   UNL     1     -47.526  62.583 -47.334  1.00  0.00    -0.338 N 
HETATM   36  H   UNL     1     -48.444  62.173 -47.423  1.00  0.00     0.167 HD
HETATM   37  N   UNL     1     -46.637  61.776 -49.422  1.00  0.00    -0.201 NA
ENDBRANCH  23  24
ENDBRANCH  22  23
ENDBRANCH   1  22
TORSDOF 9
ENDMDL
MODEL 10
REMARK VINA RESULT:      -7.7      2.170      2.742
REMARK  9 active torsions:
REMARK  status: ('A' for Active; 'I' for Inactive)
REMARK    1  A    between atoms: C_11  and  S_12 
REMARK    2  A    between atoms: S_12  and  C_13 
REMARK    3  A    between atoms: C_13  and  C_14 
REMARK       I    between atoms: C_14  and  N_15 
REMARK    4  A    between atoms: N_15  and  N_16 
REMARK    5  A    between atoms: N_16  and  C_17 
REMARK    6  A    between atoms: C_17  and  N_18 
REMARK    7  A    between atoms: N_18  and  C_19 
REMARK    8  A    between atoms: C_22  and  O_23 
REMARK    9  A    between atoms: O_23  and  C_24 
ROOT
HETATM    1  C   UNL     1     -44.561  59.374 -52.172  1.00  0.00     0.245 C 
HETATM    2  N   UNL     1     -44.379  58.064 -52.602  1.00  0.00    -0.267 N 
HETATM    3  O   UNL     1     -43.906  59.868 -51.259  1.00  0.00    -0.271 OA
HETATM    4  H   UNL     1     -45.048  57.570 -53.184  1.00  0.00     0.190 HD
ENDROOT
BRANCH   2   5
HETATM    5  N   UNL     1     -43.323  57.322 -52.061  1.00  0.00    -0.274 N 
HETATM    6  H   UNL     1     -43.606  56.548 -51.471  1.00  0.00     0.189 HD
BRANCH   5   7
HETATM    7  C   UNL     1     -42.074  57.312 -52.631  1.00  0.00     0.191 C 
HETATM    8  S   UNL     1     -40.787  58.248 -52.105  1.00  0.00    -0.039 SA
BRANCH   7   9
HETATM    9  N   UNL     1     -41.838  56.365 -53.594  1.00  0.00    -0.332 N 
HETATM   10  H   UNL     1     -42.180  56.635 -54.511  1.00  0.00     0.168 HD
BRANCH   9  11
HETATM   11  C   UNL     1     -41.248  55.089 -53.503  1.00  0.00     0.034 A 
HETATM   12  C   UNL     1     -41.069  54.400 -52.302  1.00  0.00     0.032 A 
HETATM   13  C   UNL     1     -40.439  53.150 -52.290  1.00  0.00     0.039 A 
HETATM   14  C   UNL     1     -40.005  52.556 -53.477  1.00  0.00     0.078 A 
HETATM   15  C   UNL     1     -40.244  53.211 -54.684  1.00  0.00     0.039 A 
HETATM   16  C   UNL     1     -40.873  54.464 -54.695  1.00  0.00     0.032 A 
BRANCH  14  17
HETATM   17  O   UNL     1     -39.385  51.351 -53.313  1.00  0.00    -0.255 OA
BRANCH  17  18
HETATM   18  C   UNL     1     -39.925  50.232 -53.995  1.00  0.00     0.530 C 
HETATM   19  F   UNL     1     -39.785  49.106 -53.264  1.00  0.00    -0.144 F 
HETATM   20  F   UNL     1     -41.230  50.420 -54.289  1.00  0.00    -0.144 F 
HETATM   21  F   UNL     1     -39.254  50.067 -55.156  1.00  0.00    -0.144 F 
ENDBRANCH  17  18
ENDBRANCH  14  17
ENDBRANCH   9  11
ENDBRANCH   7   9
ENDBRANCH   5   7
ENDBRANCH   2   5
BRANCH   1  22
HETATM   22  C   UNL     1     -45.599  60.110 -53.007  1.00  0.00     0.187 C 
BRANCH  22  23
HETATM   23  S   UNL     1     -44.930  60.967 -54.461  1.00  0.00    -0.079 SA
BRANCH  23  24
HETATM   24  C   UNL     1     -44.839  59.613 -55.617  1.00  0.00     0.211 A 
HETATM   25  N   UNL     1     -43.701  58.859 -55.640  1.00  0.00    -0.122 NA
HETATM   26  N   UNL     1     -43.523  57.915 -56.569  1.00  0.00    -0.143 NA
HETATM   27  C   UNL     1     -44.535  57.755 -57.460  1.00  0.00     0.137 A 
HETATM   28  C   UNL     1     -44.686  56.917 -58.596  1.00  0.00     0.025 A 
HETATM   29  C   UNL     1     -45.684  58.515 -57.339  1.00  0.00     0.162 A 
HETATM   30  C   UNL     1     -43.868  55.964 -59.237  1.00  0.00     0.016 A 
HETATM   31  C   UNL     1     -45.953  57.182 -59.130  1.00  0.00     0.046 A 
HETATM   32  C   UNL     1     -44.343  55.314 -60.382  1.00  0.00     0.001 A 
HETATM   33  C   UNL     1     -45.611  55.595 -60.886  1.00  0.00     0.002 A 
HETATM   34  C   UNL     1     -46.443  56.534 -60.269  1.00  0.00     0.030 A 
HETATM   35  N   UNL     1     -46.537  58.148 -58.338  1.00  0.00    -0.338 N 
HETATM   36  H   UNL     1     -47.449  58.557 -58.479  1.00  0.00     0.167 HD
HETATM   37  N   UNL     1     -45.916  59.462 -56.417  1.00  0.00    -0.201 NA
ENDBRANCH  23  24
ENDBRANCH  22  23
ENDBRANCH   1  22
TORSDOF 9
ENDMDL
