MODEL 1
REMARK VINA RESULT:      -9.3      0.000      0.000
REMARK  6 active torsions:
REMARK  status: ('A' for Active; 'I' for Inactive)
REMARK    1  A    between atoms: O_2  and  C_3 
REMARK    2  A    between atoms: C_10  and  C_11 
REMARK    3  A    between atoms: C_11  and  C_12 
REMARK    4  A    between atoms: C_12  and  N_13 
REMARK       I    between atoms: N_13  and  C_14 
REMARK    5  A    between atoms: C_14  and  C_15 
REMARK    6  A    between atoms: C_21  and  C_22 
ROOT
HETATM    1  N   UNL     1     -43.835  57.486 -53.637  1.00  0.00    -0.357 N 
HETATM    2  C   UNL     1     -43.528  56.153 -53.463  1.00  0.00     0.251 C 
HETATM    3  O   UNL     1     -44.037  55.250 -54.119  1.00  0.00    -0.268 OA
HETATM    4  H   UNL     1     -43.164  58.175 -53.318  1.00  0.00     0.162 HD
ENDROOT
BRANCH   2   5
HETATM    5  C   UNL     1     -42.509  55.827 -52.422  1.00  0.00     0.033 A 
HETATM    6  C   UNL     1     -41.861  54.573 -52.543  1.00  0.00     0.033 A 
HETATM    7  C   UNL     1     -40.979  54.335 -51.489  1.00  0.00     0.033 A 
HETATM    8  C   UNL     1     -40.702  55.232 -50.391  1.00  0.00     0.097 A 
HETATM    9  C   UNL     1     -40.200  53.224 -51.282  1.00  0.00     0.124 A 
HETATM   10  N   UNL     1     -39.790  54.669 -49.584  1.00  0.00    -0.127 NA
HETATM   11  C   UNL     1     -41.349  56.475 -50.290  1.00  0.00     0.036 A 
HETATM   12  O   UNL     1     -39.483  53.439 -50.134  1.00  0.00    -0.211 OA
HETATM   13  C   UNL     1     -42.266  56.735 -51.335  1.00  0.00     0.019 A 
BRANCH   9  14
HETATM   14  C   UNL     1     -39.962  51.936 -51.926  1.00  0.00     0.001 A 
HETATM   15  C   UNL     1     -39.794  50.763 -51.177  1.00  0.00     0.014 A 
HETATM   16  C   UNL     1     -39.570  49.534 -51.809  1.00  0.00     0.001 A 
HETATM   17  C   UNL     1     -39.501  49.464 -53.197  1.00  0.00     0.000 A 
HETATM   18  C   UNL     1     -39.651  50.621 -53.957  1.00  0.00     0.001 A 
HETATM   19  C   UNL     1     -39.880  51.847 -53.325  1.00  0.00     0.014 A 
ENDBRANCH   9  14
ENDBRANCH   2   5
BRANCH   1  20
HETATM   20  C   UNL     1     -44.735  57.902 -54.702  1.00  0.00     0.127 C 
BRANCH  20  21
HETATM   21  C   UNL     1     -44.001  58.536 -55.885  1.00  0.00     0.060 C 
BRANCH  21  22
HETATM   22  C   UNL     1     -43.622  57.544 -56.942  1.00  0.00    -0.029 A 
HETATM   23  C   UNL     1     -44.361  57.213 -58.125  1.00  0.00     0.001 A 
HETATM   24  C   UNL     1     -45.594  57.647 -58.668  1.00  0.00     0.051 A 
HETATM   25  C   UNL     1     -43.623  56.260 -58.825  1.00  0.00     0.043 A 
HETATM   26  C   UNL     1     -46.038  57.116 -59.885  1.00  0.00     0.069 A 
HETATM   27  C   UNL     1     -45.260  56.176 -60.561  1.00  0.00     0.039 A 
HETATM   28  C   UNL     1     -44.043  55.723 -60.044  1.00  0.00     0.033 A 
HETATM   29  N   UNL     1     -42.492  56.000 -58.088  1.00  0.00    -0.365 N 
HETATM   30  H   UNL     1     -41.775  55.337 -58.351  1.00  0.00     0.165 HD
HETATM   31  C   UNL     1     -42.479  56.767 -56.955  1.00  0.00     0.096 A 
BRANCH  26  32
HETATM   32  O   UNL     1     -47.204  57.450 -60.519  1.00  0.00    -0.356 OA
HETATM   33  C   UNL     1     -47.697  56.526 -61.482  1.00  0.00     0.210 C 
ENDBRANCH  26  32
ENDBRANCH  21  22
ENDBRANCH  20  21
ENDBRANCH   1  20
TORSDOF 6
ENDMDL
MODEL 2
REMARK VINA RESULT:      -9.1      2.454      3.307
REMARK  6 active torsions:
REMARK  status: ('A' for Active; 'I' for Inactive)
REMARK    1  A    between atoms: O_2  and  C_3 
REMARK    2  A    between atoms: C_10  and  C_11 
REMARK    3  A    between atoms: C_11  and  C_12 
REMARK    4  A    between atoms: C_12  and  N_13 
REMARK       I    between atoms: N_13  and  C_14 
REMARK    5  A    between atoms: C_14  and  C_15 
REMARK    6  A    between atoms: C_21  and  C_22 
ROOT
HETATM    1  N   UNL     1     -42.856  55.870 -54.744  1.00  0.00    -0.357 N 
HETATM    2  C   UNL     1     -42.113  56.743 -53.978  1.00  0.00     0.251 C 
HETATM    3  O   UNL     1     -41.873  57.899 -54.309  1.00  0.00    -0.268 OA
HETATM    4  H   UNL     1     -43.286  55.078 -54.282  1.00  0.00     0.162 HD
ENDROOT
BRANCH   2   5
HETATM    5  C   UNL     1     -41.600  56.225 -52.675  1.00  0.00     0.033 A 
HETATM    6  C   UNL     1     -41.146  54.884 -52.664  1.00  0.00     0.033 A 
HETATM    7  C   UNL     1     -40.751  54.475 -51.390  1.00  0.00     0.033 A 
HETATM    8  C   UNL     1     -40.760  55.285 -50.194  1.00  0.00     0.097 A 
HETATM    9  C   UNL     1     -40.274  53.244 -51.014  1.00  0.00     0.124 A 
HETATM   10  N   UNL     1     -40.297  54.557 -49.167  1.00  0.00    -0.127 NA
HETATM   11  C   UNL     1     -41.209  56.616 -50.225  1.00  0.00     0.036 A 
HETATM   12  O   UNL     1     -39.997  53.307 -49.674  1.00  0.00    -0.211 OA
HETATM   13  C   UNL     1     -41.635  57.052 -51.501  1.00  0.00     0.019 A 
BRANCH   9  14
HETATM   14  C   UNL     1     -40.012  51.950 -51.638  1.00  0.00     0.001 A 
HETATM   15  C   UNL     1     -39.893  51.818 -53.028  1.00  0.00     0.014 A 
HETATM   16  C   UNL     1     -39.636  50.572 -53.612  1.00  0.00     0.001 A 
HETATM   17  C   UNL     1     -39.505  49.440 -52.813  1.00  0.00     0.000 A 
HETATM   18  C   UNL     1     -39.634  49.549 -51.431  1.00  0.00     0.001 A 
HETATM   19  C   UNL     1     -39.885  50.795 -50.849  1.00  0.00     0.014 A 
ENDBRANCH   9  14
ENDBRANCH   2   5
BRANCH   1  20
HETATM   20  C   UNL     1     -43.485  56.323 -55.976  1.00  0.00     0.127 C 
BRANCH  20  21
HETATM   21  C   UNL     1     -42.849  55.712 -57.226  1.00  0.00     0.060 C 
BRANCH  21  22
HETATM   22  C   UNL     1     -43.052  56.544 -58.455  1.00  0.00    -0.029 A 
HETATM   23  C   UNL     1     -42.598  57.885 -58.679  1.00  0.00     0.001 A 
HETATM   24  C   UNL     1     -41.877  58.822 -57.902  1.00  0.00     0.051 A 
HETATM   25  C   UNL     1     -42.993  58.249 -59.965  1.00  0.00     0.043 A 
HETATM   26  C   UNL     1     -41.577  60.080 -58.438  1.00  0.00     0.069 A 
HETATM   27  C   UNL     1     -41.978  60.398 -59.736  1.00  0.00     0.039 A 
HETATM   28  C   UNL     1     -42.698  59.496 -60.523  1.00  0.00     0.033 A 
HETATM   29  N   UNL     1     -43.683  57.185 -60.497  1.00  0.00    -0.365 N 
HETATM   30  H   UNL     1     -44.097  57.172 -61.419  1.00  0.00     0.165 HD
HETATM   31  C   UNL     1     -43.723  56.153 -59.599  1.00  0.00     0.096 A 
BRANCH  26  32
HETATM   32  O   UNL     1     -40.887  61.073 -57.797  1.00  0.00    -0.356 OA
HETATM   33  C   UNL     1     -40.470  62.179 -58.589  1.00  0.00     0.210 C 
ENDBRANCH  26  32
ENDBRANCH  21  22
ENDBRANCH  20  21
ENDBRANCH   1  20
TORSDOF 6
ENDMDL
MODEL 3
REMARK VINA RESULT:      -9.0      3.210      5.523
REMARK  6 active torsions:
REMARK  status: ('A' for Active; 'I' for Inactive)
REMARK    1  A    between atoms: O_2  and  C_3 
REMARK    2  A    between atoms: C_10  and  C_11 
REMARK    3  A    between atoms: C_11  and  C_12 
REMARK    4  A    between atoms: C_12  and  N_13 
REMARK       I    between atoms: N_13  and  C_14 
REMARK    5  A    between atoms: C_14  and  C_15 
REMARK    6  A    between atoms: C_21  and  C_22 
ROOT
HETATM    1  N   UNL     1     -44.371  56.948 -53.430  1.00  0.00    -0.357 N 
HETATM    2  C   UNL     1     -43.194  56.293 -53.732  1.00  0.00     0.251 C 
HETATM    3  O   UNL     1     -42.852  56.009 -54.874  1.00  0.00    -0.268 OA
HETATM    4  H   UNL     1     -44.431  57.434 -52.544  1.00  0.00     0.162 HD
ENDROOT
BRANCH   2   5
HETATM    5  C   UNL     1     -42.308  55.939 -52.584  1.00  0.00     0.033 A 
HETATM    6  C   UNL     1     -41.701  54.660 -52.626  1.00  0.00     0.033 A 
HETATM    7  C   UNL     1     -40.950  54.398 -51.481  1.00  0.00     0.033 A 
HETATM    8  C   UNL     1     -40.758  55.295 -50.365  1.00  0.00     0.097 A 
HETATM    9  C   UNL     1     -40.243  53.260 -51.184  1.00  0.00     0.124 A 
HETATM   10  N   UNL     1     -39.962  54.705 -49.460  1.00  0.00    -0.127 NA
HETATM   11  C   UNL     1     -41.363  56.563 -50.342  1.00  0.00     0.036 A 
HETATM   12  O   UNL     1     -39.646  53.459 -49.966  1.00  0.00    -0.211 OA
HETATM   13  C   UNL     1     -42.149  56.848 -51.483  1.00  0.00     0.019 A 
BRANCH   9  14
HETATM   14  C   UNL     1     -39.986  51.958 -51.790  1.00  0.00     0.001 A 
HETATM   15  C   UNL     1     -39.841  50.802 -51.010  1.00  0.00     0.014 A 
HETATM   16  C   UNL     1     -39.600  49.559 -51.606  1.00  0.00     0.001 A 
HETATM   17  C   UNL     1     -39.491  49.456 -52.990  1.00  0.00     0.000 A 
HETATM   18  C   UNL     1     -39.619  50.595 -53.780  1.00  0.00     0.001 A 
HETATM   19  C   UNL     1     -39.864  51.835 -53.184  1.00  0.00     0.014 A 
ENDBRANCH   9  14
ENDBRANCH   2   5
BRANCH   1  20
HETATM   20  C   UNL     1     -45.241  57.426 -54.494  1.00  0.00     0.127 C 
BRANCH  20  21
HETATM   21  C   UNL     1     -45.147  58.940 -54.701  1.00  0.00     0.060 C 
BRANCH  21  22
HETATM   22  C   UNL     1     -44.089  59.584 -53.859  1.00  0.00    -0.029 A 
HETATM   23  C   UNL     1     -44.193  59.972 -52.484  1.00  0.00     0.001 A 
HETATM   24  C   UNL     1     -45.226  59.909 -51.519  1.00  0.00     0.051 A 
HETATM   25  C   UNL     1     -42.963  60.509 -52.108  1.00  0.00     0.043 A 
HETATM   26  C   UNL     1     -44.991  60.378 -50.222  1.00  0.00     0.069 A 
HETATM   27  C   UNL     1     -43.739  60.894 -49.883  1.00  0.00     0.039 A 
HETATM   28  C   UNL     1     -42.703  60.977 -50.817  1.00  0.00     0.033 A 
HETATM   29  N   UNL     1     -42.148  60.474 -53.215  1.00  0.00    -0.365 N 
HETATM   30  H   UNL     1     -41.195  60.811 -53.237  1.00  0.00     0.165 HD
HETATM   31  C   UNL     1     -42.813  59.918 -54.273  1.00  0.00     0.096 A 
BRANCH  26  32
HETATM   32  O   UNL     1     -45.899  60.372 -49.197  1.00  0.00    -0.356 OA
HETATM   33  C   UNL     1     -45.493  60.983 -47.977  1.00  0.00     0.210 C 
ENDBRANCH  26  32
ENDBRANCH  21  22
ENDBRANCH  20  21
ENDBRANCH   1  20
TORSDOF 6
ENDMDL
MODEL 4
REMARK VINA RESULT:      -8.9      1.834      2.143
REMARK  6 active torsions:
REMARK  status: ('A' for Active; 'I' for Inactive)
REMARK    1  A    between atoms: O_2  and  C_3 
REMARK    2  A    between atoms: C_10  and  C_11 
REMARK    3  A    between atoms: C_11  and  C_12 
REMARK    4  A    between atoms: C_12  and  N_13 
REMARK       I    between atoms: N_13  and  C_14 
REMARK    5  A    between atoms: C_14  and  C_15 
REMARK    6  A    between atoms: C_21  and  C_22 
ROOT
HETATM    1  N   UNL     1     -42.304  58.325 -52.954  1.00  0.00    -0.357 N 
HETATM    2  C   UNL     1     -41.606  57.170 -53.238  1.00  0.00     0.251 C 
HETATM    3  O   UNL     1     -41.205  56.880 -54.360  1.00  0.00    -0.268 OA
HETATM    4  H   UNL     1     -42.309  58.655 -51.997  1.00  0.00     0.162 HD
ENDROOT
BRANCH   2   5
HETATM    5  C   UNL     1     -41.330  56.252 -52.094  1.00  0.00     0.033 A 
HETATM    6  C   UNL     1     -40.933  54.933 -52.424  1.00  0.00     0.033 A 
HETATM    7  C   UNL     1     -40.765  54.137 -51.291  1.00  0.00     0.033 A 
HETATM    8  C   UNL     1     -40.938  54.559 -49.920  1.00  0.00     0.097 A 
HETATM    9  C   UNL     1     -40.400  52.815 -51.242  1.00  0.00     0.124 A 
HETATM   10  N   UNL     1     -40.674  53.526 -49.107  1.00  0.00    -0.127 NA
HETATM   11  C   UNL     1     -41.327  55.873 -49.611  1.00  0.00     0.036 A 
HETATM   12  O   UNL     1     -40.342  52.459 -49.920  1.00  0.00    -0.211 OA
HETATM   13  C   UNL     1     -41.525  56.698 -50.743  1.00  0.00     0.019 A 
BRANCH   9  14
HETATM   14  C   UNL     1     -40.087  51.744 -52.183  1.00  0.00     0.001 A 
HETATM   15  C   UNL     1     -39.654  50.486 -51.743  1.00  0.00     0.014 A 
HETATM   16  C   UNL     1     -39.362  49.467 -52.657  1.00  0.00     0.001 A 
HETATM   17  C   UNL     1     -39.491  49.695 -54.024  1.00  0.00     0.000 A 
HETATM   18  C   UNL     1     -39.907  50.943 -54.480  1.00  0.00     0.001 A 
HETATM   19  C   UNL     1     -40.203  51.958 -53.566  1.00  0.00     0.014 A 
ENDBRANCH   9  14
ENDBRANCH   2   5
BRANCH   1  20
HETATM   20  C   UNL     1     -42.522  59.326 -53.987  1.00  0.00     0.127 C 
BRANCH  20  21
HETATM   21  C   UNL     1     -43.437  58.831 -55.110  1.00  0.00     0.060 C 
BRANCH  21  22
HETATM   22  C   UNL     1     -42.803  58.912 -56.464  1.00  0.00    -0.029 A 
HETATM   23  C   UNL     1     -42.869  57.937 -57.512  1.00  0.00     0.001 A 
HETATM   24  C   UNL     1     -43.483  56.669 -57.638  1.00  0.00     0.051 A 
HETATM   25  C   UNL     1     -42.153  58.441 -58.597  1.00  0.00     0.043 A 
HETATM   26  C   UNL     1     -43.361  55.957 -58.837  1.00  0.00     0.069 A 
HETATM   27  C   UNL     1     -42.648  56.505 -59.904  1.00  0.00     0.039 A 
HETATM   28  C   UNL     1     -42.025  57.752 -59.805  1.00  0.00     0.033 A 
HETATM   29  N   UNL     1     -41.648  59.663 -58.219  1.00  0.00    -0.365 N 
HETATM   30  H   UNL     1     -41.076  60.254 -58.806  1.00  0.00     0.165 HD
HETATM   31  C   UNL     1     -42.034  59.958 -56.939  1.00  0.00     0.096 A 
BRANCH  26  32
HETATM   32  O   UNL     1     -43.906  54.726 -59.091  1.00  0.00    -0.356 OA
HETATM   33  C   UNL     1     -44.862  54.653 -60.141  1.00  0.00     0.210 C 
ENDBRANCH  26  32
ENDBRANCH  21  22
ENDBRANCH  20  21
ENDBRANCH   1  20
TORSDOF 6
ENDMDL
MODEL 5
REMARK VINA RESULT:      -8.8      1.975      2.539
REMARK  6 active torsions:
REMARK  status: ('A' for Active; 'I' for Inactive)
REMARK    1  A    between atoms: O_2  and  C_3 
REMARK    2  A    between atoms: C_10  and  C_11 
REMARK    3  A    between atoms: C_11  and  C_12 
REMARK    4  A    between atoms: C_12  and  N_13 
REMARK       I    between atoms: N_13  and  C_14 
REMARK    5  A    between atoms: C_14  and  C_15 
REMARK    6  A    between atoms: C_21  and  C_22 
ROOT
HETATM    1  N   UNL     1     -42.786  59.036 -55.334  1.00  0.00    -0.357 N 
HETATM    2  C   UNL     1     -42.010  58.880 -54.204  1.00  0.00     0.251 C 
HETATM    3  O   UNL     1     -40.970  59.499 -54.006  1.00  0.00    -0.268 OA
HETATM    4  H   UNL     1     -43.760  58.764 -55.285  1.00  0.00     0.162 HD
ENDROOT
BRANCH   2   5
HETATM    5  C   UNL     1     -42.500  57.910 -53.181  1.00  0.00     0.033 A 
HETATM    6  C   UNL     1     -41.909  56.622 -53.199  1.00  0.00     0.033 A 
HETATM    7  C   UNL     1     -42.480  55.771 -52.253  1.00  0.00     0.033 A 
HETATM    8  C   UNL     1     -43.532  56.113 -51.323  1.00  0.00     0.097 A 
HETATM    9  C   UNL     1     -42.162  54.458 -52.006  1.00  0.00     0.124 A 
HETATM   10  N   UNL     1     -43.807  55.045 -50.560  1.00  0.00    -0.127 NA
HETATM   11  C   UNL     1     -44.102  57.397 -51.315  1.00  0.00     0.036 A 
HETATM   12  O   UNL     1     -42.964  54.033 -50.979  1.00  0.00    -0.211 OA
HETATM   13  C   UNL     1     -43.556  58.277 -52.279  1.00  0.00     0.019 A 
BRANCH   9  14
HETATM   14  C   UNL     1     -41.250  53.449 -52.535  1.00  0.00     0.001 A 
HETATM   15  C   UNL     1     -41.266  53.084 -53.888  1.00  0.00     0.014 A 
HETATM   16  C   UNL     1     -40.383  52.118 -54.382  1.00  0.00     0.001 A 
HETATM   17  C   UNL     1     -39.477  51.497 -53.527  1.00  0.00     0.000 A 
HETATM   18  C   UNL     1     -39.455  51.836 -52.177  1.00  0.00     0.001 A 
HETATM   19  C   UNL     1     -40.335  52.805 -51.686  1.00  0.00     0.014 A 
ENDBRANCH   9  14
ENDBRANCH   2   5
BRANCH   1  20
HETATM   20  C   UNL     1     -42.441  60.038 -56.331  1.00  0.00     0.127 C 
BRANCH  20  21
HETATM   21  C   UNL     1     -43.258  59.901 -57.618  1.00  0.00     0.060 C 
BRANCH  21  22
HETATM   22  C   UNL     1     -42.941  58.654 -58.385  1.00  0.00    -0.029 A 
HETATM   23  C   UNL     1     -43.872  57.749 -58.992  1.00  0.00     0.001 A 
HETATM   24  C   UNL     1     -45.284  57.698 -59.072  1.00  0.00     0.051 A 
HETATM   25  C   UNL     1     -43.132  56.745 -59.615  1.00  0.00     0.043 A 
HETATM   26  C   UNL     1     -45.899  56.653 -59.772  1.00  0.00     0.069 A 
HETATM   27  C   UNL     1     -45.120  55.677 -60.395  1.00  0.00     0.039 A 
HETATM   28  C   UNL     1     -43.724  55.698 -60.325  1.00  0.00     0.033 A 
HETATM   29  N   UNL     1     -41.804  57.011 -59.377  1.00  0.00    -0.365 N 
HETATM   30  H   UNL     1     -41.037  56.440 -59.704  1.00  0.00     0.165 HD
HETATM   31  C   UNL     1     -41.676  58.158 -58.641  1.00  0.00     0.096 A 
BRANCH  26  32
HETATM   32  O   UNL     1     -47.249  56.487 -59.929  1.00  0.00    -0.356 OA
HETATM   33  C   UNL     1     -47.756  56.574 -61.255  1.00  0.00     0.210 C 
ENDBRANCH  26  32
ENDBRANCH  21  22
ENDBRANCH  20  21
ENDBRANCH   1  20
TORSDOF 6
ENDMDL
MODEL 6
REMARK VINA RESULT:      -8.8      2.609      3.328
REMARK  6 active torsions:
REMARK  status: ('A' for Active; 'I' for Inactive)
REMARK    1  A    between atoms: O_2  and  C_3 
REMARK    2  A    between atoms: C_10  and  C_11 
REMARK    3  A    between atoms: C_11  and  C_12 
REMARK    4  A    between atoms: C_12  and  N_13 
REMARK       I    between atoms: N_13  and  C_14 
REMARK    5  A    between atoms: C_14  and  C_15 
REMARK    6  A    between atoms: C_21  and  C_22 
ROOT
HETATM    1  N   UNL     1     -42.579  59.440 -54.752  1.00  0.00    -0.357 N 
HETATM    2  C   UNL     1     -41.750  58.929 -53.775  1.00  0.00     0.251 C 
HETATM    3  O   UNL     1     -40.587  59.286 -53.620  1.00  0.00    -0.268 OA
HETATM    4  H   UNL     1     -43.580  59.359 -54.617  1.00  0.00     0.162 HD
ENDROOT
BRANCH   2   5
HETATM    5  C   UNL     1     -42.335  57.898 -52.867  1.00  0.00     0.033 A 
HETATM    6  C   UNL     1     -41.766  56.603 -52.933  1.00  0.00     0.033 A 
HETATM    7  C   UNL     1     -42.423  55.699 -52.099  1.00  0.00     0.033 A 
HETATM    8  C   UNL     1     -43.541  55.996 -51.233  1.00  0.00     0.097 A 
HETATM    9  C   UNL     1     -42.147  54.366 -51.924  1.00  0.00     0.124 A 
HETATM   10  N   UNL     1     -43.893  54.882 -50.574  1.00  0.00    -0.127 NA
HETATM   11  C   UNL     1     -44.089  57.288 -51.176  1.00  0.00     0.036 A 
HETATM   12  O   UNL     1     -43.035  53.886 -50.998  1.00  0.00    -0.211 OA
HETATM   13  C   UNL     1     -43.455  58.223 -52.028  1.00  0.00     0.019 A 
BRANCH   9  14
HETATM   14  C   UNL     1     -41.212  53.377 -52.452  1.00  0.00     0.001 A 
HETATM   15  C   UNL     1     -40.275  52.742 -51.625  1.00  0.00     0.014 A 
HETATM   16  C   UNL     1     -39.387  51.792 -52.144  1.00  0.00     0.001 A 
HETATM   17  C   UNL     1     -39.417  51.474 -53.498  1.00  0.00     0.000 A 
HETATM   18  C   UNL     1     -40.331  52.105 -54.338  1.00  0.00     0.001 A 
HETATM   19  C   UNL     1     -41.221  53.049 -53.817  1.00  0.00     0.014 A 
ENDBRANCH   9  14
ENDBRANCH   2   5
BRANCH   1  20
HETATM   20  C   UNL     1     -42.126  60.525 -55.609  1.00  0.00     0.127 C 
BRANCH  20  21
HETATM   21  C   UNL     1     -43.096  60.820 -56.755  1.00  0.00     0.060 C 
BRANCH  21  22
HETATM   22  C   UNL     1     -42.684  60.192 -58.051  1.00  0.00    -0.029 A 
HETATM   23  C   UNL     1     -42.693  58.798 -58.380  1.00  0.00     0.001 A 
HETATM   24  C   UNL     1     -43.045  57.623 -57.674  1.00  0.00     0.051 A 
HETATM   25  C   UNL     1     -42.251  58.677 -59.696  1.00  0.00     0.043 A 
HETATM   26  C   UNL     1     -42.946  56.379 -58.309  1.00  0.00     0.069 A 
HETATM   27  C   UNL     1     -42.514  56.304 -59.633  1.00  0.00     0.039 A 
HETATM   28  C   UNL     1     -42.152  57.447 -60.352  1.00  0.00     0.033 A 
HETATM   29  N   UNL     1     -41.959  59.943 -60.146  1.00  0.00    -0.365 N 
HETATM   30  H   UNL     1     -41.606  60.157 -61.069  1.00  0.00     0.165 HD
HETATM   31  C   UNL     1     -42.218  60.863 -59.166  1.00  0.00     0.096 A 
BRANCH  26  32
HETATM   32  O   UNL     1     -43.257  55.171 -57.744  1.00  0.00    -0.356 OA
HETATM   33  C   UNL     1     -42.919  54.998 -56.373  1.00  0.00     0.210 C 
ENDBRANCH  26  32
ENDBRANCH  21  22
ENDBRANCH  20  21
ENDBRANCH   1  20
TORSDOF 6
ENDMDL
MODEL 7
REMARK VINA RESULT:      -8.7      2.080      2.337
REMARK  6 active torsions:
REMARK  status: ('A' for Active; 'I' for Inactive)
REMARK    1  A    between atoms: O_2  and  C_3 
REMARK    2  A    between atoms: C_10  and  C_11 
REMARK    3  A    between atoms: C_11  and  C_12 
REMARK    4  A    between atoms: C_12  and  N_13 
REMARK       I    between atoms: N_13  and  C_14 
REMARK    5  A    between atoms: C_14  and  C_15 
REMARK    6  A    between atoms: C_21  and  C_22 
ROOT
HETATM    1  N   UNL     1     -43.173  57.651 -53.492  1.00  0.00    -0.357 N 
HETATM    2  C   UNL     1     -41.884  57.159 -53.479  1.00  0.00     0.251 C 
HETATM    3  O   UNL     1     -41.067  57.378 -54.367  1.00  0.00    -0.268 OA
HETATM    4  H   UNL     1     -43.666  57.717 -52.610  1.00  0.00     0.162 HD
ENDROOT
BRANCH   2   5
HETATM    5  C   UNL     1     -41.491  56.331 -52.301  1.00  0.00     0.033 A 
HETATM    6  C   UNL     1     -41.073  55.005 -52.572  1.00  0.00     0.033 A 
HETATM    7  C   UNL     1     -40.794  54.295 -51.405  1.00  0.00     0.033 A 
HETATM    8  C   UNL     1     -40.879  54.805 -50.056  1.00  0.00     0.097 A 
HETATM    9  C   UNL     1     -40.379  52.991 -51.296  1.00  0.00     0.124 A 
HETATM   10  N   UNL     1     -40.519  53.839 -49.198  1.00  0.00    -0.127 NA
HETATM   11  C   UNL     1     -41.291  56.125 -49.806  1.00  0.00     0.036 A 
HETATM   12  O   UNL     1     -40.211  52.729 -49.961  1.00  0.00    -0.211 OA
HETATM   13  C   UNL     1     -41.601  56.864 -50.971  1.00  0.00     0.019 A 
BRANCH   9  14
HETATM   14  C   UNL     1     -40.099  51.868 -52.184  1.00  0.00     0.001 A 
HETATM   15  C   UNL     1     -39.739  50.609 -51.683  1.00  0.00     0.014 A 
HETATM   16  C   UNL     1     -39.478  49.540 -52.548  1.00  0.00     0.001 A 
HETATM   17  C   UNL     1     -39.564  49.718 -53.926  1.00  0.00     0.000 A 
HETATM   18  C   UNL     1     -39.907  50.965 -54.442  1.00  0.00     0.001 A 
HETATM   19  C   UNL     1     -40.172  52.030 -53.578  1.00  0.00     0.014 A 
ENDBRANCH   9  14
ENDBRANCH   2   5
BRANCH   1  20
HETATM   20  C   UNL     1     -43.605  58.556 -54.547  1.00  0.00     0.127 C 
BRANCH  20  21
HETATM   21  C   UNL     1     -44.459  57.861 -55.610  1.00  0.00     0.060 C 
BRANCH  21  22
HETATM   22  C   UNL     1     -43.654  57.337 -56.760  1.00  0.00    -0.029 A 
HETATM   23  C   UNL     1     -43.254  58.053 -57.935  1.00  0.00     0.001 A 
HETATM   24  C   UNL     1     -43.457  59.374 -58.399  1.00  0.00     0.051 A 
HETATM   25  C   UNL     1     -42.503  57.179 -58.720  1.00  0.00     0.043 A 
HETATM   26  C   UNL     1     -42.903  59.771 -59.622  1.00  0.00     0.069 A 
HETATM   27  C   UNL     1     -42.145  58.869 -60.369  1.00  0.00     0.039 A 
HETATM   28  C   UNL     1     -41.935  57.555 -59.940  1.00  0.00     0.033 A 
HETATM   29  N   UNL     1     -42.469  55.971 -58.065  1.00  0.00    -0.365 N 
HETATM   30  H   UNL     1     -42.001  55.144 -58.410  1.00  0.00     0.165 HD
HETATM   31  C   UNL     1     -43.155  56.054 -56.884  1.00  0.00     0.096 A 
BRANCH  26  32
HETATM   32  O   UNL     1     -43.020  61.015 -60.182  1.00  0.00    -0.356 OA
HETATM   33  C   UNL     1     -42.004  61.404 -61.098  1.00  0.00     0.210 C 
ENDBRANCH  26  32
ENDBRANCH  21  22
ENDBRANCH  20  21
ENDBRANCH   1  20
TORSDOF 6
ENDMDL
MODEL 8
REMARK VINA RESULT:      -8.7      2.005      3.061
REMARK  6 active torsions:
REMARK  status: ('A' for Active; 'I' for Inactive)
REMARK    1  A    between atoms: O_2  and  C_3 
REMARK    2  A    between atoms: C_10  and  C_11 
REMARK    3  A    between atoms: C_11  and  C_12 
REMARK    4  A    between atoms: C_12  and  N_13 
REMARK       I    between atoms: N_13  and  C_14 
REMARK    5  A    between atoms: C_14  and  C_15 
REMARK    6  A    between atoms: C_21  and  C_22 
ROOT
HETATM    1  N   UNL     1     -42.450  57.620 -56.951  1.00  0.00    -0.357 N 
HETATM    2  C   UNL     1     -42.213  58.327 -55.790  1.00  0.00     0.251 C 
HETATM    3  O   UNL     1     -41.707  59.443 -55.769  1.00  0.00    -0.268 OA
HETATM    4  H   UNL     1     -43.149  56.887 -56.927  1.00  0.00     0.162 HD
ENDROOT
BRANCH   2   5
HETATM    5  C   UNL     1     -42.619  57.674 -54.510  1.00  0.00     0.033 A 
HETATM    6  C   UNL     1     -42.018  56.424 -54.220  1.00  0.00     0.033 A 
HETATM    7  C   UNL     1     -42.512  55.867 -53.041  1.00  0.00     0.033 A 
HETATM    8  C   UNL     1     -43.499  56.458 -52.167  1.00  0.00     0.097 A 
HETATM    9  C   UNL     1     -42.164  54.668 -52.470  1.00  0.00     0.124 A 
HETATM   10  N   UNL     1     -43.708  55.639 -51.125  1.00  0.00    -0.127 NA
HETATM   11  C   UNL     1     -44.080  57.701 -52.467  1.00  0.00     0.036 A 
HETATM   12  O   UNL     1     -42.887  54.544 -51.313  1.00  0.00    -0.211 OA
HETATM   13  C   UNL     1     -43.613  58.281 -53.669  1.00  0.00     0.019 A 
BRANCH   9  14
HETATM   14  C   UNL     1     -41.281  53.545 -52.769  1.00  0.00     0.001 A 
HETATM   15  C   UNL     1     -40.417  53.015 -51.801  1.00  0.00     0.014 A 
HETATM   16  C   UNL     1     -39.579  51.935 -52.100  1.00  0.00     0.001 A 
HETATM   17  C   UNL     1     -39.587  51.376 -53.375  1.00  0.00     0.000 A 
HETATM   18  C   UNL     1     -40.429  51.898 -54.354  1.00  0.00     0.001 A 
HETATM   19  C   UNL     1     -41.269  52.973 -54.052  1.00  0.00     0.014 A 
ENDBRANCH   9  14
ENDBRANCH   2   5
BRANCH   1  20
HETATM   20  C   UNL     1     -42.186  58.224 -58.247  1.00  0.00     0.127 C 
BRANCH  20  21
HETATM   21  C   UNL     1     -42.217  57.209 -59.392  1.00  0.00     0.060 C 
BRANCH  21  22
HETATM   22  C   UNL     1     -43.548  56.539 -59.548  1.00  0.00    -0.029 A 
HETATM   23  C   UNL     1     -44.783  57.147 -59.944  1.00  0.00     0.001 A 
HETATM   24  C   UNL     1     -45.165  58.466 -60.286  1.00  0.00     0.051 A 
HETATM   25  C   UNL     1     -45.751  56.144 -59.976  1.00  0.00     0.043 A 
HETATM   26  C   UNL     1     -46.491  58.730 -60.648  1.00  0.00     0.069 A 
HETATM   27  C   UNL     1     -47.424  57.694 -60.682  1.00  0.00     0.039 A 
HETATM   28  C   UNL     1     -47.078  56.383 -60.341  1.00  0.00     0.033 A 
HETATM   29  N   UNL     1     -45.138  54.975 -59.590  1.00  0.00    -0.365 N 
HETATM   30  H   UNL     1     -45.604  54.082 -59.511  1.00  0.00     0.165 HD
HETATM   31  C   UNL     1     -43.813  55.199 -59.333  1.00  0.00     0.096 A 
BRANCH  26  32
HETATM   32  O   UNL     1     -46.990  59.955 -61.003  1.00  0.00    -0.356 OA
HETATM   33  C   UNL     1     -48.293  59.976 -61.573  1.00  0.00     0.210 C 
ENDBRANCH  26  32
ENDBRANCH  21  22
ENDBRANCH  20  21
ENDBRANCH   1  20
TORSDOF 6
ENDMDL
MODEL 9
REMARK VINA RESULT:      -8.6      2.244      2.918
REMARK  6 active torsions:
REMARK  status: ('A' for Active; 'I' for Inactive)
REMARK    1  A    between atoms: O_2  and  C_3 
REMARK    2  A    between atoms: C_10  and  C_11 
REMARK    3  A    between atoms: C_11  and  C_12 
REMARK    4  A    between atoms: C_12  and  N_13 
REMARK       I    between atoms: N_13  and  C_14 
REMARK    5  A    between atoms: C_14  and  C_15 
REMARK    6  A    between atoms: C_21  and  C_22 
ROOT
HETATM    1  N   UNL     1     -42.343  58.371 -55.798  1.00  0.00    -0.357 N 
HETATM    2  C   UNL     1     -41.899  58.651 -54.522  1.00  0.00     0.251 C 
HETATM    3  O   UNL     1     -41.161  59.592 -54.254  1.00  0.00    -0.268 OA
HETATM    4  H   UNL     1     -43.182  57.813 -55.898  1.00  0.00     0.162 HD
ENDROOT
BRANCH   2   5
HETATM    5  C   UNL     1     -42.372  57.748 -53.431  1.00  0.00     0.033 A 
HETATM    6  C   UNL     1     -41.791  56.456 -53.385  1.00  0.00     0.033 A 
HETATM    7  C   UNL     1     -42.346  55.668 -52.376  1.00  0.00     0.033 A 
HETATM    8  C   UNL     1     -43.375  56.075 -51.446  1.00  0.00     0.097 A 
HETATM    9  C   UNL     1     -42.032  54.371 -52.057  1.00  0.00     0.124 A 
HETATM   10  N   UNL     1     -43.640  55.057 -50.614  1.00  0.00    -0.127 NA
HETATM   11  C   UNL     1     -43.935  57.361 -51.504  1.00  0.00     0.036 A 
HETATM   12  O   UNL     1     -42.814  54.015 -50.990  1.00  0.00    -0.211 OA
HETATM   13  C   UNL     1     -43.406  58.177 -52.531  1.00  0.00     0.019 A 
BRANCH   9  14
HETATM   14  C   UNL     1     -41.139  53.324 -52.544  1.00  0.00     0.001 A 
HETATM   15  C   UNL     1     -40.208  52.705 -51.699  1.00  0.00     0.014 A 
HETATM   16  C   UNL     1     -39.361  51.699 -52.178  1.00  0.00     0.001 A 
HETATM   17  C   UNL     1     -39.427  51.306 -53.512  1.00  0.00     0.000 A 
HETATM   18  C   UNL     1     -40.336  51.920 -54.370  1.00  0.00     0.001 A 
HETATM   19  C   UNL     1     -41.185  52.920 -53.888  1.00  0.00     0.014 A 
ENDBRANCH   9  14
ENDBRANCH   2   5
BRANCH   1  20
HETATM   20  C   UNL     1     -42.020  59.261 -56.902  1.00  0.00     0.127 C 
BRANCH  20  21
HETATM   21  C   UNL     1     -43.109  60.305 -57.161  1.00  0.00     0.060 C 
BRANCH  21  22
HETATM   22  C   UNL     1     -44.468  59.702 -57.344  1.00  0.00    -0.029 A 
HETATM   23  C   UNL     1     -44.838  58.658 -58.253  1.00  0.00     0.001 A 
HETATM   24  C   UNL     1     -44.134  57.899 -59.218  1.00  0.00     0.051 A 
HETATM   25  C   UNL     1     -46.195  58.402 -58.066  1.00  0.00     0.043 A 
HETATM   26  C   UNL     1     -44.809  56.917 -59.952  1.00  0.00     0.069 A 
HETATM   27  C   UNL     1     -46.165  56.683 -59.722  1.00  0.00     0.039 A 
HETATM   28  C   UNL     1     -46.887  57.423 -58.781  1.00  0.00     0.033 A 
HETATM   29  N   UNL     1     -46.644  59.273 -57.100  1.00  0.00    -0.365 N 
HETATM   30  H   UNL     1     -47.597  59.320 -56.768  1.00  0.00     0.165 HD
HETATM   31  C   UNL     1     -45.614  60.057 -56.657  1.00  0.00     0.096 A 
BRANCH  26  32
HETATM   32  O   UNL     1     -44.249  56.113 -60.909  1.00  0.00    -0.356 OA
HETATM   33  C   UNL     1     -44.997  54.969 -61.304  1.00  0.00     0.210 C 
ENDBRANCH  26  32
ENDBRANCH  21  22
ENDBRANCH  20  21
ENDBRANCH   1  20
TORSDOF 6
ENDMDL
MODEL 10
REMARK VINA RESULT:      -8.5      1.626      2.250
REMARK  6 active torsions:
REMARK  status: ('A' for Active; 'I' for Inactive)
REMARK    1  A    between atoms: O_2  and  C_3 
REMARK    2  A    between atoms: C_10  and  C_11 
REMARK    3  A    between atoms: C_11  and  C_12 
REMARK    4  A    between atoms: C_12  and  N_13 
REMARK       I    between atoms: N_13  and  C_14 
REMARK    5  A    between atoms: C_14  and  C_15 
REMARK    6  A    between atoms: C_21  and  C_22 
ROOT
HETATM    1  N   UNL     1     -41.286  57.082 -53.772  1.00  0.00    -0.357 N 
HETATM    2  C   UNL     1     -41.817  57.211 -52.505  1.00  0.00     0.251 C 
HETATM    3  O   UNL     1     -42.581  58.114 -52.181  1.00  0.00    -0.268 OA
HETATM    4  H   UNL     1     -40.951  56.170 -54.057  1.00  0.00     0.162 HD
ENDROOT
BRANCH   2   5
HETATM    5  C   UNL     1     -41.432  56.172 -51.505  1.00  0.00     0.033 A 
HETATM    6  C   UNL     1     -41.042  54.912 -52.023  1.00  0.00     0.033 A 
HETATM    7  C   UNL     1     -40.768  53.992 -51.011  1.00  0.00     0.033 A 
HETATM    8  C   UNL     1     -40.833  54.245 -49.590  1.00  0.00     0.097 A 
HETATM    9  C   UNL     1     -40.378  52.684 -51.150  1.00  0.00     0.124 A 
HETATM   10  N   UNL     1     -40.485  53.130 -48.930  1.00  0.00    -0.127 NA
HETATM   11  C   UNL     1     -41.216  55.502 -49.094  1.00  0.00     0.036 A 
HETATM   12  O   UNL     1     -40.204  52.176 -49.889  1.00  0.00    -0.211 OA
HETATM   13  C   UNL     1     -41.521  56.450 -50.099  1.00  0.00     0.019 A 
BRANCH   9  14
HETATM   14  C   UNL     1     -40.127  51.740 -52.235  1.00  0.00     0.001 A 
HETATM   15  C   UNL     1     -39.700  50.429 -51.981  1.00  0.00     0.014 A 
HETATM   16  C   UNL     1     -39.468  49.534 -53.032  1.00  0.00     0.001 A 
HETATM   17  C   UNL     1     -39.650  49.941 -54.350  1.00  0.00     0.000 A 
HETATM   18  C   UNL     1     -40.061  51.243 -54.622  1.00  0.00     0.001 A 
HETATM   19  C   UNL     1     -40.297  52.135 -53.572  1.00  0.00     0.014 A 
ENDBRANCH   9  14
ENDBRANCH   2   5
BRANCH   1  20
HETATM   20  C   UNL     1     -41.693  57.987 -54.837  1.00  0.00     0.127 C 
BRANCH  20  21
HETATM   21  C   UNL     1     -42.526  57.294 -55.917  1.00  0.00     0.060 C 
BRANCH  21  22
HETATM   22  C   UNL     1     -43.892  57.887 -56.077  1.00  0.00    -0.029 A 
HETATM   23  C   UNL     1     -44.782  57.728 -57.189  1.00  0.00     0.001 A 
HETATM   24  C   UNL     1     -44.703  57.036 -58.420  1.00  0.00     0.051 A 
HETATM   25  C   UNL     1     -45.946  58.437 -56.897  1.00  0.00     0.043 A 
HETATM   26  C   UNL     1     -45.786  57.076 -59.306  1.00  0.00     0.069 A 
HETATM   27  C   UNL     1     -46.939  57.785 -58.968  1.00  0.00     0.039 A 
HETATM   28  C   UNL     1     -47.041  58.485 -57.762  1.00  0.00     0.033 A 
HETATM   29  N   UNL     1     -45.765  59.027 -55.668  1.00  0.00    -0.365 N 
HETATM   30  H   UNL     1     -46.447  59.614 -55.207  1.00  0.00     0.165 HD
HETATM   31  C   UNL     1     -44.535  58.702 -55.164  1.00  0.00     0.096 A 
BRANCH  26  32
HETATM   32  O   UNL     1     -45.841  56.450 -60.524  1.00  0.00    -0.356 OA
HETATM   33  C   UNL     1     -44.703  55.687 -60.905  1.00  0.00     0.210 C 
ENDBRANCH  26  32
ENDBRANCH  21  22
ENDBRANCH  20  21
ENDBRANCH   1  20
TORSDOF 6
ENDMDL
