MODEL 1
REMARK VINA RESULT:      -9.0      0.000      0.000
REMARK  3 active torsions:
REMARK  status: ('A' for Active; 'I' for Inactive)
REMARK    1  A    between atoms: C_7  and  C_8 
REMARK    2  A    between atoms: C_17  and  C_18 
REMARK       I    between atoms: C_18  and  N_19 
REMARK    3  A    between atoms: N_19  and  C_20 
ROOT
HETATM    1  C   UNL     1     -41.168  56.631 -52.489  1.00  0.00     0.206 C 
HETATM    2  N   UNL     1     -41.407  57.988 -51.974  1.00  0.00    -0.084 N 
HETATM    3  C   UNL     1     -41.446  58.297 -50.640  1.00  0.00     0.725 A 
HETATM    4  N   UNL     1     -41.593  59.587 -50.491  1.00  0.00    -0.054 NA
HETATM    5  C   UNL     1     -41.599  60.042 -51.782  1.00  0.00     0.275 A 
HETATM    6  N   UNL     1     -41.431  59.111 -52.728  1.00  0.00    -0.149 NA
HETATM    7  N   UNL     1     -41.324  57.312 -49.732  1.00  0.00    -0.192 N 
HETATM    8  C   UNL     1     -41.274  55.965 -50.069  1.00  0.00     0.037 C 
HETATM    9  C   UNL     1     -41.265  55.005 -48.902  1.00  0.00     0.070 C 
HETATM   10  C   UNL     1     -41.223  55.594 -51.374  1.00  0.00     0.063 C 
HETATM   11  H   UNL     1     -41.423  57.546 -48.747  1.00  0.00     0.184 HD
ENDROOT
BRANCH  10  12
HETATM   12  C   UNL     1     -41.337  54.152 -51.720  1.00  0.00     0.256 C 
HETATM   13  N   UNL     1     -40.135  53.529 -51.966  1.00  0.00    -0.323 N 
HETATM   14  H   UNL     1     -39.291  54.082 -51.931  1.00  0.00     0.169 HD
HETATM   15  O   UNL     1     -42.453  53.647 -51.768  1.00  0.00    -0.267 OA
BRANCH  13  16
HETATM   16  C   UNL     1     -39.948  52.163 -52.286  1.00  0.00     0.035 A 
HETATM   17  C   UNL     1     -39.963  51.656 -53.588  1.00  0.00     0.029 A 
HETATM   18  C   UNL     1     -39.783  50.289 -53.823  1.00  0.00     0.002 A 
HETATM   19  C   UNL     1     -39.580  49.415 -52.759  1.00  0.00     0.000 A 
HETATM   20  C   UNL     1     -39.561  49.907 -51.458  1.00  0.00     0.002 A 
HETATM   21  C   UNL     1     -39.747  51.274 -51.223  1.00  0.00     0.029 A 
ENDBRANCH  13  16
ENDBRANCH  10  12
BRANCH   1  22
HETATM   22  C   UNL     1     -42.054  56.350 -53.674  1.00  0.00     0.015 A 
HETATM   23  C   UNL     1     -41.745  55.609 -54.810  1.00  0.00     0.036 A 
HETATM   24  C   UNL     1     -40.487  54.935 -55.226  1.00  0.00     0.070 C 
HETATM   25  N   UNL     1     -42.875  55.627 -55.588  1.00  0.00    -0.278 N 
HETATM   26  C   UNL     1     -43.074  54.995 -56.872  1.00  0.00     0.179 C 
HETATM   27  N   UNL     1     -43.876  56.345 -55.056  1.00  0.00    -0.185 NA
HETATM   28  C   UNL     1     -43.379  56.789 -53.901  1.00  0.00     0.150 A 
ENDBRANCH   1  22
TORSDOF 3
ENDMDL
MODEL 2
REMARK VINA RESULT:      -8.3      1.907      4.398
REMARK  3 active torsions:
REMARK  status: ('A' for Active; 'I' for Inactive)
REMARK    1  A    between atoms: C_7  and  C_8 
REMARK    2  A    between atoms: C_17  and  C_18 
REMARK       I    between atoms: C_18  and  N_19 
REMARK    3  A    between atoms: N_19  and  C_20 
ROOT
HETATM    1  C   UNL     1     -43.247  56.811 -53.184  1.00  0.00     0.206 C 
HETATM    2  N   UNL     1     -44.112  57.930 -53.588  1.00  0.00    -0.084 N 
HETATM    3  C   UNL     1     -44.568  58.112 -54.866  1.00  0.00     0.725 A 
HETATM    4  N   UNL     1     -45.379  59.137 -54.903  1.00  0.00    -0.054 NA
HETATM    5  C   UNL     1     -45.423  59.534 -53.593  1.00  0.00     0.275 A 
HETATM    6  N   UNL     1     -44.711  58.794 -52.736  1.00  0.00    -0.149 NA
HETATM    7  N   UNL     1     -44.165  57.273 -55.836  1.00  0.00    -0.192 N 
HETATM    8  C   UNL     1     -43.209  56.283 -55.640  1.00  0.00     0.037 C 
HETATM    9  C   UNL     1     -42.797  55.525 -56.880  1.00  0.00     0.070 C 
HETATM   10  C   UNL     1     -42.725  56.046 -54.393  1.00  0.00     0.063 C 
HETATM   11  H   UNL     1     -44.456  57.459 -56.792  1.00  0.00     0.184 HD
ENDROOT
BRANCH  10  12
HETATM   12  C   UNL     1     -41.588  55.101 -54.228  1.00  0.00     0.256 C 
HETATM   13  N   UNL     1     -41.924  53.901 -53.642  1.00  0.00    -0.323 N 
HETATM   14  H   UNL     1     -42.880  53.763 -53.344  1.00  0.00     0.169 HD
HETATM   15  O   UNL     1     -40.475  55.452 -54.603  1.00  0.00    -0.267 OA
BRANCH  13  16
HETATM   16  C   UNL     1     -41.053  52.816 -53.393  1.00  0.00     0.035 A 
HETATM   17  C   UNL     1     -40.304  52.666 -52.222  1.00  0.00     0.029 A 
HETATM   18  C   UNL     1     -39.452  51.570 -52.055  1.00  0.00     0.002 A 
HETATM   19  C   UNL     1     -39.344  50.608 -53.054  1.00  0.00     0.000 A 
HETATM   20  C   UNL     1     -40.085  50.742 -54.224  1.00  0.00     0.002 A 
HETATM   21  C   UNL     1     -40.932  51.842 -54.393  1.00  0.00     0.029 A 
ENDBRANCH  13  16
ENDBRANCH  10  12
BRANCH   1  22
HETATM   22  C   UNL     1     -42.192  57.279 -52.215  1.00  0.00     0.015 A 
HETATM   23  C   UNL     1     -41.234  58.267 -52.413  1.00  0.00     0.036 A 
HETATM   24  C   UNL     1     -40.920  59.101 -53.603  1.00  0.00     0.070 C 
HETATM   25  N   UNL     1     -40.523  58.340 -51.242  1.00  0.00    -0.278 N 
HETATM   26  C   UNL     1     -39.418  59.218 -50.932  1.00  0.00     0.179 C 
HETATM   27  N   UNL     1     -40.929  57.456 -50.317  1.00  0.00    -0.185 NA
HETATM   28  C   UNL     1     -41.934  56.808 -50.906  1.00  0.00     0.150 A 
ENDBRANCH   1  22
TORSDOF 3
ENDMDL
MODEL 3
REMARK VINA RESULT:      -8.0      1.662      5.893
REMARK  3 active torsions:
REMARK  status: ('A' for Active; 'I' for Inactive)
REMARK    1  A    between atoms: C_7  and  C_8 
REMARK    2  A    between atoms: C_17  and  C_18 
REMARK       I    between atoms: C_18  and  N_19 
REMARK    3  A    between atoms: N_19  and  C_20 
ROOT
HETATM    1  C   UNL     1     -41.924  53.500 -52.707  1.00  0.00     0.206 C 
HETATM    2  N   UNL     1     -40.995  52.501 -53.257  1.00  0.00    -0.084 N 
HETATM    3  C   UNL     1     -39.862  52.083 -52.611  1.00  0.00     0.725 A 
HETATM    4  N   UNL     1     -39.285  51.135 -53.303  1.00  0.00    -0.054 NA
HETATM    5  C   UNL     1     -40.136  50.974 -54.363  1.00  0.00     0.275 A 
HETATM    6  N   UNL     1     -41.229  51.746 -54.355  1.00  0.00    -0.149 NA
HETATM    7  N   UNL     1     -39.525  52.647 -51.438  1.00  0.00    -0.192 N 
HETATM    8  C   UNL     1     -40.207  53.726 -50.887  1.00  0.00     0.037 C 
HETATM    9  C   UNL     1     -39.601  54.300 -49.627  1.00  0.00     0.070 C 
HETATM   10  C   UNL     1     -41.343  54.181 -51.474  1.00  0.00     0.063 C 
HETATM   11  H   UNL     1     -38.647  52.376 -51.003  1.00  0.00     0.184 HD
ENDROOT
BRANCH  10  12
HETATM   12  C   UNL     1     -41.966  55.435 -50.968  1.00  0.00     0.256 C 
HETATM   13  N   UNL     1     -41.370  56.589 -51.422  1.00  0.00    -0.323 N 
HETATM   14  H   UNL     1     -40.558  56.510 -52.018  1.00  0.00     0.169 HD
HETATM   15  O   UNL     1     -42.921  55.347 -50.206  1.00  0.00    -0.267 OA
BRANCH  13  16
HETATM   16  C   UNL     1     -41.772  57.913 -51.126  1.00  0.00     0.035 A 
HETATM   17  C   UNL     1     -43.026  58.440 -51.449  1.00  0.00     0.029 A 
HETATM   18  C   UNL     1     -43.346  59.765 -51.135  1.00  0.00     0.002 A 
HETATM   19  C   UNL     1     -42.417  60.576 -50.489  1.00  0.00     0.000 A 
HETATM   20  C   UNL     1     -41.166  60.063 -50.160  1.00  0.00     0.002 A 
HETATM   21  C   UNL     1     -40.844  58.740 -50.480  1.00  0.00     0.029 A 
ENDBRANCH  13  16
ENDBRANCH  10  12
BRANCH   1  22
HETATM   22  C   UNL     1     -42.405  54.430 -53.790  1.00  0.00     0.015 A 
HETATM   23  C   UNL     1     -41.635  55.152 -54.695  1.00  0.00     0.036 A 
HETATM   24  C   UNL     1     -40.161  55.277 -54.845  1.00  0.00     0.070 C 
HETATM   25  N   UNL     1     -42.526  55.833 -55.486  1.00  0.00    -0.278 N 
HETATM   26  C   UNL     1     -42.230  56.723 -56.585  1.00  0.00     0.179 C 
HETATM   27  N   UNL     1     -43.807  55.630 -55.141  1.00  0.00    -0.185 NA
HETATM   28  C   UNL     1     -43.736  54.787 -54.111  1.00  0.00     0.150 A 
ENDBRANCH   1  22
TORSDOF 3
ENDMDL
MODEL 4
REMARK VINA RESULT:      -7.8      2.304      5.863
REMARK  3 active torsions:
REMARK  status: ('A' for Active; 'I' for Inactive)
REMARK    1  A    between atoms: C_7  and  C_8 
REMARK    2  A    between atoms: C_17  and  C_18 
REMARK       I    between atoms: C_18  and  N_19 
REMARK    3  A    between atoms: N_19  and  C_20 
ROOT
HETATM    1  C   UNL     1     -41.720  55.659 -51.831  1.00  0.00     0.206 C 
HETATM    2  N   UNL     1     -41.197  54.934 -50.664  1.00  0.00    -0.084 N 
HETATM    3  C   UNL     1     -40.667  53.672 -50.730  1.00  0.00     0.725 A 
HETATM    4  N   UNL     1     -40.213  53.323 -49.555  1.00  0.00    -0.054 NA
HETATM    5  C   UNL     1     -40.452  54.436 -48.795  1.00  0.00     0.275 A 
HETATM    6  N   UNL     1     -41.001  55.473 -49.439  1.00  0.00    -0.149 NA
HETATM    7  N   UNL     1     -40.673  53.016 -51.904  1.00  0.00    -0.192 N 
HETATM    8  C   UNL     1     -41.295  53.502 -53.047  1.00  0.00     0.037 C 
HETATM    9  C   UNL     1     -41.301  52.564 -54.231  1.00  0.00     0.070 C 
HETATM   10  C   UNL     1     -41.830  54.751 -53.049  1.00  0.00     0.063 C 
HETATM   11  H   UNL     1     -40.339  52.056 -51.925  1.00  0.00     0.184 HD
ENDROOT
BRANCH  10  12
HETATM   12  C   UNL     1     -42.634  55.191 -54.221  1.00  0.00     0.256 C 
HETATM   13  N   UNL     1     -41.947  55.974 -55.121  1.00  0.00    -0.323 N 
HETATM   14  H   UNL     1     -40.989  56.217 -54.913  1.00  0.00     0.169 HD
HETATM   15  O   UNL     1     -43.807  54.843 -54.290  1.00  0.00    -0.267 OA
BRANCH  13  16
HETATM   16  C   UNL     1     -42.454  56.502 -56.331  1.00  0.00     0.035 A 
HETATM   17  C   UNL     1     -42.897  55.719 -57.401  1.00  0.00     0.029 A 
HETATM   18  C   UNL     1     -43.373  56.316 -58.573  1.00  0.00     0.002 A 
HETATM   19  C   UNL     1     -43.416  57.703 -58.685  1.00  0.00     0.000 A 
HETATM   20  C   UNL     1     -42.980  58.494 -57.627  1.00  0.00     0.002 A 
HETATM   21  C   UNL     1     -42.499  57.896 -56.458  1.00  0.00     0.029 A 
ENDBRANCH  13  16
ENDBRANCH  10  12
BRANCH   1  22
HETATM   22  C   UNL     1     -42.977  56.408 -51.471  1.00  0.00     0.015 A 
HETATM   23  C   UNL     1     -43.276  57.741 -51.729  1.00  0.00     0.036 A 
HETATM   24  C   UNL     1     -42.472  58.819 -52.363  1.00  0.00     0.070 C 
HETATM   25  N   UNL     1     -44.536  57.947 -51.226  1.00  0.00    -0.278 N 
HETATM   26  C   UNL     1     -45.307  59.169 -51.248  1.00  0.00     0.179 C 
HETATM   27  N   UNL     1     -45.058  56.860 -50.638  1.00  0.00    -0.185 NA
HETATM   28  C   UNL     1     -44.114  55.929 -50.779  1.00  0.00     0.150 A 
ENDBRANCH   1  22
TORSDOF 3
ENDMDL
MODEL 5
REMARK VINA RESULT:      -7.7      2.301      4.963
REMARK  3 active torsions:
REMARK  status: ('A' for Active; 'I' for Inactive)
REMARK    1  A    between atoms: C_7  and  C_8 
REMARK    2  A    between atoms: C_17  and  C_18 
REMARK       I    between atoms: C_18  and  N_19 
REMARK    3  A    between atoms: N_19  and  C_20 
ROOT
HETATM    1  C   UNL     1     -42.598  58.268 -54.437  1.00  0.00     0.206 C 
HETATM    2  N   UNL     1     -42.307  59.103 -55.612  1.00  0.00    -0.084 N 
HETATM    3  C   UNL     1     -42.259  58.619 -56.893  1.00  0.00     0.725 A 
HETATM    4  N   UNL     1     -42.063  59.604 -57.730  1.00  0.00    -0.054 NA
HETATM    5  C   UNL     1     -42.038  60.699 -56.907  1.00  0.00     0.275 A 
HETATM    6  N   UNL     1     -42.241  60.454 -55.607  1.00  0.00    -0.149 NA
HETATM    7  N   UNL     1     -42.417  57.301 -57.106  1.00  0.00    -0.192 N 
HETATM    8  C   UNL     1     -42.518  56.368 -56.080  1.00  0.00     0.037 C 
HETATM    9  C   UNL     1     -42.565  54.924 -56.519  1.00  0.00     0.070 C 
HETATM   10  C   UNL     1     -42.582  56.786 -54.789  1.00  0.00     0.063 C 
HETATM   11  H   UNL     1     -42.311  56.945 -58.053  1.00  0.00     0.184 HD
ENDROOT
BRANCH  10  12
HETATM   12  C   UNL     1     -42.522  55.775 -53.699  1.00  0.00     0.256 C 
HETATM   13  N   UNL     1     -41.257  55.310 -53.422  1.00  0.00    -0.323 N 
HETATM   14  H   UNL     1     -40.487  55.650 -53.981  1.00  0.00     0.169 HD
HETATM   15  O   UNL     1     -43.568  55.437 -53.156  1.00  0.00    -0.267 OA
BRANCH  13  16
HETATM   16  C   UNL     1     -40.907  54.374 -52.421  1.00  0.00     0.035 A 
HETATM   17  C   UNL     1     -41.009  54.621 -51.049  1.00  0.00     0.029 A 
HETATM   18  C   UNL     1     -40.630  53.648 -50.119  1.00  0.00     0.002 A 
HETATM   19  C   UNL     1     -40.152  52.414 -50.550  1.00  0.00     0.000 A 
HETATM   20  C   UNL     1     -40.047  52.154 -51.913  1.00  0.00     0.002 A 
HETATM   21  C   UNL     1     -40.420  53.130 -52.843  1.00  0.00     0.029 A 
ENDBRANCH  13  16
ENDBRANCH  10  12
BRANCH   1  22
HETATM   22  C   UNL     1     -41.722  58.663 -53.276  1.00  0.00     0.015 A 
HETATM   23  C   UNL     1     -42.118  58.981 -51.982  1.00  0.00     0.036 A 
HETATM   24  C   UNL     1     -43.468  59.082 -51.369  1.00  0.00     0.070 C 
HETATM   25  N   UNL     1     -40.963  59.254 -51.293  1.00  0.00    -0.278 N 
HETATM   26  C   UNL     1     -40.830  59.631 -49.905  1.00  0.00     0.179 C 
HETATM   27  N   UNL     1     -39.858  59.166 -52.050  1.00  0.00    -0.185 NA
HETATM   28  C   UNL     1     -40.315  58.816 -53.253  1.00  0.00     0.150 A 
ENDBRANCH   1  22
TORSDOF 3
ENDMDL
MODEL 6
REMARK VINA RESULT:      -7.3      2.304      5.205
REMARK  3 active torsions:
REMARK  status: ('A' for Active; 'I' for Inactive)
REMARK    1  A    between atoms: C_7  and  C_8 
REMARK    2  A    between atoms: C_17  and  C_18 
REMARK       I    between atoms: C_18  and  N_19 
REMARK    3  A    between atoms: N_19  and  C_20 
ROOT
HETATM    1  C   UNL     1     -43.689  57.623 -54.808  1.00  0.00     0.206 C 
HETATM    2  N   UNL     1     -44.490  58.503 -55.673  1.00  0.00    -0.084 N 
HETATM    3  C   UNL     1     -44.774  58.224 -56.984  1.00  0.00     0.725 A 
HETATM    4  N   UNL     1     -45.569  59.142 -57.468  1.00  0.00    -0.054 NA
HETATM    5  C   UNL     1     -45.783  59.956 -56.388  1.00  0.00     0.275 A 
HETATM    6  N   UNL     1     -45.192  59.578 -55.248  1.00  0.00    -0.149 NA
HETATM    7  N   UNL     1     -44.249  57.124 -57.552  1.00  0.00    -0.192 N 
HETATM    8  C   UNL     1     -43.331  56.299 -56.913  1.00  0.00     0.037 C 
HETATM    9  C   UNL     1     -42.762  55.185 -57.760  1.00  0.00     0.070 C 
HETATM   10  C   UNL     1     -43.016  56.517 -55.610  1.00  0.00     0.063 C 
HETATM   11  H   UNL     1     -44.412  56.964 -58.543  1.00  0.00     0.184 HD
ENDROOT
BRANCH  10  12
HETATM   12  C   UNL     1     -41.914  55.731 -54.992  1.00  0.00     0.256 C 
HETATM   13  N   UNL     1     -42.324  54.591 -54.340  1.00  0.00    -0.323 N 
HETATM   14  H   UNL     1     -43.313  54.391 -54.296  1.00  0.00     0.169 HD
HETATM   15  O   UNL     1     -40.766  56.148 -55.099  1.00  0.00    -0.267 OA
BRANCH  13  16
HETATM   16  C   UNL     1     -41.490  53.649 -53.693  1.00  0.00     0.035 A 
HETATM   17  C   UNL     1     -41.149  53.705 -52.338  1.00  0.00     0.029 A 
HETATM   18  C   UNL     1     -40.307  52.742 -51.774  1.00  0.00     0.002 A 
HETATM   19  C   UNL     1     -39.800  51.709 -52.556  1.00  0.00     0.000 A 
HETATM   20  C   UNL     1     -40.133  51.639 -53.905  1.00  0.00     0.002 A 
HETATM   21  C   UNL     1     -40.971  52.606 -54.471  1.00  0.00     0.029 A 
ENDBRANCH  13  16
ENDBRANCH  10  12
BRANCH   1  22
HETATM   22  C   UNL     1     -42.770  58.434 -53.933  1.00  0.00     0.015 A 
HETATM   23  C   UNL     1     -42.737  58.477 -52.544  1.00  0.00     0.036 A 
HETATM   24  C   UNL     1     -43.589  57.811 -51.524  1.00  0.00     0.070 C 
HETATM   25  N   UNL     1     -41.722  59.342 -52.219  1.00  0.00    -0.278 N 
HETATM   26  C   UNL     1     -41.277  59.725 -50.899  1.00  0.00     0.179 C 
HETATM   27  N   UNL     1     -41.120  59.882 -53.290  1.00  0.00    -0.185 NA
HETATM   28  C   UNL     1     -41.757  59.340 -54.328  1.00  0.00     0.150 A 
ENDBRANCH   1  22
TORSDOF 3
ENDMDL
MODEL 7
REMARK VINA RESULT:      -7.2      2.779      5.517
REMARK  3 active torsions:
REMARK  status: ('A' for Active; 'I' for Inactive)
REMARK    1  A    between atoms: C_7  and  C_8 
REMARK    2  A    between atoms: C_17  and  C_18 
REMARK       I    between atoms: C_18  and  N_19 
REMARK    3  A    between atoms: N_19  and  C_20 
ROOT
HETATM    1  C   UNL     1     -43.643  58.562 -55.507  1.00  0.00     0.206 C 
HETATM    2  N   UNL     1     -43.555  59.588 -56.556  1.00  0.00    -0.084 N 
HETATM    3  C   UNL     1     -43.483  59.301 -57.894  1.00  0.00     0.725 A 
HETATM    4  N   UNL     1     -43.498  60.411 -58.584  1.00  0.00    -0.054 NA
HETATM    5  C   UNL     1     -43.624  61.369 -57.613  1.00  0.00     0.275 A 
HETATM    6  N   UNL     1     -43.721  60.916 -56.358  1.00  0.00    -0.149 NA
HETATM    7  N   UNL     1     -43.422  58.018 -58.290  1.00  0.00    -0.192 N 
HETATM    8  C   UNL     1     -43.314  56.950 -57.406  1.00  0.00     0.037 C 
HETATM    9  C   UNL     1     -43.132  55.595 -58.048  1.00  0.00     0.070 C 
HETATM   10  C   UNL     1     -43.389  57.168 -56.068  1.00  0.00     0.063 C 
HETATM   11  H   UNL     1     -43.301  57.820 -59.280  1.00  0.00     0.184 HD
ENDROOT
BRANCH  10  12
HETATM   12  C   UNL     1     -43.106  56.044 -55.136  1.00  0.00     0.256 C 
HETATM   13  N   UNL     1     -41.777  55.701 -55.044  1.00  0.00    -0.323 N 
HETATM   14  H   UNL     1     -41.112  56.195 -55.622  1.00  0.00     0.169 HD
HETATM   15  O   UNL     1     -44.046  55.520 -54.549  1.00  0.00    -0.267 OA
BRANCH  13  16
HETATM   16  C   UNL     1     -41.225  54.694 -54.217  1.00  0.00     0.035 A 
HETATM   17  C   UNL     1     -40.762  53.462 -54.687  1.00  0.00     0.029 A 
HETATM   18  C   UNL     1     -40.241  52.511 -53.804  1.00  0.00     0.002 A 
HETATM   19  C   UNL     1     -40.172  52.784 -52.441  1.00  0.00     0.000 A 
HETATM   20  C   UNL     1     -40.627  54.008 -51.960  1.00  0.00     0.002 A 
HETATM   21  C   UNL     1     -41.153  54.956 -52.843  1.00  0.00     0.029 A 
ENDBRANCH  13  16
ENDBRANCH  10  12
BRANCH   1  22
HETATM   22  C   UNL     1     -42.795  58.942 -54.321  1.00  0.00     0.015 A 
HETATM   23  C   UNL     1     -43.188  59.037 -52.990  1.00  0.00     0.036 A 
HETATM   24  C   UNL     1     -44.516  58.857 -52.347  1.00  0.00     0.070 C 
HETATM   25  N   UNL     1     -42.063  59.397 -52.292  1.00  0.00    -0.278 N 
HETATM   26  C   UNL     1     -41.939  59.618 -50.870  1.00  0.00     0.179 C 
HETATM   27  N   UNL     1     -40.985  59.570 -53.072  1.00  0.00    -0.185 NA
HETATM   28  C   UNL     1     -41.427  59.302 -54.301  1.00  0.00     0.150 A 
ENDBRANCH   1  22
TORSDOF 3
ENDMDL
MODEL 8
REMARK VINA RESULT:      -7.2      2.393      5.264
REMARK  3 active torsions:
REMARK  status: ('A' for Active; 'I' for Inactive)
REMARK    1  A    between atoms: C_7  and  C_8 
REMARK    2  A    between atoms: C_17  and  C_18 
REMARK       I    between atoms: C_18  and  N_19 
REMARK    3  A    between atoms: N_19  and  C_20 
ROOT
HETATM    1  C   UNL     1     -43.421  56.985 -54.592  1.00  0.00     0.206 C 
HETATM    2  N   UNL     1     -43.768  57.239 -55.998  1.00  0.00    -0.084 N 
HETATM    3  C   UNL     1     -43.255  56.523 -57.047  1.00  0.00     0.725 A 
HETATM    4  N   UNL     1     -43.807  56.919 -58.164  1.00  0.00    -0.054 NA
HETATM    5  C   UNL     1     -44.700  57.867 -57.739  1.00  0.00     0.275 A 
HETATM    6  N   UNL     1     -44.757  58.061 -56.416  1.00  0.00    -0.149 NA
HETATM    7  N   UNL     1     -42.332  55.575 -56.809  1.00  0.00    -0.192 N 
HETATM    8  C   UNL     1     -41.775  55.349 -55.555  1.00  0.00     0.037 C 
HETATM    9  C   UNL     1     -40.664  54.326 -55.514  1.00  0.00     0.070 C 
HETATM   10  C   UNL     1     -42.249  56.019 -54.473  1.00  0.00     0.063 C 
HETATM   11  H   UNL     1     -41.909  55.098 -57.601  1.00  0.00     0.184 HD
ENDROOT
BRANCH  10  12
HETATM   12  C   UNL     1     -41.535  55.889 -53.174  1.00  0.00     0.256 C 
HETATM   13  N   UNL     1     -41.986  54.862 -52.377  1.00  0.00    -0.323 N 
HETATM   14  H   UNL     1     -42.766  54.308 -52.701  1.00  0.00     0.169 HD
HETATM   15  O   UNL     1     -40.638  56.684 -52.917  1.00  0.00    -0.267 OA
BRANCH  13  16
HETATM   16  C   UNL     1     -41.472  54.494 -51.111  1.00  0.00     0.035 A 
HETATM   17  C   UNL     1     -40.798  53.295 -50.859  1.00  0.00     0.029 A 
HETATM   18  C   UNL     1     -40.330  52.996 -49.576  1.00  0.00     0.002 A 
HETATM   19  C   UNL     1     -40.525  53.895 -48.531  1.00  0.00     0.000 A 
HETATM   20  C   UNL     1     -41.192  55.094 -48.769  1.00  0.00     0.002 A 
HETATM   21  C   UNL     1     -41.665  55.389 -50.051  1.00  0.00     0.029 A 
ENDBRANCH  13  16
ENDBRANCH  10  12
BRANCH   1  22
HETATM   22  C   UNL     1     -43.264  58.282 -53.842  1.00  0.00     0.015 A 
HETATM   23  C   UNL     1     -43.851  58.642 -52.634  1.00  0.00     0.036 A 
HETATM   24  C   UNL     1     -44.816  57.923 -51.762  1.00  0.00     0.070 C 
HETATM   25  N   UNL     1     -43.391  59.905 -52.356  1.00  0.00    -0.278 N 
HETATM   26  C   UNL     1     -43.700  60.724 -51.206  1.00  0.00     0.179 C 
HETATM   27  N   UNL     1     -42.579  60.397 -53.304  1.00  0.00    -0.185 NA
HETATM   28  C   UNL     1     -42.506  59.420 -54.208  1.00  0.00     0.150 A 
ENDBRANCH   1  22
TORSDOF 3
ENDMDL
MODEL 9
REMARK VINA RESULT:      -7.0      3.028      6.565
REMARK  3 active torsions:
REMARK  status: ('A' for Active; 'I' for Inactive)
REMARK    1  A    between atoms: C_7  and  C_8 
REMARK    2  A    between atoms: C_17  and  C_18 
REMARK       I    between atoms: C_18  and  N_19 
REMARK    3  A    between atoms: N_19  and  C_20 
ROOT
HETATM    1  C   UNL     1     -41.692  57.120 -53.425  1.00  0.00     0.206 C 
HETATM    2  N   UNL     1     -41.558  56.401 -52.149  1.00  0.00    -0.084 N 
HETATM    3  C   UNL     1     -41.828  55.067 -51.998  1.00  0.00     0.725 A 
HETATM    4  N   UNL     1     -41.540  54.694 -50.779  1.00  0.00    -0.054 NA
HETATM    5  C   UNL     1     -41.049  55.844 -50.219  1.00  0.00     0.275 A 
HETATM    6  N   UNL     1     -40.984  56.904 -51.032  1.00  0.00    -0.149 NA
HETATM    7  N   UNL     1     -42.305  54.369 -53.044  1.00  0.00    -0.192 N 
HETATM    8  C   UNL     1     -42.652  54.952 -54.257  1.00  0.00     0.037 C 
HETATM    9  C   UNL     1     -43.287  54.023 -55.264  1.00  0.00     0.070 C 
HETATM   10  C   UNL     1     -42.399  56.269 -54.472  1.00  0.00     0.063 C 
HETATM   11  H   UNL     1     -42.565  53.396 -52.900  1.00  0.00     0.184 HD
ENDROOT
BRANCH  10  12
HETATM   12  C   UNL     1     -42.925  56.913 -55.706  1.00  0.00     0.256 C 
HETATM   13  N   UNL     1     -41.988  57.094 -56.698  1.00  0.00    -0.323 N 
HETATM   14  H   UNL     1     -41.033  56.819 -56.513  1.00  0.00     0.169 HD
HETATM   15  O   UNL     1     -44.108  57.230 -55.742  1.00  0.00    -0.267 OA
BRANCH  13  16
HETATM   16  C   UNL     1     -42.217  57.650 -57.978  1.00  0.00     0.035 A 
HETATM   17  C   UNL     1     -42.620  56.909 -59.092  1.00  0.00     0.029 A 
HETATM   18  C   UNL     1     -42.814  57.529 -60.330  1.00  0.00     0.002 A 
HETATM   19  C   UNL     1     -42.613  58.900 -60.466  1.00  0.00     0.000 A 
HETATM   20  C   UNL     1     -42.214  59.650 -59.364  1.00  0.00     0.002 A 
HETATM   21  C   UNL     1     -42.014  59.028 -58.128  1.00  0.00     0.029 A 
ENDBRANCH  13  16
ENDBRANCH  10  12
BRANCH   1  22
HETATM   22  C   UNL     1     -42.280  58.489 -53.204  1.00  0.00     0.015 A 
HETATM   23  C   UNL     1     -43.518  58.804 -52.654  1.00  0.00     0.036 A 
HETATM   24  C   UNL     1     -44.628  57.935 -52.181  1.00  0.00     0.070 C 
HETATM   25  N   UNL     1     -43.587  60.174 -52.648  1.00  0.00    -0.278 N 
HETATM   26  C   UNL     1     -44.671  61.001 -52.170  1.00  0.00     0.179 C 
HETATM   27  N   UNL     1     -42.505  60.765 -53.177  1.00  0.00    -0.185 NA
HETATM   28  C   UNL     1     -41.715  59.747 -53.521  1.00  0.00     0.150 A 
ENDBRANCH   1  22
TORSDOF 3
ENDMDL
MODEL 10
REMARK VINA RESULT:      -6.8     14.839     16.811
REMARK  3 active torsions:
REMARK  status: ('A' for Active; 'I' for Inactive)
REMARK    1  A    between atoms: C_7  and  C_8 
REMARK    2  A    between atoms: C_17  and  C_18 
REMARK       I    between atoms: C_18  and  N_19 
REMARK    3  A    between atoms: N_19  and  C_20 
ROOT
HETATM    1  C   UNL     1     -35.687  41.382 -55.975  1.00  0.00     0.206 C 
HETATM    2  N   UNL     1     -36.602  40.927 -57.033  1.00  0.00    -0.084 N 
HETATM    3  C   UNL     1     -37.945  40.732 -56.843  1.00  0.00     0.725 A 
HETATM    4  N   UNL     1     -38.508  40.409 -57.977  1.00  0.00    -0.054 NA
HETATM    5  C   UNL     1     -37.462  40.459 -58.859  1.00  0.00     0.275 A 
HETATM    6  N   UNL     1     -36.284  40.828 -58.344  1.00  0.00    -0.149 NA
HETATM    7  N   UNL     1     -38.467  40.896 -55.614  1.00  0.00    -0.192 N 
HETATM    8  C   UNL     1     -37.696  41.147 -54.485  1.00  0.00     0.037 C 
HETATM    9  C   UNL     1     -38.453  41.175 -53.178  1.00  0.00     0.070 C 
HETATM   10  C   UNL     1     -36.361  41.361 -54.609  1.00  0.00     0.063 C 
HETATM   11  H   UNL     1     -39.450  40.682 -55.472  1.00  0.00     0.184 HD
ENDROOT
BRANCH  10  12
HETATM   12  C   UNL     1     -35.528  41.463 -53.380  1.00  0.00     0.256 C 
HETATM   13  N   UNL     1     -34.937  40.282 -52.994  1.00  0.00    -0.323 N 
HETATM   14  H   UNL     1     -35.130  39.448 -53.531  1.00  0.00     0.169 HD
HETATM   15  O   UNL     1     -35.442  42.549 -52.820  1.00  0.00    -0.267 OA
BRANCH  13  16
HETATM   16  C   UNL     1     -34.075  40.098 -51.887  1.00  0.00     0.035 A 
HETATM   17  C   UNL     1     -34.509  39.726 -50.611  1.00  0.00     0.029 A 
HETATM   18  C   UNL     1     -33.596  39.577 -49.562  1.00  0.00     0.002 A 
HETATM   19  C   UNL     1     -32.238  39.792 -49.779  1.00  0.00     0.000 A 
HETATM   20  C   UNL     1     -31.792  40.160 -51.045  1.00  0.00     0.002 A 
HETATM   21  C   UNL     1     -32.706  40.315 -52.092  1.00  0.00     0.029 A 
ENDBRANCH  13  16
ENDBRANCH  10  12
BRANCH   1  22
HETATM   22  C   UNL     1     -34.374  40.648 -56.058  1.00  0.00     0.015 A 
HETATM   23  C   UNL     1     -34.171  39.274 -56.107  1.00  0.00     0.036 A 
HETATM   24  C   UNL     1     -35.129  38.139 -56.043  1.00  0.00     0.070 C 
HETATM   25  N   UNL     1     -32.812  39.099 -56.193  1.00  0.00    -0.278 N 
HETATM   26  C   UNL     1     -32.085  37.853 -56.277  1.00  0.00     0.179 C 
HETATM   27  N   UNL     1     -32.125  40.252 -56.172  1.00  0.00    -0.185 NA
HETATM   28  C   UNL     1     -33.068  41.190 -56.083  1.00  0.00     0.150 A 
ENDBRANCH   1  22
TORSDOF 3
ENDMDL
