MODEL 1
REMARK VINA RESULT:      -9.2      0.000      0.000
REMARK  5 active torsions:
REMARK  status: ('A' for Active; 'I' for Inactive)
REMARK    1  A    between atoms: C_2  and  O_4 
REMARK    2  A    between atoms: O_4  and  C_5 
REMARK    3  A    between atoms: C_10  and  C_11 
REMARK    4  A    between atoms: C_13  and  N_14 
REMARK    5  A    between atoms: N_14  and  C_15 
ROOT
HETATM    1  C   UNL     1     -41.141  54.692 -54.159  1.00  0.00     0.164 A 
HETATM    2  N   UNL     1     -40.977  55.909 -53.626  1.00  0.00    -0.215 NA
HETATM    3  C   UNL     1     -41.510  56.959 -54.276  1.00  0.00     0.122 A 
HETATM    4  C   UNL     1     -42.151  56.812 -55.521  1.00  0.00     0.033 A 
HETATM    5  C   UNL     1     -42.660  57.871 -56.320  1.00  0.00     0.017 A 
HETATM    6  C   UNL     1     -43.300  57.613 -57.529  1.00  0.00     0.001 A 
HETATM    7  C   UNL     1     -43.440  56.301 -57.959  1.00  0.00     0.002 A 
HETATM    8  C   UNL     1     -42.928  55.260 -57.180  1.00  0.00     0.032 A 
HETATM    9  C   UNL     1     -42.281  55.492 -55.973  1.00  0.00     0.072 A 
HETATM   10  N   UNL     1     -41.806  54.443 -55.298  1.00  0.00    -0.228 NA
ENDROOT
BRANCH   3  11
HETATM   11  N   UNL     1     -41.353  58.264 -53.719  1.00  0.00    -0.243 NA
HETATM   12  H   UNL     1     -41.311  58.921 -54.495  1.00  0.00     0.135 HD
BRANCH  11  13
HETATM   13  C   UNL     1     -42.205  58.856 -52.744  1.00  0.00     0.015 A 
HETATM   14  C   UNL     1     -41.782  59.906 -51.918  1.00  0.00     0.026 A 
HETATM   15  C   UNL     1     -42.593  60.422 -50.899  1.00  0.00     0.034 A 
HETATM   16  C   UNL     1     -43.838  59.820 -50.715  1.00  0.00     0.061 A 
HETATM   17  N   UNL     1     -44.853  60.078 -49.833  1.00  0.00    -0.278 N 
HETATM   18  C   UNL     1     -44.279  58.750 -51.484  1.00  0.00     0.013 A 
HETATM   19  H   UNL     1     -44.882  60.797 -49.119  1.00  0.00     0.189 HD
HETATM   20  N   UNL     1     -45.911  59.257 -49.960  1.00  0.00    -0.186 NA
HETATM   21  C   UNL     1     -45.559  58.453 -50.968  1.00  0.00     0.152 A 
HETATM   22  C   UNL     1     -43.447  58.245 -52.498  1.00  0.00     0.039 A 
ENDBRANCH  11  13
ENDBRANCH   3  11
BRANCH   1  23
HETATM   23  C   UNL     1     -40.597  53.539 -53.427  1.00  0.00     0.046 A 
HETATM   24  C   UNL     1     -40.538  53.483 -52.023  1.00  0.00     0.093 A 
HETATM   25  C   UNL     1     -39.993  52.387 -51.342  1.00  0.00     0.038 A 
HETATM   26  C   UNL     1     -39.525  51.293 -52.064  1.00  0.00     0.003 A 
HETATM   27  C   UNL     1     -39.577  51.309 -53.456  1.00  0.00     0.001 A 
HETATM   28  C   UNL     1     -40.101  52.420 -54.126  1.00  0.00     0.018 A 
BRANCH  24  29
HETATM   29  O   UNL     1     -40.916  54.606 -51.268  1.00  0.00    -0.278 OA
BRANCH  29  30
HETATM   30  C   UNL     1     -41.923  54.363 -50.340  1.00  0.00     0.260 C 
HETATM   31  C   UNL     1     -43.233  54.293 -51.067  1.00  0.00     0.126 C 
HETATM   32  O   UNL     1     -41.800  54.276 -49.124  1.00  0.00    -0.265 OA
ENDBRANCH  29  30
ENDBRANCH  24  29
ENDBRANCH   1  23
TORSDOF 5
ENDMDL
MODEL 2
REMARK VINA RESULT:      -9.1      3.214      7.473
REMARK  5 active torsions:
REMARK  status: ('A' for Active; 'I' for Inactive)
REMARK    1  A    between atoms: C_2  and  O_4 
REMARK    2  A    between atoms: O_4  and  C_5 
REMARK    3  A    between atoms: C_10  and  C_11 
REMARK    4  A    between atoms: C_13  and  N_14 
REMARK    5  A    between atoms: N_14  and  C_15 
ROOT
HETATM    1  C   UNL     1     -42.981  56.504 -55.922  1.00  0.00     0.164 A 
HETATM    2  N   UNL     1     -41.841  55.928 -55.521  1.00  0.00    -0.215 NA
HETATM    3  C   UNL     1     -41.639  55.781 -54.200  1.00  0.00     0.122 A 
HETATM    4  C   UNL     1     -42.549  56.285 -53.250  1.00  0.00     0.033 A 
HETATM    5  C   UNL     1     -42.375  56.258 -51.841  1.00  0.00     0.017 A 
HETATM    6  C   UNL     1     -43.352  56.765 -50.988  1.00  0.00     0.001 A 
HETATM    7  C   UNL     1     -44.511  57.306 -51.525  1.00  0.00     0.002 A 
HETATM    8  C   UNL     1     -44.677  57.345 -52.912  1.00  0.00     0.032 A 
HETATM    9  C   UNL     1     -43.715  56.851 -53.784  1.00  0.00     0.072 A 
HETATM   10  N   UNL     1     -43.944  56.942 -55.095  1.00  0.00    -0.228 NA
ENDROOT
BRANCH   3  11
HETATM   11  N   UNL     1     -40.433  55.162 -53.753  1.00  0.00    -0.243 NA
HETATM   12  H   UNL     1     -40.053  55.743 -53.008  1.00  0.00     0.135 HD
BRANCH  11  13
HETATM   13  C   UNL     1     -40.309  53.816 -53.307  1.00  0.00     0.015 A 
HETATM   14  C   UNL     1     -40.180  53.484 -51.952  1.00  0.00     0.026 A 
HETATM   15  C   UNL     1     -39.965  52.167 -51.527  1.00  0.00     0.034 A 
HETATM   16  C   UNL     1     -39.849  51.193 -52.519  1.00  0.00     0.061 A 
HETATM   17  N   UNL     1     -39.647  49.840 -52.449  1.00  0.00    -0.278 N 
HETATM   18  C   UNL     1     -39.929  51.484 -53.875  1.00  0.00     0.013 A 
HETATM   19  H   UNL     1     -39.545  49.274 -51.615  1.00  0.00     0.189 HD
HETATM   20  N   UNL     1     -39.580  49.233 -53.648  1.00  0.00    -0.186 NA
HETATM   21  C   UNL     1     -39.755  50.237 -54.513  1.00  0.00     0.152 A 
HETATM   22  C   UNL     1     -40.141  52.814 -54.280  1.00  0.00     0.039 A 
ENDBRANCH  11  13
ENDBRANCH   3  11
BRANCH   1  23
HETATM   23  C   UNL     1     -43.222  56.625 -57.367  1.00  0.00     0.046 A 
HETATM   24  C   UNL     1     -43.398  57.862 -58.013  1.00  0.00     0.093 A 
HETATM   25  C   UNL     1     -43.652  57.956 -59.387  1.00  0.00     0.038 A 
HETATM   26  C   UNL     1     -43.698  56.799 -60.159  1.00  0.00     0.003 A 
HETATM   27  C   UNL     1     -43.517  55.557 -59.555  1.00  0.00     0.001 A 
HETATM   28  C   UNL     1     -43.289  55.473 -58.177  1.00  0.00     0.018 A 
BRANCH  24  29
HETATM   29  O   UNL     1     -43.450  59.040 -57.250  1.00  0.00    -0.278 OA
BRANCH  29  30
HETATM   30  C   UNL     1     -42.210  59.620 -57.002  1.00  0.00     0.260 C 
HETATM   31  C   UNL     1     -42.131  59.970 -55.546  1.00  0.00     0.126 C 
HETATM   32  O   UNL     1     -41.336  59.871 -57.823  1.00  0.00    -0.265 OA
ENDBRANCH  29  30
ENDBRANCH  24  29
ENDBRANCH   1  23
TORSDOF 5
ENDMDL
MODEL 3
REMARK VINA RESULT:      -9.0      2.310      5.260
REMARK  5 active torsions:
REMARK  status: ('A' for Active; 'I' for Inactive)
REMARK    1  A    between atoms: C_2  and  O_4 
REMARK    2  A    between atoms: O_4  and  C_5 
REMARK    3  A    between atoms: C_10  and  C_11 
REMARK    4  A    between atoms: C_13  and  N_14 
REMARK    5  A    between atoms: N_14  and  C_15 
ROOT
HETATM    1  C   UNL     1     -41.678  54.233 -53.431  1.00  0.00     0.164 A 
HETATM    2  N   UNL     1     -41.568  54.982 -54.536  1.00  0.00    -0.215 NA
HETATM    3  C   UNL     1     -42.201  56.168 -54.559  1.00  0.00     0.122 A 
HETATM    4  C   UNL     1     -43.026  56.589 -53.498  1.00  0.00     0.033 A 
HETATM    5  C   UNL     1     -43.802  57.778 -53.475  1.00  0.00     0.017 A 
HETATM    6  C   UNL     1     -44.568  58.113 -52.360  1.00  0.00     0.001 A 
HETATM    7  C   UNL     1     -44.572  57.270 -51.259  1.00  0.00     0.002 A 
HETATM    8  C   UNL     1     -43.817  56.093 -51.286  1.00  0.00     0.032 A 
HETATM    9  C   UNL     1     -43.050  55.735 -52.387  1.00  0.00     0.072 A 
HETATM   10  N   UNL     1     -42.373  54.586 -52.339  1.00  0.00    -0.228 NA
ENDROOT
BRANCH   3  11
HETATM   11  N   UNL     1     -42.089  56.985 -55.725  1.00  0.00    -0.243 NA
HETATM   12  H   UNL     1     -41.144  56.870 -56.085  1.00  0.00     0.135 HD
BRANCH  11  13
HETATM   13  C   UNL     1     -42.952  56.937 -56.855  1.00  0.00     0.015 A 
HETATM   14  C   UNL     1     -43.900  57.935 -57.118  1.00  0.00     0.026 A 
HETATM   15  C   UNL     1     -44.810  57.836 -58.178  1.00  0.00     0.034 A 
HETATM   16  C   UNL     1     -44.756  56.676 -58.951  1.00  0.00     0.061 A 
HETATM   17  N   UNL     1     -45.481  56.273 -60.040  1.00  0.00    -0.278 N 
HETATM   18  C   UNL     1     -43.860  55.644 -58.701  1.00  0.00     0.013 A 
HETATM   19  H   UNL     1     -46.225  56.778 -60.507  1.00  0.00     0.189 HD
HETATM   20  N   UNL     1     -45.136  55.060 -60.510  1.00  0.00    -0.186 NA
HETATM   21  C   UNL     1     -44.148  54.682 -59.694  1.00  0.00     0.152 A 
HETATM   22  C   UNL     1     -42.959  55.761 -57.628  1.00  0.00     0.039 A 
ENDBRANCH  11  13
ENDBRANCH   3  11
BRANCH   1  23
HETATM   23  C   UNL     1     -40.950  52.957 -53.388  1.00  0.00     0.046 A 
HETATM   24  C   UNL     1     -40.065  52.616 -52.350  1.00  0.00     0.093 A 
HETATM   25  C   UNL     1     -39.360  51.405 -52.338  1.00  0.00     0.038 A 
HETATM   26  C   UNL     1     -39.560  50.483 -53.361  1.00  0.00     0.003 A 
HETATM   27  C   UNL     1     -40.438  50.782 -54.401  1.00  0.00     0.001 A 
HETATM   28  C   UNL     1     -41.118  52.006 -54.415  1.00  0.00     0.018 A 
BRANCH  24  29
HETATM   29  O   UNL     1     -39.769  53.560 -51.353  1.00  0.00    -0.278 OA
BRANCH  29  30
HETATM   30  C   UNL     1     -40.229  53.220 -50.085  1.00  0.00     0.260 C 
HETATM   31  C   UNL     1     -40.189  54.445 -49.220  1.00  0.00     0.126 C 
HETATM   32  O   UNL     1     -40.562  52.108 -49.694  1.00  0.00    -0.265 OA
ENDBRANCH  29  30
ENDBRANCH  24  29
ENDBRANCH   1  23
TORSDOF 5
ENDMDL
MODEL 4
REMARK VINA RESULT:      -8.7      2.476      6.716
REMARK  5 active torsions:
REMARK  status: ('A' for Active; 'I' for Inactive)
REMARK    1  A    between atoms: C_2  and  O_4 
REMARK    2  A    between atoms: O_4  and  C_5 
REMARK    3  A    between atoms: C_10  and  C_11 
REMARK    4  A    between atoms: C_13  and  N_14 
REMARK    5  A    between atoms: N_14  and  C_15 
ROOT
HETATM    1  C   UNL     1     -42.757  57.008 -53.022  1.00  0.00     0.164 A 
HETATM    2  N   UNL     1     -42.607  57.273 -54.326  1.00  0.00    -0.215 NA
HETATM    3  C   UNL     1     -42.007  56.347 -55.093  1.00  0.00     0.122 A 
HETATM    4  C   UNL     1     -41.471  55.165 -54.545  1.00  0.00     0.033 A 
HETATM    5  C   UNL     1     -40.742  54.178 -55.261  1.00  0.00     0.017 A 
HETATM    6  C   UNL     1     -40.275  53.030 -54.625  1.00  0.00     0.001 A 
HETATM    7  C   UNL     1     -40.525  52.852 -53.272  1.00  0.00     0.002 A 
HETATM    8  C   UNL     1     -41.232  53.829 -52.565  1.00  0.00     0.032 A 
HETATM    9  C   UNL     1     -41.703  54.984 -53.175  1.00  0.00     0.072 A 
HETATM   10  N   UNL     1     -42.353  55.875 -52.425  1.00  0.00    -0.228 NA
ENDROOT
BRANCH   3  11
HETATM   11  N   UNL     1     -41.846  56.608 -56.487  1.00  0.00    -0.243 NA
HETATM   12  H   UNL     1     -41.213  55.901 -56.856  1.00  0.00     0.135 HD
BRANCH  11  13
HETATM   13  C   UNL     1     -42.902  56.727 -57.435  1.00  0.00     0.015 A 
HETATM   14  C   UNL     1     -43.881  57.726 -57.344  1.00  0.00     0.026 A 
HETATM   15  C   UNL     1     -44.969  57.782 -58.224  1.00  0.00     0.034 A 
HETATM   16  C   UNL     1     -45.058  56.773 -59.184  1.00  0.00     0.061 A 
HETATM   17  N   UNL     1     -45.971  56.540 -60.178  1.00  0.00    -0.278 N 
HETATM   18  C   UNL     1     -44.133  55.742 -59.282  1.00  0.00     0.013 A 
HETATM   19  H   UNL     1     -46.787  57.094 -60.408  1.00  0.00     0.189 HD
HETATM   20  N   UNL     1     -45.719  55.436 -60.906  1.00  0.00    -0.186 NA
HETATM   21  C   UNL     1     -44.598  54.955 -60.359  1.00  0.00     0.152 A 
HETATM   22  C   UNL     1     -43.051  55.702 -58.385  1.00  0.00     0.039 A 
ENDBRANCH  11  13
ENDBRANCH   3  11
BRANCH   1  23
HETATM   23  C   UNL     1     -43.453  58.001 -52.191  1.00  0.00     0.046 A 
HETATM   24  C   UNL     1     -42.806  59.116 -51.628  1.00  0.00     0.093 A 
HETATM   25  C   UNL     1     -43.481  60.038 -50.818  1.00  0.00     0.038 A 
HETATM   26  C   UNL     1     -44.843  59.880 -50.583  1.00  0.00     0.003 A 
HETATM   27  C   UNL     1     -45.519  58.794 -51.133  1.00  0.00     0.001 A 
HETATM   28  C   UNL     1     -44.830  57.864 -51.921  1.00  0.00     0.018 A 
BRANCH  24  29
HETATM   29  O   UNL     1     -41.416  59.254 -51.768  1.00  0.00    -0.278 OA
BRANCH  29  30
HETATM   30  C   UNL     1     -40.679  58.780 -50.688  1.00  0.00     0.260 C 
HETATM   31  C   UNL     1     -39.536  59.720 -50.441  1.00  0.00     0.126 C 
HETATM   32  O   UNL     1     -40.870  57.744 -50.063  1.00  0.00    -0.265 OA
ENDBRANCH  29  30
ENDBRANCH  24  29
ENDBRANCH   1  23
TORSDOF 5
ENDMDL
MODEL 5
REMARK VINA RESULT:      -8.6      2.418      7.007
REMARK  5 active torsions:
REMARK  status: ('A' for Active; 'I' for Inactive)
REMARK    1  A    between atoms: C_2  and  O_4 
REMARK    2  A    between atoms: O_4  and  C_5 
REMARK    3  A    between atoms: C_10  and  C_11 
REMARK    4  A    between atoms: C_13  and  N_14 
REMARK    5  A    between atoms: N_14  and  C_15 
ROOT
HETATM    1  C   UNL     1     -43.056  56.831 -51.872  1.00  0.00     0.164 A 
HETATM    2  N   UNL     1     -43.285  56.431 -53.129  1.00  0.00    -0.215 NA
HETATM    3  C   UNL     1     -42.691  55.301 -53.550  1.00  0.00     0.122 A 
HETATM    4  C   UNL     1     -41.787  54.591 -52.735  1.00  0.00     0.033 A 
HETATM    5  C   UNL     1     -41.045  53.444 -53.126  1.00  0.00     0.017 A 
HETATM    6  C   UNL     1     -40.193  52.802 -52.231  1.00  0.00     0.001 A 
HETATM    7  C   UNL     1     -40.068  53.293 -50.939  1.00  0.00     0.002 A 
HETATM    8  C   UNL     1     -40.788  54.429 -50.558  1.00  0.00     0.032 A 
HETATM    9  C   UNL     1     -41.639  55.090 -51.434  1.00  0.00     0.072 A 
HETATM   10  N   UNL     1     -42.276  56.177 -50.996  1.00  0.00    -0.228 NA
ENDROOT
BRANCH   3  11
HETATM   11  N   UNL     1     -42.930  54.853 -54.885  1.00  0.00    -0.243 NA
HETATM   12  H   UNL     1     -43.878  54.485 -54.916  1.00  0.00     0.135 HD
BRANCH  11  13
HETATM   13  C   UNL     1     -42.771  55.638 -56.061  1.00  0.00     0.015 A 
HETATM   14  C   UNL     1     -42.385  56.985 -56.018  1.00  0.00     0.026 A 
HETATM   15  C   UNL     1     -42.321  57.777 -57.171  1.00  0.00     0.034 A 
HETATM   16  C   UNL     1     -42.693  57.176 -58.373  1.00  0.00     0.061 A 
HETATM   17  N   UNL     1     -42.739  57.654 -59.656  1.00  0.00    -0.278 N 
HETATM   18  C   UNL     1     -43.122  55.857 -58.456  1.00  0.00     0.013 A 
HETATM   19  H   UNL     1     -42.492  58.583 -59.977  1.00  0.00     0.189 HD
HETATM   20  N   UNL     1     -43.172  56.757 -60.561  1.00  0.00    -0.186 NA
HETATM   21  C   UNL     1     -43.400  55.664 -59.826  1.00  0.00     0.152 A 
HETATM   22  C   UNL     1     -43.183  55.080 -57.285  1.00  0.00     0.039 A 
ENDBRANCH  11  13
ENDBRANCH   3  11
BRANCH   1  23
HETATM   23  C   UNL     1     -43.741  58.042 -51.398  1.00  0.00     0.046 A 
HETATM   24  C   UNL     1     -43.091  59.281 -51.255  1.00  0.00     0.093 A 
HETATM   25  C   UNL     1     -43.754  60.419 -50.777  1.00  0.00     0.038 A 
HETATM   26  C   UNL     1     -45.108  60.346 -50.465  1.00  0.00     0.003 A 
HETATM   27  C   UNL     1     -45.787  59.138 -50.605  1.00  0.00     0.001 A 
HETATM   28  C   UNL     1     -45.108  58.001 -51.060  1.00  0.00     0.018 A 
BRANCH  24  29
HETATM   29  O   UNL     1     -41.707  59.368 -51.472  1.00  0.00    -0.278 OA
BRANCH  29  30
HETATM   30  C   UNL     1     -41.344  59.576 -52.798  1.00  0.00     0.260 C 
HETATM   31  C   UNL     1     -40.237  58.625 -53.145  1.00  0.00     0.126 C 
HETATM   32  O   UNL     1     -41.792  60.424 -53.561  1.00  0.00    -0.265 OA
ENDBRANCH  29  30
ENDBRANCH  24  29
ENDBRANCH   1  23
TORSDOF 5
ENDMDL
MODEL 6
REMARK VINA RESULT:      -8.4      2.448      5.906
REMARK  5 active torsions:
REMARK  status: ('A' for Active; 'I' for Inactive)
REMARK    1  A    between atoms: C_2  and  O_4 
REMARK    2  A    between atoms: O_4  and  C_5 
REMARK    3  A    between atoms: C_10  and  C_11 
REMARK    4  A    between atoms: C_13  and  N_14 
REMARK    5  A    between atoms: N_14  and  C_15 
ROOT
HETATM    1  C   UNL     1     -41.210  56.691 -52.620  1.00  0.00     0.164 A 
HETATM    2  N   UNL     1     -41.415  56.758 -53.942  1.00  0.00    -0.215 NA
HETATM    3  C   UNL     1     -41.293  55.627 -54.657  1.00  0.00     0.122 A 
HETATM    4  C   UNL     1     -40.882  54.416 -54.066  1.00  0.00     0.033 A 
HETATM    5  C   UNL     1     -40.638  53.199 -54.757  1.00  0.00     0.017 A 
HETATM    6  C   UNL     1     -40.256  52.050 -54.069  1.00  0.00     0.001 A 
HETATM    7  C   UNL     1     -40.111  52.097 -52.690  1.00  0.00     0.002 A 
HETATM    8  C   UNL     1     -40.339  53.298 -52.012  1.00  0.00     0.032 A 
HETATM    9  C   UNL     1     -40.715  54.459 -52.675  1.00  0.00     0.072 A 
HETATM   10  N   UNL     1     -40.896  55.568 -51.955  1.00  0.00    -0.228 NA
ENDROOT
BRANCH   3  11
HETATM   11  N   UNL     1     -41.515  55.678 -56.067  1.00  0.00    -0.243 NA
HETATM   12  H   UNL     1     -41.428  54.727 -56.421  1.00  0.00     0.135 HD
BRANCH  11  13
HETATM   13  C   UNL     1     -42.658  56.235 -56.705  1.00  0.00     0.015 A 
HETATM   14  C   UNL     1     -42.967  55.977 -58.048  1.00  0.00     0.026 A 
HETATM   15  C   UNL     1     -44.040  56.602 -58.696  1.00  0.00     0.034 A 
HETATM   16  C   UNL     1     -44.777  57.525 -57.955  1.00  0.00     0.061 A 
HETATM   17  N   UNL     1     -45.866  58.291 -58.275  1.00  0.00    -0.278 N 
HETATM   18  C   UNL     1     -44.480  57.841 -56.635  1.00  0.00     0.013 A 
HETATM   19  H   UNL     1     -46.361  58.319 -59.159  1.00  0.00     0.189 HD
HETATM   20  N   UNL     1     -46.293  59.084 -57.276  1.00  0.00    -0.186 NA
HETATM   21  C   UNL     1     -45.448  58.804 -56.278  1.00  0.00     0.152 A 
HETATM   22  C   UNL     1     -43.395  57.206 -56.004  1.00  0.00     0.039 A 
ENDBRANCH  11  13
ENDBRANCH   3  11
BRANCH   1  23
HETATM   23  C   UNL     1     -41.387  57.918 -51.831  1.00  0.00     0.046 A 
HETATM   24  C   UNL     1     -42.650  58.468 -51.543  1.00  0.00     0.093 A 
HETATM   25  C   UNL     1     -42.798  59.652 -50.810  1.00  0.00     0.038 A 
HETATM   26  C   UNL     1     -41.670  60.299 -50.312  1.00  0.00     0.003 A 
HETATM   27  C   UNL     1     -40.404  59.777 -50.568  1.00  0.00     0.001 A 
HETATM   28  C   UNL     1     -40.267  58.606 -51.323  1.00  0.00     0.018 A 
BRANCH  24  29
HETATM   29  O   UNL     1     -43.800  57.893 -52.108  1.00  0.00    -0.278 OA
BRANCH  29  30
HETATM   30  C   UNL     1     -44.707  57.390 -51.180  1.00  0.00     0.260 C 
HETATM   31  C   UNL     1     -44.238  56.033 -50.744  1.00  0.00     0.126 C 
HETATM   32  O   UNL     1     -45.749  57.915 -50.808  1.00  0.00    -0.265 OA
ENDBRANCH  29  30
ENDBRANCH  24  29
ENDBRANCH   1  23
TORSDOF 5
ENDMDL
MODEL 7
REMARK VINA RESULT:      -8.4      2.506      5.557
REMARK  5 active torsions:
REMARK  status: ('A' for Active; 'I' for Inactive)
REMARK    1  A    between atoms: C_2  and  O_4 
REMARK    2  A    between atoms: O_4  and  C_5 
REMARK    3  A    between atoms: C_10  and  C_11 
REMARK    4  A    between atoms: C_13  and  N_14 
REMARK    5  A    between atoms: N_14  and  C_15 
ROOT
HETATM    1  C   UNL     1     -42.679  55.431 -56.010  1.00  0.00     0.164 A 
HETATM    2  N   UNL     1     -43.476  55.841 -55.015  1.00  0.00    -0.215 NA
HETATM    3  C   UNL     1     -43.217  55.393 -53.775  1.00  0.00     0.122 A 
HETATM    4  C   UNL     1     -42.195  54.457 -53.522  1.00  0.00     0.033 A 
HETATM    5  C   UNL     1     -41.911  53.861 -52.265  1.00  0.00     0.017 A 
HETATM    6  C   UNL     1     -40.858  52.960 -52.120  1.00  0.00     0.001 A 
HETATM    7  C   UNL     1     -40.078  52.642 -53.223  1.00  0.00     0.002 A 
HETATM    8  C   UNL     1     -40.366  53.218 -54.463  1.00  0.00     0.032 A 
HETATM    9  C   UNL     1     -41.413  54.114 -54.634  1.00  0.00     0.072 A 
HETATM   10  N   UNL     1     -41.631  54.606 -55.855  1.00  0.00    -0.228 NA
ENDROOT
BRANCH   3  11
HETATM   11  N   UNL     1     -44.051  55.826 -52.699  1.00  0.00    -0.243 NA
HETATM   12  H   UNL     1     -44.004  55.112 -51.975  1.00  0.00     0.135 HD
BRANCH  11  13
HETATM   13  C   UNL     1     -43.955  57.077 -52.029  1.00  0.00     0.015 A 
HETATM   14  C   UNL     1     -45.085  57.830 -51.683  1.00  0.00     0.026 A 
HETATM   15  C   UNL     1     -44.983  59.104 -51.108  1.00  0.00     0.034 A 
HETATM   16  C   UNL     1     -43.697  59.612 -50.923  1.00  0.00     0.061 A 
HETATM   17  N   UNL     1     -43.252  60.794 -50.394  1.00  0.00    -0.278 N 
HETATM   18  C   UNL     1     -42.551  58.917 -51.290  1.00  0.00     0.013 A 
HETATM   19  H   UNL     1     -43.811  61.551 -50.018  1.00  0.00     0.189 HD
HETATM   20  N   UNL     1     -41.912  60.927 -50.398  1.00  0.00    -0.186 NA
HETATM   21  C   UNL     1     -41.490  59.781 -50.941  1.00  0.00     0.152 A 
HETATM   22  C   UNL     1     -42.677  57.642 -51.870  1.00  0.00     0.039 A 
ENDBRANCH  11  13
ENDBRANCH   3  11
BRANCH   1  23
HETATM   23  C   UNL     1     -42.934  55.956 -57.359  1.00  0.00     0.046 A 
HETATM   24  C   UNL     1     -42.608  57.269 -57.744  1.00  0.00     0.093 A 
HETATM   25  C   UNL     1     -42.882  57.760 -59.027  1.00  0.00     0.038 A 
HETATM   26  C   UNL     1     -43.461  56.921 -59.975  1.00  0.00     0.003 A 
HETATM   27  C   UNL     1     -43.787  55.611 -59.633  1.00  0.00     0.001 A 
HETATM   28  C   UNL     1     -43.531  55.139 -58.340  1.00  0.00     0.018 A 
BRANCH  24  29
HETATM   29  O   UNL     1     -42.110  58.168 -56.787  1.00  0.00    -0.278 OA
BRANCH  29  30
HETATM   30  C   UNL     1     -42.989  59.190 -56.445  1.00  0.00     0.260 C 
HETATM   31  C   UNL     1     -42.262  60.499 -56.550  1.00  0.00     0.126 C 
HETATM   32  O   UNL     1     -44.146  59.070 -56.063  1.00  0.00    -0.265 OA
ENDBRANCH  29  30
ENDBRANCH  24  29
ENDBRANCH   1  23
TORSDOF 5
ENDMDL
MODEL 8
REMARK VINA RESULT:      -8.4      2.290      5.453
REMARK  5 active torsions:
REMARK  status: ('A' for Active; 'I' for Inactive)
REMARK    1  A    between atoms: C_2  and  O_4 
REMARK    2  A    between atoms: O_4  and  C_5 
REMARK    3  A    between atoms: C_10  and  C_11 
REMARK    4  A    between atoms: C_13  and  N_14 
REMARK    5  A    between atoms: N_14  and  C_15 
ROOT
HETATM    1  C   UNL     1     -41.491  55.317 -53.507  1.00  0.00     0.164 A 
HETATM    2  N   UNL     1     -42.319  55.382 -54.557  1.00  0.00    -0.215 NA
HETATM    3  C   UNL     1     -42.861  56.573 -54.860  1.00  0.00     0.122 A 
HETATM    4  C   UNL     1     -42.643  57.712 -54.060  1.00  0.00     0.033 A 
HETATM    5  C   UNL     1     -43.245  58.985 -54.249  1.00  0.00     0.017 A 
HETATM    6  C   UNL     1     -42.939  60.054 -53.411  1.00  0.00     0.001 A 
HETATM    7  C   UNL     1     -42.034  59.871 -52.375  1.00  0.00     0.002 A 
HETATM    8  C   UNL     1     -41.451  58.615 -52.181  1.00  0.00     0.032 A 
HETATM    9  C   UNL     1     -41.744  57.532 -53.000  1.00  0.00     0.072 A 
HETATM   10  N   UNL     1     -41.157  56.363 -52.735  1.00  0.00    -0.228 NA
ENDROOT
BRANCH   3  11
HETATM   11  N   UNL     1     -43.741  56.664 -55.981  1.00  0.00    -0.243 NA
HETATM   12  H   UNL     1     -44.458  57.349 -55.748  1.00  0.00     0.135 HD
BRANCH  11  13
HETATM   13  C   UNL     1     -43.349  56.940 -57.320  1.00  0.00     0.015 A 
HETATM   14  C   UNL     1     -43.113  55.925 -58.257  1.00  0.00     0.026 A 
HETATM   15  C   UNL     1     -42.638  56.198 -59.546  1.00  0.00     0.034 A 
HETATM   16  C   UNL     1     -42.373  57.533 -59.852  1.00  0.00     0.061 A 
HETATM   17  N   UNL     1     -41.916  58.132 -60.996  1.00  0.00    -0.278 N 
HETATM   18  C   UNL     1     -42.553  58.566 -58.941  1.00  0.00     0.013 A 
HETATM   19  H   UNL     1     -41.680  57.685 -61.874  1.00  0.00     0.189 HD
HETATM   20  N   UNL     1     -41.775  59.467 -60.897  1.00  0.00    -0.186 NA
HETATM   21  C   UNL     1     -42.167  59.727 -59.646  1.00  0.00     0.152 A 
HETATM   22  C   UNL     1     -43.027  58.269 -57.651  1.00  0.00     0.039 A 
ENDBRANCH  11  13
ENDBRANCH   3  11
BRANCH   1  23
HETATM   23  C   UNL     1     -40.862  54.023 -53.202  1.00  0.00     0.046 A 
HETATM   24  C   UNL     1     -40.415  53.674 -51.915  1.00  0.00     0.093 A 
HETATM   25  C   UNL     1     -39.796  52.446 -51.649  1.00  0.00     0.038 A 
HETATM   26  C   UNL     1     -39.644  51.516 -52.673  1.00  0.00     0.003 A 
HETATM   27  C   UNL     1     -40.085  51.823 -53.958  1.00  0.00     0.001 A 
HETATM   28  C   UNL     1     -40.680  53.063 -54.218  1.00  0.00     0.018 A 
BRANCH  24  29
HETATM   29  O   UNL     1     -40.469  54.623 -50.882  1.00  0.00    -0.278 OA
BRANCH  29  30
HETATM   30  C   UNL     1     -41.441  54.372 -49.919  1.00  0.00     0.260 C 
HETATM   31  C   UNL     1     -40.762  54.172 -48.597  1.00  0.00     0.126 C 
HETATM   32  O   UNL     1     -42.648  54.267 -50.101  1.00  0.00    -0.265 OA
ENDBRANCH  29  30
ENDBRANCH  24  29
ENDBRANCH   1  23
TORSDOF 5
ENDMDL
MODEL 9
REMARK VINA RESULT:      -8.3      2.269      6.580
REMARK  5 active torsions:
REMARK  status: ('A' for Active; 'I' for Inactive)
REMARK    1  A    between atoms: C_2  and  O_4 
REMARK    2  A    between atoms: O_4  and  C_5 
REMARK    3  A    between atoms: C_10  and  C_11 
REMARK    4  A    between atoms: C_13  and  N_14 
REMARK    5  A    between atoms: N_14  and  C_15 
ROOT
HETATM    1  C   UNL     1     -43.049  56.444 -52.735  1.00  0.00     0.164 A 
HETATM    2  N   UNL     1     -43.387  56.267 -54.019  1.00  0.00    -0.215 NA
HETATM    3  C   UNL     1     -42.907  55.184 -54.653  1.00  0.00     0.122 A 
HETATM    4  C   UNL     1     -42.010  54.295 -54.029  1.00  0.00     0.033 A 
HETATM    5  C   UNL     1     -41.383  53.181 -54.648  1.00  0.00     0.017 A 
HETATM    6  C   UNL     1     -40.526  52.350 -53.929  1.00  0.00     0.001 A 
HETATM    7  C   UNL     1     -40.282  52.618 -52.590  1.00  0.00     0.002 A 
HETATM    8  C   UNL     1     -40.889  53.722 -51.984  1.00  0.00     0.032 A 
HETATM    9  C   UNL     1     -41.742  54.568 -52.681  1.00  0.00     0.072 A 
HETATM   10  N   UNL     1     -42.267  55.610 -52.033  1.00  0.00    -0.228 NA
ENDROOT
BRANCH   3  11
HETATM   11  N   UNL     1     -43.263  54.973 -56.020  1.00  0.00    -0.243 NA
HETATM   12  H   UNL     1     -44.250  54.722 -56.041  1.00  0.00     0.135 HD
BRANCH  11  13
HETATM   13  C   UNL     1     -43.069  55.904 -57.079  1.00  0.00     0.015 A 
HETATM   14  C   UNL     1     -43.154  55.533 -58.428  1.00  0.00     0.026 A 
HETATM   15  C   UNL     1     -42.871  56.432 -59.465  1.00  0.00     0.034 A 
HETATM   16  C   UNL     1     -42.463  57.714 -59.096  1.00  0.00     0.061 A 
HETATM   17  N   UNL     1     -42.123  58.811 -59.842  1.00  0.00    -0.278 N 
HETATM   18  C   UNL     1     -42.326  58.110 -57.772  1.00  0.00     0.013 A 
HETATM   19  H   UNL     1     -42.111  58.891 -60.852  1.00  0.00     0.189 HD
HETATM   20  N   UNL     1     -41.766  59.883 -59.110  1.00  0.00    -0.186 NA
HETATM   21  C   UNL     1     -41.894  59.453 -57.851  1.00  0.00     0.152 A 
HETATM   22  C   UNL     1     -42.611  57.191 -56.747  1.00  0.00     0.039 A 
ENDBRANCH  11  13
ENDBRANCH   3  11
BRANCH   1  23
HETATM   23  C   UNL     1     -43.609  57.605 -52.028  1.00  0.00     0.046 A 
HETATM   24  C   UNL     1     -42.839  58.726 -51.669  1.00  0.00     0.093 A 
HETATM   25  C   UNL     1     -43.384  59.813 -50.973  1.00  0.00     0.038 A 
HETATM   26  C   UNL     1     -44.739  59.814 -50.652  1.00  0.00     0.003 A 
HETATM   27  C   UNL     1     -45.534  58.726 -51.002  1.00  0.00     0.001 A 
HETATM   28  C   UNL     1     -44.973  57.634 -51.676  1.00  0.00     0.018 A 
BRANCH  24  29
HETATM   29  O   UNL     1     -41.453  58.717 -51.894  1.00  0.00    -0.278 OA
BRANCH  29  30
HETATM   30  C   UNL     1     -40.687  58.489 -50.756  1.00  0.00     0.260 C 
HETATM   31  C   UNL     1     -39.624  59.545 -50.678  1.00  0.00     0.126 C 
HETATM   32  O   UNL     1     -40.798  57.560 -49.965  1.00  0.00    -0.265 OA
ENDBRANCH  29  30
ENDBRANCH  24  29
ENDBRANCH   1  23
TORSDOF 5
ENDMDL
MODEL 10
REMARK VINA RESULT:      -8.3      2.397      6.465
REMARK  5 active torsions:
REMARK  status: ('A' for Active; 'I' for Inactive)
REMARK    1  A    between atoms: C_2  and  O_4 
REMARK    2  A    between atoms: O_4  and  C_5 
REMARK    3  A    between atoms: C_10  and  C_11 
REMARK    4  A    between atoms: C_13  and  N_14 
REMARK    5  A    between atoms: N_14  and  C_15 
ROOT
HETATM    1  C   UNL     1     -41.771  56.788 -52.576  1.00  0.00     0.164 A 
HETATM    2  N   UNL     1     -42.555  56.775 -53.661  1.00  0.00    -0.215 NA
HETATM    3  C   UNL     1     -42.646  55.630 -54.360  1.00  0.00     0.122 A 
HETATM    4  C   UNL     1     -41.882  54.495 -54.025  1.00  0.00     0.033 A 
HETATM    5  C   UNL     1     -41.843  53.278 -54.757  1.00  0.00     0.017 A 
HETATM    6  C   UNL     1     -41.069  52.205 -54.322  1.00  0.00     0.001 A 
HETATM    7  C   UNL     1     -40.324  52.330 -53.159  1.00  0.00     0.002 A 
HETATM    8  C   UNL     1     -40.352  53.531 -52.445  1.00  0.00     0.032 A 
HETATM    9  C   UNL     1     -41.112  54.617 -52.861  1.00  0.00     0.072 A 
HETATM   10  N   UNL     1     -41.069  55.734 -52.132  1.00  0.00    -0.228 NA
ENDROOT
BRANCH   3  11
HETATM   11  N   UNL     1     -43.484  55.594 -55.516  1.00  0.00    -0.243 NA
HETATM   12  H   UNL     1     -44.403  55.927 -55.233  1.00  0.00     0.135 HD
BRANCH  11  13
HETATM   13  C   UNL     1     -43.202  56.219 -56.763  1.00  0.00     0.015 A 
HETATM   14  C   UNL     1     -43.123  55.498 -57.962  1.00  0.00     0.026 A 
HETATM   15  C   UNL     1     -42.754  56.103 -59.170  1.00  0.00     0.034 A 
HETATM   16  C   UNL     1     -42.431  57.460 -59.125  1.00  0.00     0.061 A 
HETATM   17  N   UNL     1     -42.045  58.337 -60.103  1.00  0.00    -0.278 N 
HETATM   18  C   UNL     1     -42.456  58.202 -57.951  1.00  0.00     0.013 A 
HETATM   19  H   UNL     1     -41.922  58.145 -61.090  1.00  0.00     0.189 HD
HETATM   20  N   UNL     1     -41.807  59.584 -59.658  1.00  0.00    -0.186 NA
HETATM   21  C   UNL     1     -42.062  59.498 -58.349  1.00  0.00     0.152 A 
HETATM   22  C   UNL     1     -42.825  57.574 -56.749  1.00  0.00     0.039 A 
ENDBRANCH  11  13
ENDBRANCH   3  11
BRANCH   1  23
HETATM   23  C   UNL     1     -41.707  58.027 -51.786  1.00  0.00     0.046 A 
HETATM   24  C   UNL     1     -42.838  58.813 -51.502  1.00  0.00     0.093 A 
HETATM   25  C   UNL     1     -42.754  60.003 -50.769  1.00  0.00     0.038 A 
HETATM   26  C   UNL     1     -41.524  60.416 -50.267  1.00  0.00     0.003 A 
HETATM   27  C   UNL     1     -40.383  59.657 -50.519  1.00  0.00     0.001 A 
HETATM   28  C   UNL     1     -40.475  58.482 -51.274  1.00  0.00     0.018 A 
BRANCH  24  29
HETATM   29  O   UNL     1     -44.077  58.475 -52.072  1.00  0.00    -0.278 OA
BRANCH  29  30
HETATM   30  C   UNL     1     -45.016  57.997 -51.164  1.00  0.00     0.260 C 
HETATM   31  C   UNL     1     -46.036  59.071 -50.923  1.00  0.00     0.126 C 
HETATM   32  O   UNL     1     -45.007  56.912 -50.595  1.00  0.00    -0.265 OA
ENDBRANCH  29  30
ENDBRANCH  24  29
ENDBRANCH   1  23
TORSDOF 5
ENDMDL
