MODEL 1
REMARK VINA RESULT:      -7.9      0.000      0.000
REMARK  5 active torsions:
REMARK  status: ('A' for Active; 'I' for Inactive)
REMARK    1  A    between atoms: O_2  and  C_3 
REMARK    2  A    between atoms: C_5  and  C_6 
REMARK    3  A    between atoms: C_12  and  C_13 
REMARK    4  A    between atoms: C_15  and  O_16 
REMARK    5  A    between atoms: C_18  and  O_19 
ROOT
HETATM    1  C   UNL     1     -40.983  54.207 -53.590  1.00  0.00     0.098 A 
HETATM    2  N   UNL     1     -40.014  53.963 -54.508  1.00  0.00    -0.173 NA
HETATM    3  N   UNL     1     -40.537  54.343 -55.698  1.00  0.00    -0.272 N 
HETATM    4  H   UNL     1     -39.978  54.241 -56.540  1.00  0.00     0.189 HD
HETATM    5  C   UNL     1     -41.780  54.824 -55.555  1.00  0.00     0.128 A 
HETATM    6  C   UNL     1     -42.102  54.769 -54.229  1.00  0.00     0.034 A 
HETATM    7  C   UNL     1     -43.466  55.296 -54.023  1.00  0.00     0.156 A 
HETATM    8  N   UNL     1     -43.817  55.643 -55.413  1.00  0.00    -0.343 N 
HETATM    9  C   UNL     1     -42.818  55.369 -56.341  1.00  0.00     0.271 A 
HETATM   10  O   UNL     1     -42.846  55.575 -57.540  1.00  0.00    -0.266 OA
HETATM   11  H   UNL     1     -44.686  56.075 -55.688  1.00  0.00     0.163 HD
ENDROOT
BRANCH   7  12
HETATM   12  C   UNL     1     -43.392  56.502 -53.118  1.00  0.00    -0.028 A 
HETATM   13  C   UNL     1     -42.676  57.668 -53.467  1.00  0.00     0.049 A 
HETATM   14  C   UNL     1     -42.637  58.771 -52.611  1.00  0.00     0.101 A 
HETATM   15  C   UNL     1     -43.327  58.704 -51.397  1.00  0.00     0.099 A 
HETATM   16  C   UNL     1     -44.041  57.574 -51.028  1.00  0.00     0.040 A 
HETATM   17  C   UNL     1     -44.074  56.476 -51.887  1.00  0.00     0.012 A 
BRANCH  14  18
HETATM   18  O   UNL     1     -41.980  59.952 -52.839  1.00  0.00    -0.353 OA
HETATM   19  C   UNL     1     -42.478  60.766 -53.895  1.00  0.00     0.210 C 
ENDBRANCH  14  18
BRANCH  15  20
HETATM   20  O   UNL     1     -43.313  59.769 -50.537  1.00  0.00    -0.358 OA
HETATM   21  H   UNL     1     -44.152  59.700 -50.040  1.00  0.00     0.218 HD
ENDBRANCH  15  20
ENDBRANCH   7  12
BRANCH   1  22
HETATM   22  C   UNL     1     -40.783  53.901 -52.175  1.00  0.00    -0.002 A 
HETATM   23  C   UNL     1     -40.599  52.572 -51.760  1.00  0.00     0.050 A 
HETATM   24  C   UNL     1     -40.400  52.253 -50.413  1.00  0.00     0.069 A 
HETATM   25  C   UNL     1     -40.386  53.276 -49.464  1.00  0.00     0.037 A 
HETATM   26  C   UNL     1     -40.579  54.601 -49.861  1.00  0.00     0.004 A 
HETATM   27  C   UNL     1     -40.781  54.912 -51.207  1.00  0.00     0.014 A 
BRANCH  24  28
HETATM   28  O   UNL     1     -40.234  50.919 -50.159  1.00  0.00    -0.356 OA
HETATM   29  C   UNL     1     -39.479  50.172 -51.105  1.00  0.00     0.210 C 
ENDBRANCH  24  28
ENDBRANCH   1  22
TORSDOF 5
ENDMDL
MODEL 2
REMARK VINA RESULT:      -7.6      2.666      4.532
REMARK  5 active torsions:
REMARK  status: ('A' for Active; 'I' for Inactive)
REMARK    1  A    between atoms: O_2  and  C_3 
REMARK    2  A    between atoms: C_5  and  C_6 
REMARK    3  A    between atoms: C_12  and  C_13 
REMARK    4  A    between atoms: C_15  and  O_16 
REMARK    5  A    between atoms: C_18  and  O_19 
ROOT
HETATM    1  C   UNL     1     -41.314  55.753 -51.731  1.00  0.00     0.098 A 
HETATM    2  N   UNL     1     -41.321  55.544 -50.390  1.00  0.00    -0.173 NA
HETATM    3  N   UNL     1     -41.286  56.778 -49.831  1.00  0.00    -0.272 N 
HETATM    4  H   UNL     1     -41.278  56.862 -48.818  1.00  0.00     0.189 HD
HETATM    5  C   UNL     1     -41.272  57.738 -50.765  1.00  0.00     0.128 A 
HETATM    6  C   UNL     1     -41.301  57.134 -51.989  1.00  0.00     0.034 A 
HETATM    7  C   UNL     1     -41.293  58.159 -53.053  1.00  0.00     0.156 A 
HETATM    8  N   UNL     1     -41.263  59.382 -52.228  1.00  0.00    -0.343 N 
HETATM    9  C   UNL     1     -41.253  59.147 -50.857  1.00  0.00     0.271 A 
HETATM   10  O   UNL     1     -41.247  59.975 -49.966  1.00  0.00    -0.266 OA
HETATM   11  H   UNL     1     -41.282  60.319 -52.601  1.00  0.00     0.163 HD
ENDROOT
BRANCH   7  12
HETATM   12  C   UNL     1     -42.558  58.031 -53.865  1.00  0.00    -0.028 A 
HETATM   13  C   UNL     1     -42.543  57.807 -55.261  1.00  0.00     0.049 A 
HETATM   14  C   UNL     1     -43.733  57.681 -55.980  1.00  0.00     0.101 A 
HETATM   15  C   UNL     1     -44.947  57.777 -55.294  1.00  0.00     0.099 A 
HETATM   16  C   UNL     1     -44.994  57.994 -53.925  1.00  0.00     0.040 A 
HETATM   17  C   UNL     1     -43.801  58.120 -53.213  1.00  0.00     0.012 A 
BRANCH  14  18
HETATM   18  O   UNL     1     -43.846  57.463 -57.329  1.00  0.00    -0.353 OA
HETATM   19  C   UNL     1     -43.251  56.273 -57.835  1.00  0.00     0.210 C 
ENDBRANCH  14  18
BRANCH  15  20
HETATM   20  O   UNL     1     -46.132  57.655 -55.969  1.00  0.00    -0.358 OA
HETATM   21  H   UNL     1     -45.905  57.166 -56.785  1.00  0.00     0.218 HD
ENDBRANCH  15  20
ENDBRANCH   7  12
BRANCH   1  22
HETATM   22  C   UNL     1     -41.327  54.635 -52.673  1.00  0.00    -0.002 A 
HETATM   23  C   UNL     1     -40.420  53.574 -52.521  1.00  0.00     0.050 A 
HETATM   24  C   UNL     1     -40.416  52.491 -53.406  1.00  0.00     0.069 A 
HETATM   25  C   UNL     1     -41.330  52.467 -54.459  1.00  0.00     0.037 A 
HETATM   26  C   UNL     1     -42.230  53.520 -54.629  1.00  0.00     0.004 A 
HETATM   27  C   UNL     1     -42.227  54.601 -53.745  1.00  0.00     0.014 A 
BRANCH  24  28
HETATM   28  O   UNL     1     -39.479  51.532 -53.132  1.00  0.00    -0.356 OA
HETATM   29  C   UNL     1     -39.525  50.346 -53.914  1.00  0.00     0.210 C 
ENDBRANCH  24  28
ENDBRANCH   1  22
TORSDOF 5
ENDMDL
MODEL 3
REMARK VINA RESULT:      -7.3      1.445      1.765
REMARK  5 active torsions:
REMARK  status: ('A' for Active; 'I' for Inactive)
REMARK    1  A    between atoms: O_2  and  C_3 
REMARK    2  A    between atoms: C_5  and  C_6 
REMARK    3  A    between atoms: C_12  and  C_13 
REMARK    4  A    between atoms: C_15  and  O_16 
REMARK    5  A    between atoms: C_18  and  O_19 
ROOT
HETATM    1  C   UNL     1     -42.126  54.984 -54.592  1.00  0.00     0.098 A 
HETATM    2  N   UNL     1     -41.362  54.774 -55.694  1.00  0.00    -0.173 NA
HETATM    3  N   UNL     1     -41.938  55.503 -56.680  1.00  0.00    -0.272 N 
HETATM    4  H   UNL     1     -41.529  55.488 -57.609  1.00  0.00     0.189 HD
HETATM    5  C   UNL     1     -43.014  56.164 -56.233  1.00  0.00     0.128 A 
HETATM    6  C   UNL     1     -43.166  55.875 -54.908  1.00  0.00     0.034 A 
HETATM    7  C   UNL     1     -44.342  56.590 -54.371  1.00  0.00     0.156 A 
HETATM    8  N   UNL     1     -44.784  57.300 -55.586  1.00  0.00    -0.343 N 
HETATM    9  C   UNL     1     -43.999  57.058 -56.708  1.00  0.00     0.271 A 
HETATM   10  O   UNL     1     -44.136  57.529 -57.822  1.00  0.00    -0.266 OA
HETATM   11  H   UNL     1     -45.565  57.938 -55.618  1.00  0.00     0.163 HD
ENDROOT
BRANCH   7  12
HETATM   12  C   UNL     1     -43.887  57.526 -53.278  1.00  0.00    -0.028 A 
HETATM   13  C   UNL     1     -42.639  58.188 -53.317  1.00  0.00     0.049 A 
HETATM   14  C   UNL     1     -42.254  59.056 -52.294  1.00  0.00     0.101 A 
HETATM   15  C   UNL     1     -43.130  59.266 -51.225  1.00  0.00     0.099 A 
HETATM   16  C   UNL     1     -44.362  58.632 -51.159  1.00  0.00     0.040 A 
HETATM   17  C   UNL     1     -44.739  57.765 -52.184  1.00  0.00     0.012 A 
BRANCH  14  18
HETATM   18  O   UNL     1     -41.076  59.753 -52.222  1.00  0.00    -0.353 OA
HETATM   19  C   UNL     1     -39.928  59.023 -51.801  1.00  0.00     0.210 C 
ENDBRANCH  14  18
BRANCH  15  20
HETATM   20  O   UNL     1     -42.785  60.114 -50.208  1.00  0.00    -0.358 OA
HETATM   21  H   UNL     1     -42.496  60.935 -50.653  1.00  0.00     0.218 HD
ENDBRANCH  15  20
ENDBRANCH   7  12
BRANCH   1  22
HETATM   22  C   UNL     1     -41.817  54.336 -53.319  1.00  0.00    -0.002 A 
HETATM   23  C   UNL     1     -40.747  53.432 -53.229  1.00  0.00     0.050 A 
HETATM   24  C   UNL     1     -40.427  52.803 -52.021  1.00  0.00     0.069 A 
HETATM   25  C   UNL     1     -41.189  53.079 -50.886  1.00  0.00     0.037 A 
HETATM   26  C   UNL     1     -42.264  53.967 -50.963  1.00  0.00     0.004 A 
HETATM   27  C   UNL     1     -42.580  54.589 -52.173  1.00  0.00     0.014 A 
BRANCH  24  28
HETATM   28  O   UNL     1     -39.359  51.951 -52.085  1.00  0.00    -0.356 OA
HETATM   29  C   UNL     1     -39.491  50.701 -51.419  1.00  0.00     0.210 C 
ENDBRANCH  24  28
ENDBRANCH   1  22
TORSDOF 5
ENDMDL
MODEL 4
REMARK VINA RESULT:      -7.1      2.933      4.751
REMARK  5 active torsions:
REMARK  status: ('A' for Active; 'I' for Inactive)
REMARK    1  A    between atoms: O_2  and  C_3 
REMARK    2  A    between atoms: C_5  and  C_6 
REMARK    3  A    between atoms: C_12  and  C_13 
REMARK    4  A    between atoms: C_15  and  O_16 
REMARK    5  A    between atoms: C_18  and  O_19 
ROOT
HETATM    1  C   UNL     1     -42.971  55.566 -52.331  1.00  0.00     0.098 A 
HETATM    2  N   UNL     1     -43.604  54.847 -51.371  1.00  0.00    -0.173 NA
HETATM    3  N   UNL     1     -44.409  55.728 -50.728  1.00  0.00    -0.272 N 
HETATM    4  H   UNL     1     -44.981  55.403 -49.955  1.00  0.00     0.189 HD
HETATM    5  C   UNL     1     -44.311  56.955 -51.258  1.00  0.00     0.128 A 
HETATM    6  C   UNL     1     -43.417  56.899 -52.288  1.00  0.00     0.034 A 
HETATM    7  C   UNL     1     -43.281  58.233 -52.907  1.00  0.00     0.156 A 
HETATM    8  N   UNL     1     -44.227  58.997 -52.072  1.00  0.00    -0.343 N 
HETATM    9  C   UNL     1     -44.853  58.247 -51.082  1.00  0.00     0.271 A 
HETATM   10  O   UNL     1     -45.682  58.629 -50.278  1.00  0.00    -0.266 OA
HETATM   11  H   UNL     1     -44.444  59.973 -52.208  1.00  0.00     0.163 HD
ENDROOT
BRANCH   7  12
HETATM   12  C   UNL     1     -43.711  58.148 -54.351  1.00  0.00    -0.028 A 
HETATM   13  C   UNL     1     -42.785  58.153 -55.419  1.00  0.00     0.049 A 
HETATM   14  C   UNL     1     -43.216  58.061 -56.744  1.00  0.00     0.101 A 
HETATM   15  C   UNL     1     -44.587  57.959 -56.999  1.00  0.00     0.099 A 
HETATM   16  C   UNL     1     -45.519  57.949 -55.972  1.00  0.00     0.040 A 
HETATM   17  C   UNL     1     -45.081  58.043 -54.652  1.00  0.00     0.012 A 
BRANCH  14  18
HETATM   18  O   UNL     1     -42.417  58.055 -57.858  1.00  0.00    -0.353 OA
HETATM   19  C   UNL     1     -41.831  59.298 -58.229  1.00  0.00     0.210 C 
ENDBRANCH  14  18
BRANCH  15  20
HETATM   20  O   UNL     1     -45.042  57.863 -58.286  1.00  0.00    -0.358 OA
HETATM   21  H   UNL     1     -44.598  58.592 -58.764  1.00  0.00     0.218 HD
ENDBRANCH  15  20
ENDBRANCH   7  12
BRANCH   1  22
HETATM   22  C   UNL     1     -41.995  54.946 -53.225  1.00  0.00    -0.002 A 
HETATM   23  C   UNL     1     -41.996  53.554 -53.412  1.00  0.00     0.050 A 
HETATM   24  C   UNL     1     -41.077  52.937 -54.267  1.00  0.00     0.069 A 
HETATM   25  C   UNL     1     -40.142  53.720 -54.944  1.00  0.00     0.037 A 
HETATM   26  C   UNL     1     -40.122  55.104 -54.759  1.00  0.00     0.004 A 
HETATM   27  C   UNL     1     -41.040  55.714 -53.901  1.00  0.00     0.014 A 
BRANCH  24  28
HETATM   28  O   UNL     1     -41.198  51.577 -54.351  1.00  0.00    -0.356 OA
HETATM   29  C   UNL     1     -39.996  50.818 -54.302  1.00  0.00     0.210 C 
ENDBRANCH  24  28
ENDBRANCH   1  22
TORSDOF 5
ENDMDL
MODEL 5
REMARK VINA RESULT:      -7.1      2.649      4.448
REMARK  5 active torsions:
REMARK  status: ('A' for Active; 'I' for Inactive)
REMARK    1  A    between atoms: O_2  and  C_3 
REMARK    2  A    between atoms: C_5  and  C_6 
REMARK    3  A    between atoms: C_12  and  C_13 
REMARK    4  A    between atoms: C_15  and  O_16 
REMARK    5  A    between atoms: C_18  and  O_19 
ROOT
HETATM    1  C   UNL     1     -41.277  55.606 -51.652  1.00  0.00     0.098 A 
HETATM    2  N   UNL     1     -41.576  55.508 -50.332  1.00  0.00    -0.173 NA
HETATM    3  N   UNL     1     -41.579  56.780 -49.865  1.00  0.00    -0.272 N 
HETATM    4  H   UNL     1     -41.775  56.946 -48.883  1.00  0.00     0.189 HD
HETATM    5  C   UNL     1     -41.308  57.659 -50.840  1.00  0.00     0.128 A 
HETATM    6  C   UNL     1     -41.121  56.959 -51.997  1.00  0.00     0.034 A 
HETATM    7  C   UNL     1     -40.825  57.892 -53.104  1.00  0.00     0.156 A 
HETATM    8  N   UNL     1     -40.889  59.175 -52.378  1.00  0.00    -0.343 N 
HETATM    9  C   UNL     1     -41.179  59.053 -51.023  1.00  0.00     0.271 A 
HETATM   10  O   UNL     1     -41.305  59.949 -50.211  1.00  0.00    -0.266 OA
HETATM   11  H   UNL     1     -40.769  60.078 -52.811  1.00  0.00     0.163 HD
ENDROOT
BRANCH   7  12
HETATM   12  C   UNL     1     -41.899  57.759 -54.155  1.00  0.00    -0.028 A 
HETATM   13  C   UNL     1     -43.158  58.389 -54.036  1.00  0.00     0.049 A 
HETATM   14  C   UNL     1     -44.126  58.254 -55.034  1.00  0.00     0.101 A 
HETATM   15  C   UNL     1     -43.826  57.485 -56.162  1.00  0.00     0.099 A 
HETATM   16  C   UNL     1     -42.599  56.856 -56.308  1.00  0.00     0.040 A 
HETATM   17  C   UNL     1     -41.638  56.994 -55.307  1.00  0.00     0.012 A 
BRANCH  14  18
HETATM   18  O   UNL     1     -45.377  58.815 -55.031  1.00  0.00    -0.353 OA
HETATM   19  C   UNL     1     -45.440  60.233 -55.140  1.00  0.00     0.210 C 
ENDBRANCH  14  18
BRANCH  15  20
HETATM   20  O   UNL     1     -44.751  57.336 -57.160  1.00  0.00    -0.358 OA
HETATM   21  H   UNL     1     -44.777  56.375 -57.336  1.00  0.00     0.218 HD
ENDBRANCH  15  20
ENDBRANCH   7  12
BRANCH   1  22
HETATM   22  C   UNL     1     -41.165  54.417 -52.495  1.00  0.00    -0.002 A 
HETATM   23  C   UNL     1     -40.291  53.378 -52.138  1.00  0.00     0.050 A 
HETATM   24  C   UNL     1     -40.170  52.229 -52.925  1.00  0.00     0.069 A 
HETATM   25  C   UNL     1     -40.933  52.113 -54.087  1.00  0.00     0.037 A 
HETATM   26  C   UNL     1     -41.799  53.144 -54.460  1.00  0.00     0.004 A 
HETATM   27  C   UNL     1     -41.912  54.291 -53.673  1.00  0.00     0.014 A 
BRANCH  24  28
HETATM   28  O   UNL     1     -39.282  51.302 -52.452  1.00  0.00    -0.356 OA
HETATM   29  C   UNL     1     -39.572  49.936 -52.719  1.00  0.00     0.210 C 
ENDBRANCH  24  28
ENDBRANCH   1  22
TORSDOF 5
ENDMDL
MODEL 6
REMARK VINA RESULT:      -7.0      1.847      2.534
REMARK  5 active torsions:
REMARK  status: ('A' for Active; 'I' for Inactive)
REMARK    1  A    between atoms: O_2  and  C_3 
REMARK    2  A    between atoms: C_5  and  C_6 
REMARK    3  A    between atoms: C_12  and  C_13 
REMARK    4  A    between atoms: C_15  and  O_16 
REMARK    5  A    between atoms: C_18  and  O_19 
ROOT
HETATM    1  C   UNL     1     -42.080  55.025 -54.566  1.00  0.00     0.098 A 
HETATM    2  N   UNL     1     -41.778  54.541 -55.796  1.00  0.00    -0.173 NA
HETATM    3  N   UNL     1     -42.311  55.423 -56.676  1.00  0.00    -0.272 N 
HETATM    4  H   UNL     1     -42.209  55.251 -57.672  1.00  0.00     0.189 HD
HETATM    5  C   UNL     1     -42.917  56.437 -56.043  1.00  0.00     0.128 A 
HETATM    6  C   UNL     1     -42.785  56.234 -54.700  1.00  0.00     0.034 A 
HETATM    7  C   UNL     1     -43.436  57.335 -53.961  1.00  0.00     0.156 A 
HETATM    8  N   UNL     1     -43.920  58.149 -55.093  1.00  0.00    -0.343 N 
HETATM    9  C   UNL     1     -43.616  57.626 -56.345  1.00  0.00     0.271 A 
HETATM   10  O   UNL     1     -43.883  58.106 -57.431  1.00  0.00    -0.266 OA
HETATM   11  H   UNL     1     -44.404  59.029 -54.993  1.00  0.00     0.163 HD
ENDROOT
BRANCH   7  12
HETATM   12  C   UNL     1     -42.397  58.047 -53.130  1.00  0.00    -0.028 A 
HETATM   13  C   UNL     1     -42.727  58.773 -51.964  1.00  0.00     0.049 A 
HETATM   14  C   UNL     1     -41.738  59.411 -51.211  1.00  0.00     0.101 A 
HETATM   15  C   UNL     1     -40.408  59.315 -51.630  1.00  0.00     0.099 A 
HETATM   16  C   UNL     1     -40.053  58.608 -52.769  1.00  0.00     0.040 A 
HETATM   17  C   UNL     1     -41.046  57.975 -53.516  1.00  0.00     0.012 A 
BRANCH  14  18
HETATM   18  O   UNL     1     -41.934  60.141 -50.068  1.00  0.00    -0.353 OA
HETATM   19  C   UNL     1     -43.103  60.952 -50.020  1.00  0.00     0.210 C 
ENDBRANCH  14  18
BRANCH  15  20
HETATM   20  O   UNL     1     -39.414  59.925 -50.913  1.00  0.00    -0.358 OA
HETATM   21  H   UNL     1     -39.852  60.679 -50.470  1.00  0.00     0.218 HD
ENDBRANCH  15  20
ENDBRANCH   7  12
BRANCH   1  22
HETATM   22  C   UNL     1     -41.678  54.319 -53.351  1.00  0.00    -0.002 A 
HETATM   23  C   UNL     1     -40.689  53.324 -53.409  1.00  0.00     0.050 A 
HETATM   24  C   UNL     1     -40.282  52.638 -52.261  1.00  0.00     0.069 A 
HETATM   25  C   UNL     1     -40.872  52.948 -51.035  1.00  0.00     0.037 A 
HETATM   26  C   UNL     1     -41.864  53.928 -50.964  1.00  0.00     0.004 A 
HETATM   27  C   UNL     1     -42.269  54.606 -52.116  1.00  0.00     0.014 A 
BRANCH  24  28
HETATM   28  O   UNL     1     -39.309  51.699 -52.469  1.00  0.00    -0.356 OA
HETATM   29  C   UNL     1     -39.539  50.752 -53.505  1.00  0.00     0.210 C 
ENDBRANCH  24  28
ENDBRANCH   1  22
TORSDOF 5
ENDMDL
MODEL 7
REMARK VINA RESULT:      -6.9      2.394      3.756
REMARK  5 active torsions:
REMARK  status: ('A' for Active; 'I' for Inactive)
REMARK    1  A    between atoms: O_2  and  C_3 
REMARK    2  A    between atoms: C_5  and  C_6 
REMARK    3  A    between atoms: C_12  and  C_13 
REMARK    4  A    between atoms: C_15  and  O_16 
REMARK    5  A    between atoms: C_18  and  O_19 
ROOT
HETATM    1  C   UNL     1     -43.058  55.879 -55.696  1.00  0.00     0.098 A 
HETATM    2  N   UNL     1     -43.046  55.888 -57.052  1.00  0.00    -0.173 NA
HETATM    3  N   UNL     1     -43.923  56.854 -57.417  1.00  0.00    -0.272 N 
HETATM    4  H   UNL     1     -44.080  57.033 -58.404  1.00  0.00     0.189 HD
HETATM    5  C   UNL     1     -44.465  57.451 -56.346  1.00  0.00     0.128 A 
HETATM    6  C   UNL     1     -43.936  56.872 -55.229  1.00  0.00     0.034 A 
HETATM    7  C   UNL     1     -44.504  57.505 -54.021  1.00  0.00     0.156 A 
HETATM    8  N   UNL     1     -45.396  58.498 -54.650  1.00  0.00    -0.343 N 
HETATM    9  C   UNL     1     -45.382  58.481 -56.040  1.00  0.00     0.271 A 
HETATM   10  O   UNL     1     -46.007  59.202 -56.795  1.00  0.00    -0.266 OA
HETATM   11  H   UNL     1     -45.951  59.167 -54.138  1.00  0.00     0.163 HD
ENDROOT
BRANCH   7  12
HETATM   12  C   UNL     1     -43.386  58.139 -53.230  1.00  0.00    -0.028 A 
HETATM   13  C   UNL     1     -42.863  57.554 -52.055  1.00  0.00     0.049 A 
HETATM   14  C   UNL     1     -41.820  58.162 -51.353  1.00  0.00     0.101 A 
HETATM   15  C   UNL     1     -41.294  59.364 -51.837  1.00  0.00     0.099 A 
HETATM   16  C   UNL     1     -41.786  59.961 -52.988  1.00  0.00     0.040 A 
HETATM   17  C   UNL     1     -42.828  59.349 -53.683  1.00  0.00     0.012 A 
BRANCH  14  18
HETATM   18  O   UNL     1     -41.232  57.692 -50.207  1.00  0.00    -0.353 OA
HETATM   19  C   UNL     1     -40.982  56.292 -50.146  1.00  0.00     0.210 C 
ENDBRANCH  14  18
BRANCH  15  20
HETATM   20  O   UNL     1     -40.269  59.983 -51.175  1.00  0.00    -0.358 OA
HETATM   21  H   UNL     1     -39.471  59.776 -51.700  1.00  0.00     0.218 HD
ENDBRANCH  15  20
ENDBRANCH   7  12
BRANCH   1  22
HETATM   22  C   UNL     1     -42.236  54.940 -54.935  1.00  0.00    -0.002 A 
HETATM   23  C   UNL     1     -42.619  54.556 -53.640  1.00  0.00     0.050 A 
HETATM   24  C   UNL     1     -41.853  53.655 -52.894  1.00  0.00     0.069 A 
HETATM   25  C   UNL     1     -40.686  53.129 -53.447  1.00  0.00     0.037 A 
HETATM   26  C   UNL     1     -40.287  53.510 -54.730  1.00  0.00     0.004 A 
HETATM   27  C   UNL     1     -41.054  54.414 -55.469  1.00  0.00     0.014 A 
BRANCH  24  28
HETATM   28  O   UNL     1     -42.351  53.373 -51.651  1.00  0.00    -0.356 OA
HETATM   29  C   UNL     1     -43.611  53.940 -51.317  1.00  0.00     0.210 C 
ENDBRANCH  24  28
ENDBRANCH   1  22
TORSDOF 5
ENDMDL
MODEL 8
REMARK VINA RESULT:      -6.9      1.553      2.715
REMARK  5 active torsions:
REMARK  status: ('A' for Active; 'I' for Inactive)
REMARK    1  A    between atoms: O_2  and  C_3 
REMARK    2  A    between atoms: C_5  and  C_6 
REMARK    3  A    between atoms: C_12  and  C_13 
REMARK    4  A    between atoms: C_15  and  O_16 
REMARK    5  A    between atoms: C_18  and  O_19 
ROOT
HETATM    1  C   UNL     1     -41.162  54.532 -53.740  1.00  0.00     0.098 A 
HETATM    2  N   UNL     1     -40.235  54.034 -54.595  1.00  0.00    -0.173 NA
HETATM    3  N   UNL     1     -40.715  54.283 -55.838  1.00  0.00    -0.272 N 
HETATM    4  H   UNL     1     -40.176  53.984 -56.645  1.00  0.00     0.189 HD
HETATM    5  C   UNL     1     -41.890  54.925 -55.788  1.00  0.00     0.128 A 
HETATM    6  C   UNL     1     -42.209  55.116 -54.474  1.00  0.00     0.034 A 
HETATM    7  C   UNL     1     -43.499  55.829 -54.371  1.00  0.00     0.156 A 
HETATM    8  N   UNL     1     -43.813  55.994 -55.804  1.00  0.00    -0.343 N 
HETATM    9  C   UNL     1     -42.859  55.461 -56.664  1.00  0.00     0.271 A 
HETATM   10  O   UNL     1     -42.868  55.479 -57.880  1.00  0.00    -0.266 OA
HETATM   11  H   UNL     1     -44.626  56.478 -56.154  1.00  0.00     0.163 HD
ENDROOT
BRANCH   7  12
HETATM   12  C   UNL     1     -43.276  57.143 -53.664  1.00  0.00    -0.028 A 
HETATM   13  C   UNL     1     -44.037  57.538 -52.541  1.00  0.00     0.049 A 
HETATM   14  C   UNL     1     -43.797  58.757 -51.903  1.00  0.00     0.101 A 
HETATM   15  C   UNL     1     -42.783  59.584 -52.394  1.00  0.00     0.099 A 
HETATM   16  C   UNL     1     -42.018  59.223 -53.493  1.00  0.00     0.040 A 
HETATM   17  C   UNL     1     -42.264  58.005 -54.126  1.00  0.00     0.012 A 
BRANCH  14  18
HETATM   18  O   UNL     1     -44.465  59.246 -50.811  1.00  0.00    -0.353 OA
HETATM   19  C   UNL     1     -45.865  59.458 -50.961  1.00  0.00     0.210 C 
ENDBRANCH  14  18
BRANCH  15  20
HETATM   20  O   UNL     1     -42.519  60.783 -51.789  1.00  0.00    -0.358 OA
HETATM   21  H   UNL     1     -42.366  60.562 -50.850  1.00  0.00     0.218 HD
ENDBRANCH  15  20
ENDBRANCH   7  12
BRANCH   1  22
HETATM   22  C   UNL     1     -40.994  54.428 -52.292  1.00  0.00    -0.002 A 
HETATM   23  C   UNL     1     -41.053  55.580 -51.491  1.00  0.00     0.050 A 
HETATM   24  C   UNL     1     -40.901  55.507 -50.103  1.00  0.00     0.069 A 
HETATM   25  C   UNL     1     -40.684  54.266 -49.504  1.00  0.00     0.037 A 
HETATM   26  C   UNL     1     -40.612  53.114 -50.289  1.00  0.00     0.004 A 
HETATM   27  C   UNL     1     -40.760  53.193 -51.676  1.00  0.00     0.014 A 
BRANCH  24  28
HETATM   28  O   UNL     1     -40.985  56.709 -49.454  1.00  0.00    -0.356 OA
HETATM   29  C   UNL     1     -40.740  57.877 -50.226  1.00  0.00     0.210 C 
ENDBRANCH  24  28
ENDBRANCH   1  22
TORSDOF 5
ENDMDL
MODEL 9
REMARK VINA RESULT:      -6.8      2.932      7.184
REMARK  5 active torsions:
REMARK  status: ('A' for Active; 'I' for Inactive)
REMARK    1  A    between atoms: O_2  and  C_3 
REMARK    2  A    between atoms: C_5  and  C_6 
REMARK    3  A    between atoms: C_12  and  C_13 
REMARK    4  A    between atoms: C_15  and  O_16 
REMARK    5  A    between atoms: C_18  and  O_19 
ROOT
HETATM    1  C   UNL     1     -41.936  56.914 -52.195  1.00  0.00     0.098 A 
HETATM    2  N   UNL     1     -41.323  57.971 -51.607  1.00  0.00    -0.173 NA
HETATM    3  N   UNL     1     -41.041  57.572 -50.344  1.00  0.00    -0.272 N 
HETATM    4  H   UNL     1     -40.580  58.220 -49.712  1.00  0.00     0.189 HD
HETATM    5  C   UNL     1     -41.440  56.311 -50.129  1.00  0.00     0.128 A 
HETATM    6  C   UNL     1     -42.004  55.846 -51.283  1.00  0.00     0.034 A 
HETATM    7  C   UNL     1     -42.455  54.452 -51.093  1.00  0.00     0.156 A 
HETATM    8  N   UNL     1     -42.046  54.242 -49.691  1.00  0.00    -0.343 N 
HETATM    9  C   UNL     1     -41.436  55.344 -49.101  1.00  0.00     0.271 A 
HETATM   10  O   UNL     1     -40.994  55.427 -47.970  1.00  0.00    -0.266 OA
HETATM   11  H   UNL     1     -42.159  53.373 -49.191  1.00  0.00     0.163 HD
ENDROOT
BRANCH   7  12
HETATM   12  C   UNL     1     -41.712  53.563 -52.059  1.00  0.00    -0.028 A 
HETATM   13  C   UNL     1     -40.664  52.708 -51.650  1.00  0.00     0.049 A 
HETATM   14  C   UNL     1     -40.004  51.890 -52.570  1.00  0.00     0.101 A 
HETATM   15  C   UNL     1     -40.403  51.926 -53.909  1.00  0.00     0.099 A 
HETATM   16  C   UNL     1     -41.429  52.754 -54.340  1.00  0.00     0.040 A 
HETATM   17  C   UNL     1     -42.082  53.570 -53.417  1.00  0.00     0.012 A 
BRANCH  14  18
HETATM   18  O   UNL     1     -38.979  51.022 -52.294  1.00  0.00    -0.353 OA
HETATM   19  C   UNL     1     -39.317  49.846 -51.567  1.00  0.00     0.210 C 
ENDBRANCH  14  18
BRANCH  15  20
HETATM   20  O   UNL     1     -39.779  51.133 -54.835  1.00  0.00    -0.358 OA
HETATM   21  H   UNL     1     -40.477  50.908 -55.482  1.00  0.00     0.218 HD
ENDBRANCH  15  20
ENDBRANCH   7  12
BRANCH   1  22
HETATM   22  C   UNL     1     -42.408  56.980 -53.577  1.00  0.00    -0.002 A 
HETATM   23  C   UNL     1     -43.739  57.333 -53.851  1.00  0.00     0.050 A 
HETATM   24  C   UNL     1     -44.214  57.410 -55.164  1.00  0.00     0.069 A 
HETATM   25  C   UNL     1     -43.348  57.129 -56.220  1.00  0.00     0.037 A 
HETATM   26  C   UNL     1     -42.024  56.766 -55.962  1.00  0.00     0.004 A 
HETATM   27  C   UNL     1     -41.557  56.687 -54.649  1.00  0.00     0.014 A 
BRANCH  24  28
HETATM   28  O   UNL     1     -45.530  57.767 -55.277  1.00  0.00    -0.356 OA
HETATM   29  C   UNL     1     -45.935  58.353 -56.508  1.00  0.00     0.210 C 
ENDBRANCH  24  28
ENDBRANCH   1  22
TORSDOF 5
ENDMDL
MODEL 10
REMARK VINA RESULT:      -6.8      2.232      3.298
REMARK  5 active torsions:
REMARK  status: ('A' for Active; 'I' for Inactive)
REMARK    1  A    between atoms: O_2  and  C_3 
REMARK    2  A    between atoms: C_5  and  C_6 
REMARK    3  A    between atoms: C_12  and  C_13 
REMARK    4  A    between atoms: C_15  and  O_16 
REMARK    5  A    between atoms: C_18  and  O_19 
ROOT
HETATM    1  C   UNL     1     -42.507  55.111 -55.097  1.00  0.00     0.098 A 
HETATM    2  N   UNL     1     -42.429  55.154 -56.450  1.00  0.00    -0.173 NA
HETATM    3  N   UNL     1     -43.302  56.116 -56.834  1.00  0.00    -0.272 N 
HETATM    4  H   UNL     1     -43.414  56.316 -57.824  1.00  0.00     0.189 HD
HETATM    5  C   UNL     1     -43.906  56.678 -55.778  1.00  0.00     0.128 A 
HETATM    6  C   UNL     1     -43.422  56.079 -54.650  1.00  0.00     0.034 A 
HETATM    7  C   UNL     1     -44.058  56.674 -53.457  1.00  0.00     0.156 A 
HETATM    8  N   UNL     1     -44.934  57.669 -54.105  1.00  0.00    -0.343 N 
HETATM    9  C   UNL     1     -44.853  57.686 -55.493  1.00  0.00     0.271 A 
HETATM   10  O   UNL     1     -45.451  58.416 -56.260  1.00  0.00    -0.266 OA
HETATM   11  H   UNL     1     -45.524  58.316 -53.605  1.00  0.00     0.163 HD
ENDROOT
BRANCH   7  12
HETATM   12  C   UNL     1     -42.990  57.304 -52.597  1.00  0.00    -0.028 A 
HETATM   13  C   UNL     1     -42.526  56.706 -51.404  1.00  0.00     0.049 A 
HETATM   14  C   UNL     1     -41.528  57.311 -50.638  1.00  0.00     0.101 A 
HETATM   15  C   UNL     1     -40.988  58.524 -51.075  1.00  0.00     0.099 A 
HETATM   16  C   UNL     1     -41.421  59.135 -52.242  1.00  0.00     0.040 A 
HETATM   17  C   UNL     1     -42.419  58.526 -53.001  1.00  0.00     0.012 A 
BRANCH  14  18
HETATM   18  O   UNL     1     -40.998  56.829 -49.469  1.00  0.00    -0.353 OA
HETATM   19  C   UNL     1     -41.154  55.435 -49.225  1.00  0.00     0.210 C 
ENDBRANCH  14  18
BRANCH  15  20
HETATM   20  O   UNL     1     -40.005  59.141 -50.349  1.00  0.00    -0.358 OA
HETATM   21  H   UNL     1     -39.467  59.619 -51.011  1.00  0.00     0.218 HD
ENDBRANCH  15  20
ENDBRANCH   7  12
BRANCH   1  22
HETATM   22  C   UNL     1     -41.708  54.165 -54.319  1.00  0.00    -0.002 A 
HETATM   23  C   UNL     1     -41.580  52.834 -54.745  1.00  0.00     0.050 A 
HETATM   24  C   UNL     1     -40.817  51.911 -54.023  1.00  0.00     0.069 A 
HETATM   25  C   UNL     1     -40.173  52.323 -52.856  1.00  0.00     0.037 A 
HETATM   26  C   UNL     1     -40.300  53.641 -52.414  1.00  0.00     0.004 A 
HETATM   27  C   UNL     1     -41.067  54.557 -53.138  1.00  0.00     0.014 A 
BRANCH  24  28
HETATM   28  O   UNL     1     -40.781  50.653 -54.559  1.00  0.00    -0.356 OA
HETATM   29  C   UNL     1     -39.618  49.877 -54.304  1.00  0.00     0.210 C 
ENDBRANCH  24  28
ENDBRANCH   1  22
TORSDOF 5
ENDMDL
