MODEL 1
REMARK VINA RESULT:      -8.1      0.000      0.000
REMARK  8 active torsions:
REMARK  status: ('A' for Active; 'I' for Inactive)
REMARK    1  A    between atoms: C_4  and  O_5 
REMARK    2  A    between atoms: O_5  and  C_6 
REMARK    3  A    between atoms: C_6  and  C_7 
REMARK    4  A    between atoms: C_7  and  N_8 
REMARK       I    between atoms: N_8  and  C_9 
REMARK    5  A    between atoms: C_9  and  C_10 
REMARK    6  A    between atoms: C_10  and  S_11 
REMARK    7  A    between atoms: S_11  and  C_12 
REMARK    8  A    between atoms: C_15  and  C_16 
ROOT
HETATM    1  C   UNL     1     -44.541  56.862 -54.215  1.00  0.00     0.185 C 
ENDROOT
BRANCH   1   2
HETATM    2  C   UNL     1     -44.430  57.715 -55.474  1.00  0.00     0.227 C 
HETATM    3  N   UNL     1     -43.141  58.181 -55.692  1.00  0.00    -0.358 N 
HETATM    4  H   UNL     1     -42.385  57.712 -55.208  1.00  0.00     0.162 HD
HETATM    5  O   UNL     1     -45.373  58.010 -56.204  1.00  0.00    -0.273 OA
BRANCH   3   6
HETATM    6  C   UNL     1     -42.801  58.953 -56.875  1.00  0.00     0.149 C 
BRANCH   6   7
HETATM    7  C   UNL     1     -42.190  58.090 -57.981  1.00  0.00     0.195 C 
BRANCH   7   8
HETATM    8  O   UNL     1     -42.969  58.259 -59.163  1.00  0.00    -0.350 OA
BRANCH   8   9
HETATM    9  C   UNL     1     -43.817  57.243 -59.511  1.00  0.00     0.069 A 
HETATM   10  C   UNL     1     -45.131  57.383 -59.961  1.00  0.00     0.043 A 
HETATM   11  C   UNL     1     -45.900  56.250 -60.280  1.00  0.00    -0.059 A 
HETATM   12  C   UNL     1     -47.309  56.389 -60.777  1.00  0.00     0.048 C 
HETATM   13  C   UNL     1     -45.330  54.977 -60.157  1.00  0.00     0.007 A 
HETATM   14  C   UNL     1     -44.019  54.835 -59.711  1.00  0.00     0.003 A 
HETATM   15  C   UNL     1     -43.268  55.965 -59.389  1.00  0.00     0.037 A 
ENDBRANCH   8   9
ENDBRANCH   7   8
ENDBRANCH   6   7
ENDBRANCH   3   6
ENDBRANCH   1   2
BRANCH   1  16
HETATM   16  S   UNL     1     -43.185  57.166 -53.051  1.00  0.00    -0.081 SA
BRANCH  16  17
HETATM   17  C   UNL     1     -42.063  55.961 -53.571  1.00  0.00     0.191 A 
HETATM   18  N   UNL     1     -42.082  54.664 -53.143  1.00  0.00    -0.312 N 
HETATM   19  C   UNL     1     -43.109  54.021 -52.364  1.00  0.00     0.160 C 
HETATM   20  C   UNL     1     -40.942  54.082 -53.659  1.00  0.00     0.164 A 
HETATM   21  N   UNL     1     -40.345  54.971 -54.437  1.00  0.00    -0.128 NA
HETATM   22  N   UNL     1     -41.044  56.152 -54.373  1.00  0.00    -0.122 NA
BRANCH  20  23
HETATM   23  C   UNL     1     -40.475  52.720 -53.392  1.00  0.00     0.018 A 
HETATM   24  C   UNL     1     -39.926  52.355 -52.145  1.00  0.00    -0.048 A 
HETATM   25  C   UNL     1     -39.802  53.340 -51.013  1.00  0.00     0.049 C 
HETATM   26  C   UNL     1     -39.512  51.027 -51.939  1.00  0.00     0.007 A 
HETATM   27  C   UNL     1     -39.631  50.074 -52.949  1.00  0.00     0.001 A 
HETATM   28  C   UNL     1     -40.179  50.429 -54.177  1.00  0.00     0.001 A 
HETATM   29  C   UNL     1     -40.604  51.741 -54.394  1.00  0.00     0.016 A 
ENDBRANCH  20  23
ENDBRANCH  16  17
ENDBRANCH   1  16
TORSDOF 8
ENDMDL
MODEL 2
REMARK VINA RESULT:      -8.0      2.708      7.811
REMARK  8 active torsions:
REMARK  status: ('A' for Active; 'I' for Inactive)
REMARK    1  A    between atoms: C_4  and  O_5 
REMARK    2  A    between atoms: O_5  and  C_6 
REMARK    3  A    between atoms: C_6  and  C_7 
REMARK    4  A    between atoms: C_7  and  N_8 
REMARK       I    between atoms: N_8  and  C_9 
REMARK    5  A    between atoms: C_9  and  C_10 
REMARK    6  A    between atoms: C_10  and  S_11 
REMARK    7  A    between atoms: S_11  and  C_12 
REMARK    8  A    between atoms: C_15  and  C_16 
ROOT
HETATM    1  C   UNL     1     -42.799  57.378 -51.227  1.00  0.00     0.185 C 
ENDROOT
BRANCH   1   2
HETATM    2  C   UNL     1     -42.539  56.036 -50.552  1.00  0.00     0.227 C 
HETATM    3  N   UNL     1     -41.467  56.080 -49.671  1.00  0.00    -0.358 N 
HETATM    4  H   UNL     1     -41.162  56.991 -49.350  1.00  0.00     0.162 HD
HETATM    5  O   UNL     1     -43.165  55.004 -50.782  1.00  0.00    -0.273 OA
BRANCH   3   6
HETATM    6  C   UNL     1     -41.094  54.927 -48.868  1.00  0.00     0.149 C 
BRANCH   6   7
HETATM    7  C   UNL     1     -39.908  54.163 -49.460  1.00  0.00     0.195 C 
BRANCH   7   8
HETATM    8  O   UNL     1     -40.341  52.843 -49.782  1.00  0.00    -0.350 OA
BRANCH   8   9
HETATM    9  C   UNL     1     -40.178  52.423 -51.074  1.00  0.00     0.069 A 
HETATM   10  C   UNL     1     -40.378  53.190 -52.223  1.00  0.00     0.043 A 
HETATM   11  C   UNL     1     -40.181  52.632 -53.497  1.00  0.00    -0.059 A 
HETATM   12  C   UNL     1     -40.381  53.451 -54.738  1.00  0.00     0.048 C 
HETATM   13  C   UNL     1     -39.765  51.299 -53.606  1.00  0.00     0.007 A 
HETATM   14  C   UNL     1     -39.562  50.532 -52.462  1.00  0.00     0.003 A 
HETATM   15  C   UNL     1     -39.769  51.093 -51.202  1.00  0.00     0.037 A 
ENDBRANCH   8   9
ENDBRANCH   7   8
ENDBRANCH   6   7
ENDBRANCH   3   6
ENDBRANCH   1   2
BRANCH   1  16
HETATM   16  S   UNL     1     -44.124  57.287 -52.461  1.00  0.00    -0.081 SA
BRANCH  16  17
HETATM   17  C   UNL     1     -43.186  57.158 -53.904  1.00  0.00     0.191 A 
HETATM   18  N   UNL     1     -43.681  57.373 -55.159  1.00  0.00    -0.312 N 
HETATM   19  C   UNL     1     -44.969  57.917 -55.504  1.00  0.00     0.160 C 
HETATM   20  C   UNL     1     -42.670  57.015 -56.027  1.00  0.00     0.164 A 
HETATM   21  N   UNL     1     -41.602  56.707 -55.308  1.00  0.00    -0.128 NA
HETATM   22  N   UNL     1     -41.931  56.789 -53.976  1.00  0.00    -0.122 NA
BRANCH  20  23
HETATM   23  C   UNL     1     -42.762  56.981 -57.489  1.00  0.00     0.018 A 
HETATM   24  C   UNL     1     -42.438  58.104 -58.279  1.00  0.00    -0.048 A 
HETATM   25  C   UNL     1     -41.966  59.396 -57.667  1.00  0.00     0.049 C 
HETATM   26  C   UNL     1     -42.527  58.007 -59.679  1.00  0.00     0.007 A 
HETATM   27  C   UNL     1     -42.935  56.822 -60.291  1.00  0.00     0.001 A 
HETATM   28  C   UNL     1     -43.247  55.712 -59.515  1.00  0.00     0.001 A 
HETATM   29  C   UNL     1     -43.155  55.789 -58.124  1.00  0.00     0.016 A 
ENDBRANCH  20  23
ENDBRANCH  16  17
ENDBRANCH   1  16
TORSDOF 8
ENDMDL
MODEL 3
REMARK VINA RESULT:      -7.9      1.749      2.320
REMARK  8 active torsions:
REMARK  status: ('A' for Active; 'I' for Inactive)
REMARK    1  A    between atoms: C_4  and  O_5 
REMARK    2  A    between atoms: O_5  and  C_6 
REMARK    3  A    between atoms: C_6  and  C_7 
REMARK    4  A    between atoms: C_7  and  N_8 
REMARK       I    between atoms: N_8  and  C_9 
REMARK    5  A    between atoms: C_9  and  C_10 
REMARK    6  A    between atoms: C_10  and  S_11 
REMARK    7  A    between atoms: S_11  and  C_12 
REMARK    8  A    between atoms: C_15  and  C_16 
ROOT
HETATM    1  C   UNL     1     -42.387  58.544 -51.718  1.00  0.00     0.185 C 
ENDROOT
BRANCH   1   2
HETATM    2  C   UNL     1     -42.333  59.581 -52.835  1.00  0.00     0.227 C 
HETATM    3  N   UNL     1     -42.957  59.147 -53.996  1.00  0.00    -0.358 N 
HETATM    4  H   UNL     1     -43.601  58.370 -53.920  1.00  0.00     0.162 HD
HETATM    5  O   UNL     1     -41.765  60.667 -52.755  1.00  0.00    -0.273 OA
BRANCH   3   6
HETATM    6  C   UNL     1     -43.083  60.010 -55.160  1.00  0.00     0.149 C 
BRANCH   6   7
HETATM    7  C   UNL     1     -42.243  59.522 -56.342  1.00  0.00     0.195 C 
BRANCH   7   8
HETATM    8  O   UNL     1     -42.356  58.102 -56.417  1.00  0.00    -0.350 OA
BRANCH   8   9
HETATM    9  C   UNL     1     -42.537  57.548 -57.655  1.00  0.00     0.069 A 
HETATM   10  C   UNL     1     -43.260  56.388 -57.942  1.00  0.00     0.043 A 
HETATM   11  C   UNL     1     -43.363  55.921 -59.263  1.00  0.00    -0.059 A 
HETATM   12  C   UNL     1     -44.148  54.683 -59.585  1.00  0.00     0.048 C 
HETATM   13  C   UNL     1     -42.746  56.639 -60.295  1.00  0.00     0.007 A 
HETATM   14  C   UNL     1     -42.027  57.797 -60.012  1.00  0.00     0.003 A 
HETATM   15  C   UNL     1     -41.924  58.247 -58.697  1.00  0.00     0.037 A 
ENDBRANCH   8   9
ENDBRANCH   7   8
ENDBRANCH   6   7
ENDBRANCH   3   6
ENDBRANCH   1   2
BRANCH   1  16
HETATM   16  S   UNL     1     -43.467  57.146 -52.123  1.00  0.00    -0.081 SA
BRANCH  16  17
HETATM   17  C   UNL     1     -42.319  56.076 -52.845  1.00  0.00     0.191 A 
HETATM   18  N   UNL     1     -42.269  54.733 -52.603  1.00  0.00    -0.312 N 
HETATM   19  C   UNL     1     -43.237  53.942 -51.887  1.00  0.00     0.160 C 
HETATM   20  C   UNL     1     -41.128  54.281 -53.234  1.00  0.00     0.164 A 
HETATM   21  N   UNL     1     -40.599  55.294 -53.900  1.00  0.00    -0.128 NA
HETATM   22  N   UNL     1     -41.342  56.422 -53.647  1.00  0.00    -0.122 NA
BRANCH  20  23
HETATM   23  C   UNL     1     -40.597  52.917 -53.177  1.00  0.00     0.018 A 
HETATM   24  C   UNL     1     -39.942  52.424 -52.029  1.00  0.00    -0.048 A 
HETATM   25  C   UNL     1     -39.764  53.265 -50.793  1.00  0.00     0.049 C 
HETATM   26  C   UNL     1     -39.469  51.099 -52.024  1.00  0.00     0.007 A 
HETATM   27  C   UNL     1     -39.634  50.275 -53.137  1.00  0.00     0.001 A 
HETATM   28  C   UNL     1     -40.286  50.756 -54.266  1.00  0.00     0.001 A 
HETATM   29  C   UNL     1     -40.770  52.066 -54.284  1.00  0.00     0.016 A 
ENDBRANCH  20  23
ENDBRANCH  16  17
ENDBRANCH   1  16
TORSDOF 8
ENDMDL
MODEL 4
REMARK VINA RESULT:      -7.9      2.857      7.645
REMARK  8 active torsions:
REMARK  status: ('A' for Active; 'I' for Inactive)
REMARK    1  A    between atoms: C_4  and  O_5 
REMARK    2  A    between atoms: O_5  and  C_6 
REMARK    3  A    between atoms: C_6  and  C_7 
REMARK    4  A    between atoms: C_7  and  N_8 
REMARK       I    between atoms: N_8  and  C_9 
REMARK    5  A    between atoms: C_9  and  C_10 
REMARK    6  A    between atoms: C_10  and  S_11 
REMARK    7  A    between atoms: S_11  and  C_12 
REMARK    8  A    between atoms: C_15  and  C_16 
ROOT
HETATM    1  C   UNL     1     -43.457  56.243 -51.275  1.00  0.00     0.185 C 
ENDROOT
BRANCH   1   2
HETATM    2  C   UNL     1     -42.155  56.143 -50.488  1.00  0.00     0.227 C 
HETATM    3  N   UNL     1     -42.078  54.983 -49.730  1.00  0.00    -0.358 N 
HETATM    4  H   UNL     1     -42.702  54.223 -49.971  1.00  0.00     0.162 HD
HETATM    5  O   UNL     1     -41.278  57.002 -50.475  1.00  0.00    -0.273 OA
BRANCH   3   6
HETATM    6  C   UNL     1     -40.889  54.655 -48.960  1.00  0.00     0.149 C 
BRANCH   6   7
HETATM    7  C   UNL     1     -39.763  54.097 -49.833  1.00  0.00     0.195 C 
BRANCH   7   8
HETATM    8  O   UNL     1     -40.129  52.784 -50.251  1.00  0.00    -0.350 OA
BRANCH   8   9
HETATM    9  C   UNL     1     -40.107  52.520 -51.594  1.00  0.00     0.069 A 
HETATM   10  C   UNL     1     -39.739  51.314 -52.192  1.00  0.00     0.043 A 
HETATM   11  C   UNL     1     -39.754  51.177 -53.591  1.00  0.00    -0.059 A 
HETATM   12  C   UNL     1     -39.373  49.881 -54.244  1.00  0.00     0.048 C 
HETATM   13  C   UNL     1     -40.159  52.259 -54.382  1.00  0.00     0.007 A 
HETATM   14  C   UNL     1     -40.529  53.463 -53.788  1.00  0.00     0.003 A 
HETATM   15  C   UNL     1     -40.502  53.591 -52.400  1.00  0.00     0.037 A 
ENDBRANCH   8   9
ENDBRANCH   7   8
ENDBRANCH   6   7
ENDBRANCH   3   6
ENDBRANCH   1   2
BRANCH   1  16
HETATM   16  S   UNL     1     -43.875  57.954 -51.707  1.00  0.00    -0.081 SA
BRANCH  16  17
HETATM   17  C   UNL     1     -43.140  58.060 -53.266  1.00  0.00     0.191 A 
HETATM   18  N   UNL     1     -43.760  57.705 -54.429  1.00  0.00    -0.312 N 
HETATM   19  C   UNL     1     -45.150  57.372 -54.606  1.00  0.00     0.160 C 
HETATM   20  C   UNL     1     -42.792  57.785 -55.410  1.00  0.00     0.164 A 
HETATM   21  N   UNL     1     -41.690  58.267 -54.859  1.00  0.00    -0.128 NA
HETATM   22  N   UNL     1     -41.907  58.430 -53.512  1.00  0.00    -0.122 NA
BRANCH  20  23
HETATM   23  C   UNL     1     -42.956  57.403 -56.814  1.00  0.00     0.018 A 
HETATM   24  C   UNL     1     -42.950  56.052 -57.221  1.00  0.00    -0.048 A 
HETATM   25  C   UNL     1     -42.789  54.926 -56.235  1.00  0.00     0.049 C 
HETATM   26  C   UNL     1     -43.132  55.744 -58.581  1.00  0.00     0.007 A 
HETATM   27  C   UNL     1     -43.312  56.753 -59.527  1.00  0.00     0.001 A 
HETATM   28  C   UNL     1     -43.326  58.084 -59.128  1.00  0.00     0.001 A 
HETATM   29  C   UNL     1     -43.156  58.406 -57.780  1.00  0.00     0.016 A 
ENDBRANCH  20  23
ENDBRANCH  16  17
ENDBRANCH   1  16
TORSDOF 8
ENDMDL
MODEL 5
REMARK VINA RESULT:      -7.7      2.407      7.985
REMARK  8 active torsions:
REMARK  status: ('A' for Active; 'I' for Inactive)
REMARK    1  A    between atoms: C_4  and  O_5 
REMARK    2  A    between atoms: O_5  and  C_6 
REMARK    3  A    between atoms: C_6  and  C_7 
REMARK    4  A    between atoms: C_7  and  N_8 
REMARK       I    between atoms: N_8  and  C_9 
REMARK    5  A    between atoms: C_9  and  C_10 
REMARK    6  A    between atoms: C_10  and  S_11 
REMARK    7  A    between atoms: S_11  and  C_12 
REMARK    8  A    between atoms: C_15  and  C_16 
ROOT
HETATM    1  C   UNL     1     -42.323  60.155 -54.190  1.00  0.00     0.185 C 
ENDROOT
BRANCH   1   2
HETATM    2  C   UNL     1     -41.332  59.137 -53.634  1.00  0.00     0.227 C 
HETATM    3  N   UNL     1     -41.925  57.915 -53.353  1.00  0.00    -0.358 N 
HETATM    4  H   UNL     1     -42.821  57.718 -53.783  1.00  0.00     0.162 HD
HETATM    5  O   UNL     1     -40.147  59.367 -53.407  1.00  0.00    -0.273 OA
BRANCH   3   6
HETATM    6  C   UNL     1     -41.145  56.781 -52.882  1.00  0.00     0.149 C 
BRANCH   6   7
HETATM    7  C   UNL     1     -41.006  55.687 -53.942  1.00  0.00     0.195 C 
BRANCH   7   8
HETATM    8  O   UNL     1     -41.729  54.540 -53.499  1.00  0.00    -0.350 OA
BRANCH   8   9
HETATM    9  C   UNL     1     -41.011  53.408 -53.226  1.00  0.00     0.069 A 
HETATM   10  C   UNL     1     -40.791  52.340 -54.099  1.00  0.00     0.043 A 
HETATM   11  C   UNL     1     -40.036  51.228 -53.688  1.00  0.00    -0.059 A 
HETATM   12  C   UNL     1     -39.781  50.081 -54.621  1.00  0.00     0.048 C 
HETATM   13  C   UNL     1     -39.491  51.206 -52.399  1.00  0.00     0.007 A 
HETATM   14  C   UNL     1     -39.707  52.270 -51.527  1.00  0.00     0.003 A 
HETATM   15  C   UNL     1     -40.465  53.365 -51.941  1.00  0.00     0.037 A 
ENDBRANCH   8   9
ENDBRANCH   7   8
ENDBRANCH   6   7
ENDBRANCH   3   6
ENDBRANCH   1   2
BRANCH   1  16
HETATM   16  S   UNL     1     -42.195  60.335 -55.990  1.00  0.00    -0.081 SA
BRANCH  16  17
HETATM   17  C   UNL     1     -43.116  58.966 -56.497  1.00  0.00     0.191 A 
HETATM   18  N   UNL     1     -43.435  58.699 -57.798  1.00  0.00    -0.312 N 
HETATM   19  C   UNL     1     -42.926  59.362 -58.971  1.00  0.00     0.160 C 
HETATM   20  C   UNL     1     -44.301  57.625 -57.759  1.00  0.00     0.164 A 
HETATM   21  N   UNL     1     -44.397  57.221 -56.503  1.00  0.00    -0.128 NA
HETATM   22  N   UNL     1     -43.660  58.069 -55.711  1.00  0.00    -0.122 NA
BRANCH  20  23
HETATM   23  C   UNL     1     -44.993  57.036 -58.908  1.00  0.00     0.018 A 
HETATM   24  C   UNL     1     -44.349  56.133 -59.779  1.00  0.00    -0.048 A 
HETATM   25  C   UNL     1     -42.918  55.712 -59.571  1.00  0.00     0.049 C 
HETATM   26  C   UNL     1     -45.069  55.584 -60.854  1.00  0.00     0.007 A 
HETATM   27  C   UNL     1     -46.404  55.924 -61.072  1.00  0.00     0.001 A 
HETATM   28  C   UNL     1     -47.044  56.807 -60.210  1.00  0.00     0.001 A 
HETATM   29  C   UNL     1     -46.345  57.354 -59.132  1.00  0.00     0.016 A 
ENDBRANCH  20  23
ENDBRANCH  16  17
ENDBRANCH   1  16
TORSDOF 8
ENDMDL
MODEL 6
REMARK VINA RESULT:      -7.6      1.818      2.886
REMARK  8 active torsions:
REMARK  status: ('A' for Active; 'I' for Inactive)
REMARK    1  A    between atoms: C_4  and  O_5 
REMARK    2  A    between atoms: O_5  and  C_6 
REMARK    3  A    between atoms: C_6  and  C_7 
REMARK    4  A    between atoms: C_7  and  N_8 
REMARK       I    between atoms: N_8  and  C_9 
REMARK    5  A    between atoms: C_9  and  C_10 
REMARK    6  A    between atoms: C_10  and  S_11 
REMARK    7  A    between atoms: S_11  and  C_12 
REMARK    8  A    between atoms: C_15  and  C_16 
ROOT
HETATM    1  C   UNL     1     -45.051  58.746 -52.626  1.00  0.00     0.185 C 
ENDROOT
BRANCH   1   2
HETATM    2  C   UNL     1     -44.873  58.662 -54.138  1.00  0.00     0.227 C 
HETATM    3  N   UNL     1     -44.168  59.741 -54.653  1.00  0.00    -0.358 N 
HETATM    4  H   UNL     1     -43.618  60.293 -54.007  1.00  0.00     0.162 HD
HETATM    5  O   UNL     1     -45.334  57.773 -54.849  1.00  0.00    -0.273 OA
BRANCH   3   6
HETATM    6  C   UNL     1     -43.825  59.822 -56.064  1.00  0.00     0.149 C 
BRANCH   6   7
HETATM    7  C   UNL     1     -42.381  59.398 -56.339  1.00  0.00     0.195 C 
BRANCH   7   8
HETATM    8  O   UNL     1     -42.339  57.974 -56.412  1.00  0.00    -0.350 OA
BRANCH   8   9
HETATM    9  C   UNL     1     -42.529  57.399 -57.639  1.00  0.00     0.069 A 
HETATM   10  C   UNL     1     -43.320  56.281 -57.912  1.00  0.00     0.043 A 
HETATM   11  C   UNL     1     -43.425  55.785 -59.223  1.00  0.00    -0.059 A 
HETATM   12  C   UNL     1     -44.283  54.593 -59.531  1.00  0.00     0.048 C 
HETATM   13  C   UNL     1     -42.740  56.433 -60.258  1.00  0.00     0.007 A 
HETATM   14  C   UNL     1     -41.952  57.549 -59.989  1.00  0.00     0.003 A 
HETATM   15  C   UNL     1     -41.848  58.027 -58.684  1.00  0.00     0.037 A 
ENDBRANCH   8   9
ENDBRANCH   7   8
ENDBRANCH   6   7
ENDBRANCH   3   6
ENDBRANCH   1   2
BRANCH   1  16
HETATM   16  S   UNL     1     -43.469  58.764 -51.742  1.00  0.00    -0.081 SA
BRANCH  16  17
HETATM   17  C   UNL     1     -43.177  57.067 -51.610  1.00  0.00     0.191 A 
HETATM   18  N   UNL     1     -42.167  56.413 -52.256  1.00  0.00    -0.312 N 
HETATM   19  C   UNL     1     -41.075  57.004 -52.985  1.00  0.00     0.160 C 
HETATM   20  C   UNL     1     -42.378  55.070 -52.017  1.00  0.00     0.164 A 
HETATM   21  N   UNL     1     -43.400  54.957 -51.184  1.00  0.00    -0.128 NA
HETATM   22  N   UNL     1     -43.906  56.210 -50.937  1.00  0.00    -0.122 NA
BRANCH  20  23
HETATM   23  C   UNL     1     -41.605  53.963 -52.586  1.00  0.00     0.018 A 
HETATM   24  C   UNL     1     -41.802  53.527 -53.914  1.00  0.00    -0.048 A 
HETATM   25  C   UNL     1     -42.805  54.183 -54.825  1.00  0.00     0.049 C 
HETATM   26  C   UNL     1     -41.017  52.473 -54.413  1.00  0.00     0.007 A 
HETATM   27  C   UNL     1     -40.057  51.852 -53.614  1.00  0.00     0.001 A 
HETATM   28  C   UNL     1     -39.856  52.285 -52.309  1.00  0.00     0.001 A 
HETATM   29  C   UNL     1     -40.620  53.338 -51.801  1.00  0.00     0.016 A 
ENDBRANCH  20  23
ENDBRANCH  16  17
ENDBRANCH   1  16
TORSDOF 8
ENDMDL
MODEL 7
REMARK VINA RESULT:      -7.6      5.475      9.663
REMARK  8 active torsions:
REMARK  status: ('A' for Active; 'I' for Inactive)
REMARK    1  A    between atoms: C_4  and  O_5 
REMARK    2  A    between atoms: O_5  and  C_6 
REMARK    3  A    between atoms: C_6  and  C_7 
REMARK    4  A    between atoms: C_7  and  N_8 
REMARK       I    between atoms: N_8  and  C_9 
REMARK    5  A    between atoms: C_9  and  C_10 
REMARK    6  A    between atoms: C_10  and  S_11 
REMARK    7  A    between atoms: S_11  and  C_12 
REMARK    8  A    between atoms: C_15  and  C_16 
ROOT
HETATM    1  C   UNL     1     -43.292  56.300 -51.327  1.00  0.00     0.185 C 
ENDROOT
BRANCH   1   2
HETATM    2  C   UNL     1     -41.967  56.219 -50.576  1.00  0.00     0.227 C 
HETATM    3  N   UNL     1     -41.877  55.090 -49.774  1.00  0.00    -0.358 N 
HETATM    4  H   UNL     1     -42.514  54.326 -49.966  1.00  0.00     0.162 HD
HETATM    5  O   UNL     1     -41.084  57.070 -50.623  1.00  0.00    -0.273 OA
BRANCH   3   6
HETATM    6  C   UNL     1     -40.668  54.782 -49.028  1.00  0.00     0.149 C 
BRANCH   6   7
HETATM    7  C   UNL     1     -39.678  53.943 -49.839  1.00  0.00     0.195 C 
BRANCH   7   8
HETATM    8  O   UNL     1     -40.365  52.797 -50.337  1.00  0.00    -0.350 OA
BRANCH   8   9
HETATM    9  C   UNL     1     -40.248  52.521 -51.672  1.00  0.00     0.069 A 
HETATM   10  C   UNL     1     -39.815  51.318 -52.232  1.00  0.00     0.043 A 
HETATM   11  C   UNL     1     -39.734  51.169 -53.627  1.00  0.00    -0.059 A 
HETATM   12  C   UNL     1     -39.282  49.876 -54.240  1.00  0.00     0.048 C 
HETATM   13  C   UNL     1     -40.108  52.235 -54.454  1.00  0.00     0.007 A 
HETATM   14  C   UNL     1     -40.544  53.435 -53.899  1.00  0.00     0.003 A 
HETATM   15  C   UNL     1     -40.611  53.576 -52.514  1.00  0.00     0.037 A 
ENDBRANCH   8   9
ENDBRANCH   7   8
ENDBRANCH   6   7
ENDBRANCH   3   6
ENDBRANCH   1   2
BRANCH   1  16
HETATM   16  S   UNL     1     -43.472  57.849 -52.251  1.00  0.00    -0.081 SA
BRANCH  16  17
HETATM   17  C   UNL     1     -44.565  58.694 -51.216  1.00  0.00     0.191 A 
HETATM   18  N   UNL     1     -44.309  59.922 -50.675  1.00  0.00    -0.312 N 
HETATM   19  C   UNL     1     -43.218  60.805 -50.999  1.00  0.00     0.160 C 
HETATM   20  C   UNL     1     -45.345  60.166 -49.795  1.00  0.00     0.164 A 
HETATM   21  N   UNL     1     -46.214  59.175 -49.900  1.00  0.00    -0.128 NA
HETATM   22  N   UNL     1     -45.719  58.247 -50.785  1.00  0.00    -0.122 NA
BRANCH  20  23
HETATM   23  C   UNL     1     -45.460  61.322 -48.902  1.00  0.00     0.018 A 
HETATM   24  C   UNL     1     -46.045  62.533 -49.327  1.00  0.00    -0.048 A 
HETATM   25  C   UNL     1     -46.597  62.703 -50.717  1.00  0.00     0.049 C 
HETATM   26  C   UNL     1     -46.147  63.602 -48.419  1.00  0.00     0.007 A 
HETATM   27  C   UNL     1     -45.673  63.482 -47.113  1.00  0.00     0.001 A 
HETATM   28  C   UNL     1     -45.103  62.287 -46.690  1.00  0.00     0.001 A 
HETATM   29  C   UNL     1     -45.003  61.212 -47.576  1.00  0.00     0.016 A 
ENDBRANCH  20  23
ENDBRANCH  16  17
ENDBRANCH   1  16
TORSDOF 8
ENDMDL
MODEL 8
REMARK VINA RESULT:      -7.5      2.404      7.554
REMARK  8 active torsions:
REMARK  status: ('A' for Active; 'I' for Inactive)
REMARK    1  A    between atoms: C_4  and  O_5 
REMARK    2  A    between atoms: O_5  and  C_6 
REMARK    3  A    between atoms: C_6  and  C_7 
REMARK    4  A    between atoms: C_7  and  N_8 
REMARK       I    between atoms: N_8  and  C_9 
REMARK    5  A    between atoms: C_9  and  C_10 
REMARK    6  A    between atoms: C_10  and  S_11 
REMARK    7  A    between atoms: S_11  and  C_12 
REMARK    8  A    between atoms: C_15  and  C_16 
ROOT
HETATM    1  C   UNL     1     -43.336  60.134 -54.551  1.00  0.00     0.185 C 
ENDROOT
BRANCH   1   2
HETATM    2  C   UNL     1     -42.134  59.276 -54.172  1.00  0.00     0.227 C 
HETATM    3  N   UNL     1     -42.438  57.922 -54.128  1.00  0.00    -0.358 N 
HETATM    4  H   UNL     1     -43.279  57.615 -54.602  1.00  0.00     0.162 HD
HETATM    5  O   UNL     1     -41.023  59.715 -53.886  1.00  0.00    -0.273 OA
BRANCH   3   6
HETATM    6  C   UNL     1     -41.418  56.922 -53.857  1.00  0.00     0.149 C 
BRANCH   6   7
HETATM    7  C   UNL     1     -41.975  55.707 -53.114  1.00  0.00     0.195 C 
BRANCH   7   8
HETATM    8  O   UNL     1     -40.924  55.134 -52.339  1.00  0.00    -0.350 OA
BRANCH   8   9
HETATM    9  C   UNL     1     -40.557  53.848 -52.626  1.00  0.00     0.069 A 
HETATM   10  C   UNL     1     -40.189  52.869 -51.700  1.00  0.00     0.043 A 
HETATM   11  C   UNL     1     -39.825  51.581 -52.131  1.00  0.00    -0.059 A 
HETATM   12  C   UNL     1     -39.441  50.518 -51.145  1.00  0.00     0.048 C 
HETATM   13  C   UNL     1     -39.850  51.282 -53.498  1.00  0.00     0.007 A 
HETATM   14  C   UNL     1     -40.219  52.256 -54.424  1.00  0.00     0.003 A 
HETATM   15  C   UNL     1     -40.569  53.533 -53.986  1.00  0.00     0.037 A 
ENDBRANCH   8   9
ENDBRANCH   7   8
ENDBRANCH   6   7
ENDBRANCH   3   6
ENDBRANCH   1   2
BRANCH   1  16
HETATM   16  S   UNL     1     -43.031  61.139 -56.029  1.00  0.00    -0.081 SA
BRANCH  16  17
HETATM   17  C   UNL     1     -42.720  59.894 -57.183  1.00  0.00     0.191 A 
HETATM   18  N   UNL     1     -43.656  58.995 -57.609  1.00  0.00    -0.312 N 
HETATM   19  C   UNL     1     -45.072  59.025 -57.345  1.00  0.00     0.160 C 
HETATM   20  C   UNL     1     -42.974  58.085 -58.391  1.00  0.00     0.164 A 
HETATM   21  N   UNL     1     -41.721  58.496 -58.500  1.00  0.00    -0.128 NA
HETATM   22  N   UNL     1     -41.561  59.626 -57.734  1.00  0.00    -0.122 NA
BRANCH  20  23
HETATM   23  C   UNL     1     -43.539  56.876 -58.994  1.00  0.00     0.018 A 
HETATM   24  C   UNL     1     -43.473  55.624 -58.346  1.00  0.00    -0.048 A 
HETATM   25  C   UNL     1     -42.833  55.462 -56.994  1.00  0.00     0.049 C 
HETATM   26  C   UNL     1     -44.050  54.501 -58.964  1.00  0.00     0.007 A 
HETATM   27  C   UNL     1     -44.677  54.607 -60.205  1.00  0.00     0.001 A 
HETATM   28  C   UNL     1     -44.750  55.841 -60.842  1.00  0.00     0.001 A 
HETATM   29  C   UNL     1     -44.190  56.968 -60.237  1.00  0.00     0.016 A 
ENDBRANCH  20  23
ENDBRANCH  16  17
ENDBRANCH   1  16
TORSDOF 8
ENDMDL
MODEL 9
REMARK VINA RESULT:      -7.5      5.244      9.209
REMARK  8 active torsions:
REMARK  status: ('A' for Active; 'I' for Inactive)
REMARK    1  A    between atoms: C_4  and  O_5 
REMARK    2  A    between atoms: O_5  and  C_6 
REMARK    3  A    between atoms: C_6  and  C_7 
REMARK    4  A    between atoms: C_7  and  N_8 
REMARK       I    between atoms: N_8  and  C_9 
REMARK    5  A    between atoms: C_9  and  C_10 
REMARK    6  A    between atoms: C_10  and  S_11 
REMARK    7  A    between atoms: S_11  and  C_12 
REMARK    8  A    between atoms: C_15  and  C_16 
ROOT
HETATM    1  C   UNL     1     -43.344  56.344 -51.350  1.00  0.00     0.185 C 
ENDROOT
BRANCH   1   2
HETATM    2  C   UNL     1     -43.390  55.178 -52.332  1.00  0.00     0.227 C 
HETATM    3  N   UNL     1     -43.252  55.586 -53.652  1.00  0.00    -0.358 N 
HETATM    4  H   UNL     1     -42.864  56.506 -53.820  1.00  0.00     0.162 HD
HETATM    5  O   UNL     1     -43.576  54.006 -52.018  1.00  0.00    -0.273 OA
BRANCH   3   6
HETATM    6  C   UNL     1     -43.196  54.626 -54.743  1.00  0.00     0.149 C 
BRANCH   6   7
HETATM    7  C   UNL     1     -41.798  54.519 -55.355  1.00  0.00     0.195 C 
BRANCH   7   8
HETATM    8  O   UNL     1     -40.840  54.579 -54.300  1.00  0.00    -0.350 OA
BRANCH   8   9
HETATM    9  C   UNL     1     -40.431  53.394 -53.751  1.00  0.00     0.069 A 
HETATM   10  C   UNL     1     -40.228  52.195 -54.435  1.00  0.00     0.043 A 
HETATM   11  C   UNL     1     -39.811  51.043 -53.747  1.00  0.00    -0.059 A 
HETATM   12  C   UNL     1     -39.576  49.751 -54.474  1.00  0.00     0.048 C 
HETATM   13  C   UNL     1     -39.585  51.112 -52.367  1.00  0.00     0.007 A 
HETATM   14  C   UNL     1     -39.784  52.308 -51.682  1.00  0.00     0.003 A 
HETATM   15  C   UNL     1     -40.207  53.443 -52.374  1.00  0.00     0.037 A 
ENDBRANCH   8   9
ENDBRANCH   7   8
ENDBRANCH   6   7
ENDBRANCH   3   6
ENDBRANCH   1   2
BRANCH   1  16
HETATM   16  S   UNL     1     -43.398  57.953 -52.183  1.00  0.00    -0.081 SA
BRANCH  16  17
HETATM   17  C   UNL     1     -44.510  58.787 -51.159  1.00  0.00     0.191 A 
HETATM   18  N   UNL     1     -44.290  60.034 -50.647  1.00  0.00    -0.312 N 
HETATM   19  C   UNL     1     -43.229  60.943 -50.999  1.00  0.00     0.160 C 
HETATM   20  C   UNL     1     -45.326  60.265 -49.765  1.00  0.00     0.164 A 
HETATM   21  N   UNL     1     -46.164  59.244 -49.841  1.00  0.00    -0.128 NA
HETATM   22  N   UNL     1     -45.646  58.314 -50.709  1.00  0.00    -0.122 NA
BRANCH  20  23
HETATM   23  C   UNL     1     -45.471  61.436 -48.896  1.00  0.00     0.018 A 
HETATM   24  C   UNL     1     -46.144  62.599 -49.326  1.00  0.00    -0.048 A 
HETATM   25  C   UNL     1     -46.763  62.699 -50.695  1.00  0.00     0.049 C 
HETATM   26  C   UNL     1     -46.270  63.685 -48.442  1.00  0.00     0.007 A 
HETATM   27  C   UNL     1     -45.736  63.628 -47.155  1.00  0.00     0.001 A 
HETATM   28  C   UNL     1     -45.079  62.480 -46.727  1.00  0.00     0.001 A 
HETATM   29  C   UNL     1     -44.954  61.389 -47.589  1.00  0.00     0.016 A 
ENDBRANCH  20  23
ENDBRANCH  16  17
ENDBRANCH   1  16
TORSDOF 8
ENDMDL
MODEL 10
REMARK VINA RESULT:      -7.5      2.695      6.250
REMARK  8 active torsions:
REMARK  status: ('A' for Active; 'I' for Inactive)
REMARK    1  A    between atoms: C_4  and  O_5 
REMARK    2  A    between atoms: O_5  and  C_6 
REMARK    3  A    between atoms: C_6  and  C_7 
REMARK    4  A    between atoms: C_7  and  N_8 
REMARK       I    between atoms: N_8  and  C_9 
REMARK    5  A    between atoms: C_9  and  C_10 
REMARK    6  A    between atoms: C_10  and  S_11 
REMARK    7  A    between atoms: S_11  and  C_12 
REMARK    8  A    between atoms: C_15  and  C_16 
ROOT
HETATM    1  C   UNL     1     -44.526  58.879 -56.877  1.00  0.00     0.185 C 
ENDROOT
BRANCH   1   2
HETATM    2  C   UNL     1     -43.559  57.766 -57.268  1.00  0.00     0.227 C 
HETATM    3  N   UNL     1     -43.765  56.601 -56.541  1.00  0.00    -0.358 N 
HETATM    4  H   UNL     1     -44.653  56.495 -56.066  1.00  0.00     0.162 HD
HETATM    5  O   UNL     1     -42.661  57.879 -58.097  1.00  0.00    -0.273 OA
BRANCH   3   6
HETATM    6  C   UNL     1     -42.999  55.394 -56.806  1.00  0.00     0.149 C 
BRANCH   6   7
HETATM    7  C   UNL     1     -42.703  54.599 -55.533  1.00  0.00     0.195 C 
BRANCH   7   8
HETATM    8  O   UNL     1     -41.289  54.485 -55.394  1.00  0.00    -0.350 OA
BRANCH   8   9
HETATM    9  C   UNL     1     -40.814  53.559 -54.505  1.00  0.00     0.069 A 
HETATM   10  C   UNL     1     -40.466  52.239 -54.796  1.00  0.00     0.043 A 
HETATM   11  C   UNL     1     -39.995  51.386 -53.783  1.00  0.00    -0.059 A 
HETATM   12  C   UNL     1     -39.605  49.969 -54.086  1.00  0.00     0.048 C 
HETATM   13  C   UNL     1     -39.864  51.877 -52.478  1.00  0.00     0.007 A 
HETATM   14  C   UNL     1     -40.208  53.194 -52.185  1.00  0.00     0.003 A 
HETATM   15  C   UNL     1     -40.682  54.029 -53.196  1.00  0.00     0.037 A 
ENDBRANCH   8   9
ENDBRANCH   7   8
ENDBRANCH   6   7
ENDBRANCH   3   6
ENDBRANCH   1   2
BRANCH   1  16
HETATM   16  S   UNL     1     -43.732  60.167 -55.879  1.00  0.00    -0.081 SA
BRANCH  16  17
HETATM   17  C   UNL     1     -43.902  59.479 -54.305  1.00  0.00     0.191 A 
HETATM   18  N   UNL     1     -42.995  58.627 -53.742  1.00  0.00    -0.312 N 
HETATM   19  C   UNL     1     -41.683  58.302 -54.239  1.00  0.00     0.160 C 
HETATM   20  C   UNL     1     -43.573  58.187 -52.568  1.00  0.00     0.164 A 
HETATM   21  N   UNL     1     -44.716  58.834 -52.406  1.00  0.00    -0.128 NA
HETATM   22  N   UNL     1     -44.925  59.637 -53.501  1.00  0.00    -0.122 NA
BRANCH  20  23
HETATM   23  C   UNL     1     -43.019  57.179 -51.661  1.00  0.00     0.018 A 
HETATM   24  C   UNL     1     -41.892  57.446 -50.855  1.00  0.00    -0.048 A 
HETATM   25  C   UNL     1     -41.204  58.785 -50.870  1.00  0.00     0.049 C 
HETATM   26  C   UNL     1     -41.416  56.446 -49.988  1.00  0.00     0.007 A 
HETATM   27  C   UNL     1     -42.037  55.199 -49.921  1.00  0.00     0.001 A 
HETATM   28  C   UNL     1     -43.152  54.937 -50.709  1.00  0.00     0.001 A 
HETATM   29  C   UNL     1     -43.643  55.922 -51.568  1.00  0.00     0.016 A 
ENDBRANCH  20  23
ENDBRANCH  16  17
ENDBRANCH   1  16
TORSDOF 8
ENDMDL
