MODEL 1
REMARK VINA RESULT:      -7.9      0.000      0.000
REMARK  7 active torsions:
REMARK  status: ('A' for Active; 'I' for Inactive)
REMARK    1  A    between atoms: C_2  and  O_3 
REMARK    2  A    between atoms: O_3  and  C_4 
REMARK    3  A    between atoms: C_4  and  C_5 
REMARK    4  A    between atoms: C_6  and  C_7 
REMARK    5  A    between atoms: C_18  and  S_19 
REMARK    6  A    between atoms: S_19  and  C_20 
REMARK    7  A    between atoms: C_20  and  C_21 
ROOT
HETATM    1  C   UNL     1     -42.864  57.900 -52.556  1.00  0.00     0.070 C 
HETATM    2  C   UNL     1     -43.101  57.274 -53.933  1.00  0.00     0.203 C 
HETATM    3  N   UNL     1     -42.693  58.190 -55.001  1.00  0.00    -0.082 N 
HETATM    4  C   UNL     1     -41.875  59.267 -54.807  1.00  0.00     0.726 A 
HETATM    5  N   UNL     1     -41.467  59.558 -53.556  1.00  0.00    -0.192 N 
HETATM    6  N   UNL     1     -43.119  58.115 -56.275  1.00  0.00    -0.128 NA
HETATM    7  C   UNL     1     -42.462  59.147 -56.815  1.00  0.00     0.226 A 
HETATM    8  N   UNL     1     -41.669  59.866 -55.952  1.00  0.00    -0.035 NA
HETATM    9  C   UNL     1     -42.029  58.966 -52.422  1.00  0.00     0.037 C 
HETATM   10  C   UNL     1     -41.629  59.590 -51.107  1.00  0.00     0.070 C 
HETATM   11  H   UNL     1     -40.950  60.423 -53.415  1.00  0.00     0.184 HD
ENDROOT
BRANCH   7  12
HETATM   12  S   UNL     1     -42.654  59.550 -58.493  1.00  0.00    -0.083 SA
BRANCH  12  13
HETATM   13  C   UNL     1     -42.076  57.997 -59.223  1.00  0.00     0.121 C 
BRANCH  13  14
HETATM   14  C   UNL     1     -43.234  57.090 -59.562  1.00  0.00    -0.047 A 
HETATM   15  C   UNL     1     -44.502  57.625 -59.842  1.00  0.00     0.031 A 
HETATM   16  C   UNL     1     -45.573  56.777 -60.125  1.00  0.00     0.034 A 
HETATM   17 CL   UNL     1     -47.122  57.444 -60.470  1.00  0.00    -0.084 Cl
HETATM   18  C   UNL     1     -45.401  55.394 -60.127  1.00  0.00     0.024 A 
HETATM   19  C   UNL     1     -44.148  54.853 -59.844  1.00  0.00     0.002 A 
HETATM   20  C   UNL     1     -43.071  55.696 -59.562  1.00  0.00     0.008 A 
ENDBRANCH  13  14
ENDBRANCH  12  13
ENDBRANCH   7  12
BRANCH   2  21
HETATM   21  C   UNL     1     -42.370  55.940 -54.108  1.00  0.00    -0.028 A 
HETATM   22  C   UNL     1     -43.096  54.786 -54.448  1.00  0.00     0.011 A 
HETATM   23  C   UNL     1     -42.451  53.556 -54.604  1.00  0.00     0.024 A 
HETATM   24  C   UNL     1     -41.074  53.468 -54.425  1.00  0.00     0.034 A 
HETATM   25 CL   UNL     1     -40.281  51.953 -54.613  1.00  0.00    -0.084 Cl
HETATM   26  C   UNL     1     -40.335  54.598 -54.090  1.00  0.00     0.024 A 
HETATM   27  C   UNL     1     -40.977  55.828 -53.933  1.00  0.00     0.011 A 
ENDBRANCH   2  21
BRANCH   1  28
HETATM   28  C   UNL     1     -43.680  57.251 -51.496  1.00  0.00     0.293 C 
HETATM   29  O   UNL     1     -44.859  57.518 -51.314  1.00  0.00    -0.259 OA
BRANCH  28  30
HETATM   30  O   UNL     1     -42.943  56.431 -50.711  1.00  0.00    -0.318 OA
BRANCH  30  31
HETATM   31  C   UNL     1     -43.350  55.054 -50.683  1.00  0.00     0.174 C 
HETATM   32  C   UNL     1     -42.148  54.138 -50.814  1.00  0.00     0.034 C 
ENDBRANCH  30  31
ENDBRANCH  28  30
ENDBRANCH   1  28
TORSDOF 7
ENDMDL
MODEL 2
REMARK VINA RESULT:      -7.8      4.096      6.369
REMARK  7 active torsions:
REMARK  status: ('A' for Active; 'I' for Inactive)
REMARK    1  A    between atoms: C_2  and  O_3 
REMARK    2  A    between atoms: O_3  and  C_4 
REMARK    3  A    between atoms: C_4  and  C_5 
REMARK    4  A    between atoms: C_6  and  C_7 
REMARK    5  A    between atoms: C_18  and  S_19 
REMARK    6  A    between atoms: S_19  and  C_20 
REMARK    7  A    between atoms: C_20  and  C_21 
ROOT
HETATM    1  C   UNL     1     -45.000  59.166 -51.828  1.00  0.00     0.070 C 
HETATM    2  C   UNL     1     -44.009  58.002 -51.743  1.00  0.00     0.203 C 
HETATM    3  N   UNL     1     -43.896  57.316 -53.032  1.00  0.00    -0.082 N 
HETATM    4  C   UNL     1     -44.307  57.855 -54.218  1.00  0.00     0.726 A 
HETATM    5  N   UNL     1     -44.915  59.058 -54.211  1.00  0.00    -0.192 N 
HETATM    6  N   UNL     1     -43.436  56.062 -53.192  1.00  0.00    -0.128 NA
HETATM    7  C   UNL     1     -43.536  55.931 -54.519  1.00  0.00     0.226 A 
HETATM    8  N   UNL     1     -44.044  57.018 -55.189  1.00  0.00    -0.035 NA
HETATM    9  C   UNL     1     -45.364  59.670 -53.038  1.00  0.00     0.037 C 
HETATM   10  C   UNL     1     -46.238  60.884 -53.241  1.00  0.00     0.070 C 
HETATM   11  H   UNL     1     -45.310  59.395 -55.086  1.00  0.00     0.184 HD
ENDROOT
BRANCH   7  12
HETATM   12  S   UNL     1     -43.082  54.451 -55.307  1.00  0.00    -0.083 SA
BRANCH  12  13
HETATM   13  C   UNL     1     -41.282  54.606 -55.180  1.00  0.00     0.121 C 
BRANCH  13  14
HETATM   14  C   UNL     1     -40.723  53.630 -54.173  1.00  0.00    -0.047 A 
HETATM   15  C   UNL     1     -40.355  52.333 -54.562  1.00  0.00     0.031 A 
HETATM   16  C   UNL     1     -39.867  51.429 -53.617  1.00  0.00     0.034 A 
HETATM   17 CL   UNL     1     -39.417  49.842 -54.107  1.00  0.00    -0.084 Cl
HETATM   18  C   UNL     1     -39.744  51.799 -52.279  1.00  0.00     0.024 A 
HETATM   19  C   UNL     1     -40.112  53.084 -51.882  1.00  0.00     0.002 A 
HETATM   20  C   UNL     1     -40.600  53.994 -52.822  1.00  0.00     0.008 A 
ENDBRANCH  13  14
ENDBRANCH  12  13
ENDBRANCH   7  12
BRANCH   2  21
HETATM   21  C   UNL     1     -42.616  58.447 -51.287  1.00  0.00    -0.028 A 
HETATM   22  C   UNL     1     -42.306  59.816 -51.223  1.00  0.00     0.011 A 
HETATM   23  C   UNL     1     -41.040  60.243 -50.818  1.00  0.00     0.024 A 
HETATM   24  C   UNL     1     -40.070  59.308 -50.469  1.00  0.00     0.034 A 
HETATM   25 CL   UNL     1     -38.509  59.835 -49.974  1.00  0.00    -0.084 Cl
HETATM   26  C   UNL     1     -40.356  57.947 -50.522  1.00  0.00     0.024 A 
HETATM   27  C   UNL     1     -41.621  57.516 -50.927  1.00  0.00     0.011 A 
ENDBRANCH   2  21
BRANCH   1  28
HETATM   28  C   UNL     1     -45.507  59.570 -50.490  1.00  0.00     0.293 C 
HETATM   29  O   UNL     1     -46.274  58.878 -49.837  1.00  0.00    -0.259 OA
BRANCH  28  30
HETATM   30  O   UNL     1     -45.108  60.817 -50.146  1.00  0.00    -0.318 OA
BRANCH  30  31
HETATM   31  C   UNL     1     -45.716  61.369 -48.967  1.00  0.00     0.174 C 
HETATM   32  C   UNL     1     -44.704  61.473 -47.841  1.00  0.00     0.034 C 
ENDBRANCH  30  31
ENDBRANCH  28  30
ENDBRANCH   1  28
TORSDOF 7
ENDMDL
MODEL 3
REMARK VINA RESULT:      -7.7      3.163      7.405
REMARK  7 active torsions:
REMARK  status: ('A' for Active; 'I' for Inactive)
REMARK    1  A    between atoms: C_2  and  O_3 
REMARK    2  A    between atoms: O_3  and  C_4 
REMARK    3  A    between atoms: C_4  and  C_5 
REMARK    4  A    between atoms: C_6  and  C_7 
REMARK    5  A    between atoms: C_18  and  S_19 
REMARK    6  A    between atoms: S_19  and  C_20 
REMARK    7  A    between atoms: C_20  and  C_21 
ROOT
HETATM    1  C   UNL     1     -42.922  59.546 -56.711  1.00  0.00     0.070 C 
HETATM    2  C   UNL     1     -42.568  58.057 -56.756  1.00  0.00     0.203 C 
HETATM    3  N   UNL     1     -42.924  57.396 -55.499  1.00  0.00    -0.082 N 
HETATM    4  C   UNL     1     -43.785  57.925 -54.580  1.00  0.00     0.726 A 
HETATM    5  N   UNL     1     -44.291  59.156 -54.795  1.00  0.00    -0.192 N 
HETATM    6  N   UNL     1     -42.406  56.229 -55.076  1.00  0.00    -0.128 NA
HETATM    7  C   UNL     1     -43.052  56.079 -53.915  1.00  0.00     0.226 A 
HETATM    8  N   UNL     1     -43.926  57.088 -53.584  1.00  0.00    -0.035 NA
HETATM    9  C   UNL     1     -43.796  60.015 -55.780  1.00  0.00     0.037 C 
HETATM   10  C   UNL     1     -44.307  61.433 -55.712  1.00  0.00     0.070 C 
HETATM   11  H   UNL     1     -44.843  59.579 -54.051  1.00  0.00     0.184 HD
ENDROOT
BRANCH   7  12
HETATM   12  S   UNL     1     -42.750  54.706 -52.896  1.00  0.00    -0.083 SA
BRANCH  12  13
HETATM   13  C   UNL     1     -40.952  54.606 -53.084  1.00  0.00     0.121 C 
BRANCH  13  14
HETATM   14  C   UNL     1     -40.447  53.222 -52.755  1.00  0.00    -0.047 A 
HETATM   15  C   UNL     1     -40.263  52.268 -53.768  1.00  0.00     0.031 A 
HETATM   16  C   UNL     1     -39.825  50.983 -53.450  1.00  0.00     0.034 A 
HETATM   17 CL   UNL     1     -39.600  49.823 -54.702  1.00  0.00    -0.084 Cl
HETATM   18  C   UNL     1     -39.571  50.627 -52.126  1.00  0.00     0.024 A 
HETATM   19  C   UNL     1     -39.757  51.565 -51.112  1.00  0.00     0.002 A 
HETATM   20  C   UNL     1     -40.194  52.854 -51.423  1.00  0.00     0.008 A 
ENDBRANCH  13  14
ENDBRANCH  12  13
ENDBRANCH   7  12
BRANCH   2  21
HETATM   21  C   UNL     1     -43.245  57.325 -57.920  1.00  0.00    -0.028 A 
HETATM   22  C   UNL     1     -42.502  56.429 -58.707  1.00  0.00     0.011 A 
HETATM   23  C   UNL     1     -43.097  55.757 -59.777  1.00  0.00     0.024 A 
HETATM   24  C   UNL     1     -44.440  55.972 -60.071  1.00  0.00     0.034 A 
HETATM   25 CL   UNL     1     -45.171  55.147 -61.392  1.00  0.00    -0.084 Cl
HETATM   26  C   UNL     1     -45.196  56.853 -59.303  1.00  0.00     0.024 A 
HETATM   27  C   UNL     1     -44.603  57.527 -58.233  1.00  0.00     0.011 A 
ENDBRANCH   2  21
BRANCH   1  28
HETATM   28  C   UNL     1     -42.166  60.334 -57.720  1.00  0.00     0.293 C 
HETATM   29  O   UNL     1     -41.079  60.841 -57.483  1.00  0.00    -0.259 OA
BRANCH  28  30
HETATM   30  O   UNL     1     -42.866  60.506 -58.866  1.00  0.00    -0.318 OA
BRANCH  30  31
HETATM   31  C   UNL     1     -42.086  60.713 -60.054  1.00  0.00     0.174 C 
HETATM   32  C   UNL     1     -42.059  59.455 -60.902  1.00  0.00     0.034 C 
ENDBRANCH  30  31
ENDBRANCH  28  30
ENDBRANCH   1  28
TORSDOF 7
ENDMDL
MODEL 4
REMARK VINA RESULT:      -7.5      0.792      1.592
REMARK  7 active torsions:
REMARK  status: ('A' for Active; 'I' for Inactive)
REMARK    1  A    between atoms: C_2  and  O_3 
REMARK    2  A    between atoms: O_3  and  C_4 
REMARK    3  A    between atoms: C_4  and  C_5 
REMARK    4  A    between atoms: C_6  and  C_7 
REMARK    5  A    between atoms: C_18  and  S_19 
REMARK    6  A    between atoms: S_19  and  C_20 
REMARK    7  A    between atoms: C_20  and  C_21 
ROOT
HETATM    1  C   UNL     1     -42.879  57.977 -52.554  1.00  0.00     0.070 C 
HETATM    2  C   UNL     1     -43.085  57.331 -53.926  1.00  0.00     0.203 C 
HETATM    3  N   UNL     1     -42.682  58.242 -54.999  1.00  0.00    -0.082 N 
HETATM    4  C   UNL     1     -41.888  59.338 -54.807  1.00  0.00     0.726 A 
HETATM    5  N   UNL     1     -41.503  59.652 -53.554  1.00  0.00    -0.192 N 
HETATM    6  N   UNL     1     -43.088  58.144 -56.278  1.00  0.00    -0.128 NA
HETATM    7  C   UNL     1     -42.445  59.184 -56.820  1.00  0.00     0.226 A 
HETATM    8  N   UNL     1     -41.679  59.929 -55.956  1.00  0.00    -0.035 NA
HETATM    9  C   UNL     1     -42.068  59.061 -52.420  1.00  0.00     0.037 C 
HETATM   10  C   UNL     1     -41.699  59.708 -51.108  1.00  0.00     0.070 C 
HETATM   11  H   UNL     1     -41.006  60.529 -53.416  1.00  0.00     0.184 HD
ENDROOT
BRANCH   7  12
HETATM   12  S   UNL     1     -42.624  59.563 -58.506  1.00  0.00    -0.083 SA
BRANCH  12  13
HETATM   13  C   UNL     1     -42.057  57.994 -59.209  1.00  0.00     0.121 C 
BRANCH  13  14
HETATM   14  C   UNL     1     -43.224  57.108 -59.572  1.00  0.00    -0.047 A 
HETATM   15  C   UNL     1     -44.480  57.663 -59.862  1.00  0.00     0.031 A 
HETATM   16  C   UNL     1     -45.560  56.834 -60.167  1.00  0.00     0.034 A 
HETATM   17 CL   UNL     1     -47.094  57.527 -60.524  1.00  0.00    -0.084 Cl
HETATM   18  C   UNL     1     -45.408  55.449 -60.183  1.00  0.00     0.024 A 
HETATM   19  C   UNL     1     -44.166  54.887 -59.889  1.00  0.00     0.002 A 
HETATM   20  C   UNL     1     -43.081  55.711 -59.585  1.00  0.00     0.008 A 
ENDBRANCH  13  14
ENDBRANCH  12  13
ENDBRANCH   7  12
BRANCH   2  21
HETATM   21  C   UNL     1     -42.324  56.010 -54.076  1.00  0.00    -0.028 A 
HETATM   22  C   UNL     1     -43.007  54.791 -53.924  1.00  0.00     0.011 A 
HETATM   23  C   UNL     1     -42.332  53.574 -54.048  1.00  0.00     0.024 A 
HETATM   24  C   UNL     1     -40.968  53.563 -54.327  1.00  0.00     0.034 A 
HETATM   25 CL   UNL     1     -40.136  52.064 -54.475  1.00  0.00    -0.084 Cl
HETATM   26  C   UNL     1     -40.273  54.758 -54.484  1.00  0.00     0.024 A 
HETATM   27  C   UNL     1     -40.945  55.976 -54.360  1.00  0.00     0.011 A 
ENDBRANCH   2  21
BRANCH   1  28
HETATM   28  C   UNL     1     -43.696  57.323 -51.497  1.00  0.00     0.293 C 
HETATM   29  O   UNL     1     -43.235  56.498 -50.722  1.00  0.00    -0.259 OA
BRANCH  28  30
HETATM   30  O   UNL     1     -45.003  57.667 -51.573  1.00  0.00    -0.318 OA
BRANCH  30  31
HETATM   31  C   UNL     1     -45.393  58.826 -50.819  1.00  0.00     0.174 C 
HETATM   32  C   UNL     1     -45.932  59.906 -51.737  1.00  0.00     0.034 C 
ENDBRANCH  30  31
ENDBRANCH  28  30
ENDBRANCH   1  28
TORSDOF 7
ENDMDL
MODEL 5
REMARK VINA RESULT:      -7.3      3.067      4.112
REMARK  7 active torsions:
REMARK  status: ('A' for Active; 'I' for Inactive)
REMARK    1  A    between atoms: C_2  and  O_3 
REMARK    2  A    between atoms: O_3  and  C_4 
REMARK    3  A    between atoms: C_4  and  C_5 
REMARK    4  A    between atoms: C_6  and  C_7 
REMARK    5  A    between atoms: C_18  and  S_19 
REMARK    6  A    between atoms: S_19  and  C_20 
REMARK    7  A    between atoms: C_20  and  C_21 
ROOT
HETATM    1  C   UNL     1     -43.093  57.877 -52.425  1.00  0.00     0.070 C 
HETATM    2  C   UNL     1     -43.238  57.292 -53.832  1.00  0.00     0.203 C 
HETATM    3  N   UNL     1     -42.734  58.225 -54.841  1.00  0.00    -0.082 N 
HETATM    4  C   UNL     1     -41.913  59.280 -54.558  1.00  0.00     0.726 A 
HETATM    5  N   UNL     1     -41.595  59.530 -53.273  1.00  0.00    -0.192 N 
HETATM    6  N   UNL     1     -43.064  58.191 -56.145  1.00  0.00    -0.128 NA
HETATM    7  C   UNL     1     -42.349  59.223 -56.606  1.00  0.00     0.226 A 
HETATM    8  N   UNL     1     -41.610  59.904 -55.668  1.00  0.00    -0.035 NA
HETATM    9  C   UNL     1     -42.251  58.922 -52.200  1.00  0.00     0.037 C 
HETATM   10  C   UNL     1     -41.940  59.504 -50.843  1.00  0.00     0.070 C 
HETATM   11  H   UNL     1     -41.074  60.381 -53.070  1.00  0.00     0.184 HD
ENDROOT
BRANCH   7  12
HETATM   12  S   UNL     1     -42.408  59.672 -58.283  1.00  0.00    -0.083 SA
BRANCH  12  13
HETATM   13  C   UNL     1     -42.141  61.454 -58.107  1.00  0.00     0.121 C 
BRANCH  13  14
HETATM   14  C   UNL     1     -41.288  61.990 -59.231  1.00  0.00    -0.047 A 
HETATM   15  C   UNL     1     -40.177  62.803 -58.960  1.00  0.00     0.031 A 
HETATM   16  C   UNL     1     -39.413  63.319 -60.008  1.00  0.00     0.034 A 
HETATM   17 CL   UNL     1     -38.050  64.312 -59.663  1.00  0.00    -0.084 Cl
HETATM   18  C   UNL     1     -39.745  63.038 -61.332  1.00  0.00     0.024 A 
HETATM   19  C   UNL     1     -40.850  62.236 -61.612  1.00  0.00     0.002 A 
HETATM   20  C   UNL     1     -41.618  61.716 -60.568  1.00  0.00     0.008 A 
ENDBRANCH  13  14
ENDBRANCH  12  13
ENDBRANCH   7  12
BRANCH   2  21
HETATM   21  C   UNL     1     -42.521  55.947 -53.987  1.00  0.00    -0.028 A 
HETATM   22  C   UNL     1     -41.207  55.798 -53.513  1.00  0.00     0.011 A 
HETATM   23  C   UNL     1     -40.531  54.583 -53.651  1.00  0.00     0.024 A 
HETATM   24  C   UNL     1     -41.162  53.504 -54.262  1.00  0.00     0.034 A 
HETATM   25 CL   UNL     1     -40.327  52.010 -54.436  1.00  0.00    -0.084 Cl
HETATM   26  C   UNL     1     -42.464  53.628 -54.738  1.00  0.00     0.024 A 
HETATM   27  C   UNL     1     -43.142  54.841 -54.601  1.00  0.00     0.011 A 
ENDBRANCH   2  21
BRANCH   1  28
HETATM   28  C   UNL     1     -43.999  57.218 -51.446  1.00  0.00     0.293 C 
HETATM   29  O   UNL     1     -45.163  57.558 -51.291  1.00  0.00    -0.259 OA
BRANCH  28  30
HETATM   30  O   UNL     1     -43.356  56.295 -50.694  1.00  0.00    -0.318 OA
BRANCH  30  31
HETATM   31  C   UNL     1     -44.034  55.040 -50.524  1.00  0.00     0.174 C 
HETATM   32  C   UNL     1     -43.177  53.895 -51.030  1.00  0.00     0.034 C 
ENDBRANCH  30  31
ENDBRANCH  28  30
ENDBRANCH   1  28
TORSDOF 7
ENDMDL
MODEL 6
REMARK VINA RESULT:      -7.0      3.582      7.039
REMARK  7 active torsions:
REMARK  status: ('A' for Active; 'I' for Inactive)
REMARK    1  A    between atoms: C_2  and  O_3 
REMARK    2  A    between atoms: O_3  and  C_4 
REMARK    3  A    between atoms: C_4  and  C_5 
REMARK    4  A    between atoms: C_6  and  C_7 
REMARK    5  A    between atoms: C_18  and  S_19 
REMARK    6  A    between atoms: S_19  and  C_20 
REMARK    7  A    between atoms: C_20  and  C_21 
ROOT
HETATM    1  C   UNL     1     -44.085  59.589 -52.323  1.00  0.00     0.070 C 
HETATM    2  C   UNL     1     -42.985  58.763 -52.997  1.00  0.00     0.203 C 
HETATM    3  N   UNL     1     -42.776  57.497 -52.292  1.00  0.00    -0.082 N 
HETATM    4  C   UNL     1     -43.674  56.959 -51.414  1.00  0.00     0.726 A 
HETATM    5  N   UNL     1     -44.789  57.655 -51.114  1.00  0.00    -0.192 N 
HETATM    6  N   UNL     1     -41.661  56.749 -52.380  1.00  0.00    -0.128 NA
HETATM    7  C   UNL     1     -41.983  55.733 -51.572  1.00  0.00     0.226 A 
HETATM    8  N   UNL     1     -43.219  55.812 -50.977  1.00  0.00    -0.035 NA
HETATM    9  C   UNL     1     -44.958  58.997 -51.464  1.00  0.00     0.037 C 
HETATM   10  C   UNL     1     -46.148  59.679 -50.835  1.00  0.00     0.070 C 
HETATM   11  H   UNL     1     -45.391  57.292 -50.378  1.00  0.00     0.184 HD
ENDROOT
BRANCH   7  12
HETATM   12  S   UNL     1     -40.867  54.434 -51.283  1.00  0.00    -0.083 SA
BRANCH  12  13
HETATM   13  C   UNL     1     -40.561  53.940 -52.998  1.00  0.00     0.121 C 
BRANCH  13  14
HETATM   14  C   UNL     1     -40.255  52.465 -53.093  1.00  0.00    -0.047 A 
HETATM   15  C   UNL     1     -39.873  51.739 -51.953  1.00  0.00     0.031 A 
HETATM   16  C   UNL     1     -39.563  50.383 -52.057  1.00  0.00     0.034 A 
HETATM   17 CL   UNL     1     -39.098  49.503 -50.652  1.00  0.00    -0.084 Cl
HETATM   18  C   UNL     1     -39.624  49.734 -53.289  1.00  0.00     0.024 A 
HETATM   19  C   UNL     1     -39.996  50.447 -54.427  1.00  0.00     0.002 A 
HETATM   20  C   UNL     1     -40.309  51.804 -54.331  1.00  0.00     0.008 A 
ENDBRANCH  13  14
ENDBRANCH  12  13
ENDBRANCH   7  12
BRANCH   2  21
HETATM   21  C   UNL     1     -43.284  58.476 -54.472  1.00  0.00    -0.028 A 
HETATM   22  C   UNL     1     -44.574  58.075 -54.857  1.00  0.00     0.011 A 
HETATM   23  C   UNL     1     -44.867  57.800 -56.195  1.00  0.00     0.024 A 
HETATM   24  C   UNL     1     -43.873  57.924 -57.162  1.00  0.00     0.034 A 
HETATM   25 CL   UNL     1     -44.233  57.580 -58.809  1.00  0.00    -0.084 Cl
HETATM   26  C   UNL     1     -42.589  58.321 -56.803  1.00  0.00     0.024 A 
HETATM   27  C   UNL     1     -42.294  58.597 -55.466  1.00  0.00     0.011 A 
ENDBRANCH   2  21
BRANCH   1  28
HETATM   28  C   UNL     1     -44.002  61.030 -52.679  1.00  0.00     0.293 C 
HETATM   29  O   UNL     1     -43.256  61.810 -52.106  1.00  0.00    -0.259 OA
BRANCH  28  30
HETATM   30  O   UNL     1     -44.914  61.380 -53.616  1.00  0.00    -0.318 OA
BRANCH  30  31
HETATM   31  C   UNL     1     -45.729  62.522 -53.306  1.00  0.00     0.174 C 
HETATM   32  C   UNL     1     -47.201  62.170 -53.403  1.00  0.00     0.034 C 
ENDBRANCH  30  31
ENDBRANCH  28  30
ENDBRANCH   1  28
TORSDOF 7
ENDMDL
MODEL 7
REMARK VINA RESULT:      -7.0      2.722      4.303
REMARK  7 active torsions:
REMARK  status: ('A' for Active; 'I' for Inactive)
REMARK    1  A    between atoms: C_2  and  O_3 
REMARK    2  A    between atoms: O_3  and  C_4 
REMARK    3  A    between atoms: C_4  and  C_5 
REMARK    4  A    between atoms: C_6  and  C_7 
REMARK    5  A    between atoms: C_18  and  S_19 
REMARK    6  A    between atoms: S_19  and  C_20 
REMARK    7  A    between atoms: C_20  and  C_21 
ROOT
HETATM    1  C   UNL     1     -42.203  55.666 -51.541  1.00  0.00     0.070 C 
HETATM    2  C   UNL     1     -41.742  56.893 -52.332  1.00  0.00     0.203 C 
HETATM    3  N   UNL     1     -42.291  56.877 -53.689  1.00  0.00    -0.082 N 
HETATM    4  C   UNL     1     -43.352  56.104 -54.071  1.00  0.00     0.726 A 
HETATM    5  N   UNL     1     -43.891  55.251 -53.177  1.00  0.00    -0.192 N 
HETATM    6  N   UNL     1     -41.785  57.569 -54.727  1.00  0.00    -0.128 NA
HETATM    7  C   UNL     1     -42.635  57.215 -55.696  1.00  0.00     0.226 A 
HETATM    8  N   UNL     1     -43.626  56.335 -55.330  1.00  0.00    -0.035 NA
HETATM    9  C   UNL     1     -43.273  54.940 -51.963  1.00  0.00     0.037 C 
HETATM   10  C   UNL     1     -43.887  53.786 -51.208  1.00  0.00     0.070 C 
HETATM   11  H   UNL     1     -44.606  54.607 -53.508  1.00  0.00     0.184 HD
ENDROOT
BRANCH   7  12
HETATM   12  S   UNL     1     -42.444  57.815 -57.315  1.00  0.00    -0.083 SA
BRANCH  12  13
HETATM   13  C   UNL     1     -44.191  57.992 -57.758  1.00  0.00     0.121 C 
BRANCH  13  14
HETATM   14  C   UNL     1     -44.588  56.990 -58.815  1.00  0.00    -0.047 A 
HETATM   15  C   UNL     1     -45.766  57.164 -59.558  1.00  0.00     0.031 A 
HETATM   16  C   UNL     1     -46.139  56.217 -60.512  1.00  0.00     0.034 A 
HETATM   17 CL   UNL     1     -47.584  56.443 -61.419  1.00  0.00    -0.084 Cl
HETATM   18  C   UNL     1     -45.354  55.088 -60.735  1.00  0.00     0.024 A 
HETATM   19  C   UNL     1     -44.186  54.902 -59.998  1.00  0.00     0.002 A 
HETATM   20  C   UNL     1     -43.805  55.847 -59.043  1.00  0.00     0.008 A 
ENDBRANCH  13  14
ENDBRANCH  12  13
ENDBRANCH   7  12
BRANCH   2  21
HETATM   21  C   UNL     1     -42.124  58.211 -51.650  1.00  0.00    -0.028 A 
HETATM   22  C   UNL     1     -43.468  58.621 -51.628  1.00  0.00     0.011 A 
HETATM   23  C   UNL     1     -43.837  59.823 -51.019  1.00  0.00     0.024 A 
HETATM   24  C   UNL     1     -42.869  60.626 -50.424  1.00  0.00     0.034 A 
HETATM   25 CL   UNL     1     -43.324  62.107 -49.678  1.00  0.00    -0.084 Cl
HETATM   26  C   UNL     1     -41.532  60.238 -50.432  1.00  0.00     0.024 A 
HETATM   27  C   UNL     1     -41.160  59.037 -51.041  1.00  0.00     0.011 A 
ENDBRANCH   2  21
BRANCH   1  28
HETATM   28  C   UNL     1     -41.320  55.384 -50.378  1.00  0.00     0.293 C 
HETATM   29  O   UNL     1     -41.554  55.805 -49.255  1.00  0.00    -0.259 OA
BRANCH  28  30
HETATM   30  O   UNL     1     -40.200  54.713 -50.735  1.00  0.00    -0.318 OA
BRANCH  30  31
HETATM   31  C   UNL     1     -40.373  53.678 -51.716  1.00  0.00     0.174 C 
HETATM   32  C   UNL     1     -39.925  52.338 -51.164  1.00  0.00     0.034 C 
ENDBRANCH  30  31
ENDBRANCH  28  30
ENDBRANCH   1  28
TORSDOF 7
ENDMDL
MODEL 8
REMARK VINA RESULT:      -6.9      4.360      7.922
REMARK  7 active torsions:
REMARK  status: ('A' for Active; 'I' for Inactive)
REMARK    1  A    between atoms: C_2  and  O_3 
REMARK    2  A    between atoms: O_3  and  C_4 
REMARK    3  A    between atoms: C_4  and  C_5 
REMARK    4  A    between atoms: C_6  and  C_7 
REMARK    5  A    between atoms: C_18  and  S_19 
REMARK    6  A    between atoms: S_19  and  C_20 
REMARK    7  A    between atoms: C_20  and  C_21 
ROOT
HETATM    1  C   UNL     1     -42.733  56.228 -51.096  1.00  0.00     0.070 C 
HETATM    2  C   UNL     1     -43.485  57.403 -51.727  1.00  0.00     0.203 C 
HETATM    3  N   UNL     1     -42.978  58.680 -51.223  1.00  0.00    -0.082 N 
HETATM    4  C   UNL     1     -41.775  58.824 -50.591  1.00  0.00     0.726 A 
HETATM    5  N   UNL     1     -41.032  57.726 -50.348  1.00  0.00    -0.192 N 
HETATM    6  N   UNL     1     -43.655  59.842 -51.269  1.00  0.00    -0.128 NA
HETATM    7  C   UNL     1     -42.767  60.666 -50.700  1.00  0.00     0.226 A 
HETATM    8  N   UNL     1     -41.590  60.085 -50.291  1.00  0.00    -0.035 NA
HETATM    9  C   UNL     1     -41.532  56.429 -50.488  1.00  0.00     0.037 C 
HETATM   10  C   UNL     1     -40.649  55.337 -49.936  1.00  0.00     0.070 C 
HETATM   11  H   UNL     1     -40.193  57.837 -49.782  1.00  0.00     0.184 HD
ENDROOT
BRANCH   7  12
HETATM   12  S   UNL     1     -43.130  62.349 -50.472  1.00  0.00    -0.083 SA
BRANCH  12  13
HETATM   13  C   UNL     1     -44.900  62.209 -50.115  1.00  0.00     0.121 C 
BRANCH  13  14
HETATM   14  C   UNL     1     -45.146  62.065 -48.633  1.00  0.00    -0.047 A 
HETATM   15  C   UNL     1     -45.646  60.864 -48.106  1.00  0.00     0.031 A 
HETATM   16  C   UNL     1     -45.899  60.750 -46.738  1.00  0.00     0.034 A 
HETATM   17 CL   UNL     1     -46.509  59.272 -46.103  1.00  0.00    -0.084 Cl
HETATM   18  C   UNL     1     -45.664  61.825 -45.882  1.00  0.00     0.024 A 
HETATM   19  C   UNL     1     -45.174  63.024 -46.397  1.00  0.00     0.002 A 
HETATM   20  C   UNL     1     -44.917  63.144 -47.764  1.00  0.00     0.008 A 
ENDBRANCH  13  14
ENDBRANCH  12  13
ENDBRANCH   7  12
BRANCH   2  21
HETATM   21  C   UNL     1     -43.407  57.398 -53.257  1.00  0.00    -0.028 A 
HETATM   22  C   UNL     1     -42.153  57.397 -53.891  1.00  0.00     0.011 A 
HETATM   23  C   UNL     1     -42.057  57.401 -55.285  1.00  0.00     0.024 A 
HETATM   24  C   UNL     1     -43.214  57.404 -56.060  1.00  0.00     0.034 A 
HETATM   25 CL   UNL     1     -43.096  57.414 -57.776  1.00  0.00    -0.084 Cl
HETATM   26  C   UNL     1     -44.466  57.403 -55.453  1.00  0.00     0.024 A 
HETATM   27  C   UNL     1     -44.564  57.399 -54.060  1.00  0.00     0.011 A 
ENDBRANCH   2  21
BRANCH   1  28
HETATM   28  C   UNL     1     -43.499  54.957 -51.187  1.00  0.00     0.293 C 
HETATM   29  O   UNL     1     -44.037  54.439 -50.219  1.00  0.00    -0.259 OA
BRANCH  28  30
HETATM   30  O   UNL     1     -43.431  54.405 -52.421  1.00  0.00    -0.318 OA
BRANCH  30  31
HETATM   31  C   UNL     1     -42.182  53.786 -52.765  1.00  0.00     0.174 C 
HETATM   32  C   UNL     1     -42.017  53.715 -54.272  1.00  0.00     0.034 C 
ENDBRANCH  30  31
ENDBRANCH  28  30
ENDBRANCH   1  28
TORSDOF 7
ENDMDL
MODEL 9
REMARK VINA RESULT:      -6.8      2.400      3.365
REMARK  7 active torsions:
REMARK  status: ('A' for Active; 'I' for Inactive)
REMARK    1  A    between atoms: C_2  and  O_3 
REMARK    2  A    between atoms: O_3  and  C_4 
REMARK    3  A    between atoms: C_4  and  C_5 
REMARK    4  A    between atoms: C_6  and  C_7 
REMARK    5  A    between atoms: C_18  and  S_19 
REMARK    6  A    between atoms: S_19  and  C_20 
REMARK    7  A    between atoms: C_20  and  C_21 
ROOT
HETATM    1  C   UNL     1     -42.219  55.996 -51.633  1.00  0.00     0.070 C 
HETATM    2  C   UNL     1     -42.696  55.299 -52.911  1.00  0.00     0.203 C 
HETATM    3  N   UNL     1     -42.687  56.224 -54.046  1.00  0.00    -0.082 N 
HETATM    4  C   UNL     1     -42.000  57.405 -54.057  1.00  0.00     0.726 A 
HETATM    5  N   UNL     1     -41.344  57.789 -52.944  1.00  0.00    -0.192 N 
HETATM    6  N   UNL     1     -43.394  56.052 -55.177  1.00  0.00    -0.128 NA
HETATM    7  C   UNL     1     -43.033  57.144 -55.860  1.00  0.00     0.226 A 
HETATM    8  N   UNL     1     -42.160  57.989 -55.218  1.00  0.00    -0.035 NA
HETATM    9  C   UNL     1     -41.529  57.166 -51.707  1.00  0.00     0.037 C 
HETATM   10  C   UNL     1     -40.911  57.880 -50.530  1.00  0.00     0.070 C 
HETATM   11  H   UNL     1     -40.930  58.719 -52.933  1.00  0.00     0.184 HD
ENDROOT
BRANCH   7  12
HETATM   12  S   UNL     1     -43.680  57.462 -57.441  1.00  0.00    -0.083 SA
BRANCH  12  13
HETATM   13  C   UNL     1     -42.124  57.634 -58.352  1.00  0.00     0.121 C 
BRANCH  13  14
HETATM   14  C   UNL     1     -41.954  59.039 -58.877  1.00  0.00    -0.047 A 
HETATM   15  C   UNL     1     -42.157  59.322 -60.237  1.00  0.00     0.031 A 
HETATM   16  C   UNL     1     -41.968  60.618 -60.719  1.00  0.00     0.034 A 
HETATM   17 CL   UNL     1     -42.222  60.954 -62.388  1.00  0.00    -0.084 Cl
HETATM   18  C   UNL     1     -41.571  61.643 -59.861  1.00  0.00     0.024 A 
HETATM   19  C   UNL     1     -41.361  61.370 -58.510  1.00  0.00     0.002 A 
HETATM   20  C   UNL     1     -41.550  60.076 -58.021  1.00  0.00     0.008 A 
ENDBRANCH  13  14
ENDBRANCH  12  13
ENDBRANCH   7  12
BRANCH   2  21
HETATM   21  C   UNL     1     -41.855  54.067 -53.259  1.00  0.00    -0.028 A 
HETATM   22  C   UNL     1     -40.754  53.724 -52.456  1.00  0.00     0.011 A 
HETATM   23  C   UNL     1     -39.968  52.609 -52.760  1.00  0.00     0.024 A 
HETATM   24  C   UNL     1     -40.276  51.825 -53.868  1.00  0.00     0.034 A 
HETATM   25 CL   UNL     1     -39.305  50.455 -54.244  1.00  0.00    -0.084 Cl
HETATM   26  C   UNL     1     -41.363  52.145 -54.676  1.00  0.00     0.024 A 
HETATM   27  C   UNL     1     -42.149  53.259 -54.375  1.00  0.00     0.011 A 
ENDBRANCH   2  21
BRANCH   1  28
HETATM   28  C   UNL     1     -42.658  55.280 -50.406  1.00  0.00     0.293 C 
HETATM   29  O   UNL     1     -43.758  54.757 -50.304  1.00  0.00    -0.259 OA
BRANCH  28  30
HETATM   30  O   UNL     1     -41.752  55.374 -49.405  1.00  0.00    -0.318 OA
BRANCH  30  31
HETATM   31  C   UNL     1     -41.143  54.141 -48.990  1.00  0.00     0.174 C 
HETATM   32  C   UNL     1     -39.632  54.234 -49.074  1.00  0.00     0.034 C 
ENDBRANCH  30  31
ENDBRANCH  28  30
ENDBRANCH   1  28
TORSDOF 7
ENDMDL
MODEL 10
REMARK VINA RESULT:      -6.6      3.472      6.636
REMARK  7 active torsions:
REMARK  status: ('A' for Active; 'I' for Inactive)
REMARK    1  A    between atoms: C_2  and  O_3 
REMARK    2  A    between atoms: O_3  and  C_4 
REMARK    3  A    between atoms: C_4  and  C_5 
REMARK    4  A    between atoms: C_6  and  C_7 
REMARK    5  A    between atoms: C_18  and  S_19 
REMARK    6  A    between atoms: S_19  and  C_20 
REMARK    7  A    between atoms: C_20  and  C_21 
ROOT
HETATM    1  C   UNL     1     -43.591  59.437 -52.223  1.00  0.00     0.070 C 
HETATM    2  C   UNL     1     -42.874  59.026 -53.513  1.00  0.00     0.203 C 
HETATM    3  N   UNL     1     -43.190  57.641 -53.868  1.00  0.00    -0.082 N 
HETATM    4  C   UNL     1     -44.251  56.948 -53.357  1.00  0.00     0.726 A 
HETATM    5  N   UNL     1     -45.021  57.535 -52.418  1.00  0.00    -0.192 N 
HETATM    6  N   UNL     1     -42.447  56.874 -54.686  1.00  0.00    -0.128 NA
HETATM    7  C   UNL     1     -43.159  55.742 -54.675  1.00  0.00     0.226 A 
HETATM    8  N   UNL     1     -44.287  55.753 -53.890  1.00  0.00    -0.035 NA
HETATM    9  C   UNL     1     -44.650  58.715 -51.767  1.00  0.00     0.037 C 
HETATM   10  C   UNL     1     -45.503  59.087 -50.579  1.00  0.00     0.070 C 
HETATM   11  H   UNL     1     -45.738  56.968 -51.970  1.00  0.00     0.184 HD
ENDROOT
BRANCH   7  12
HETATM   12  S   UNL     1     -42.638  54.351 -55.576  1.00  0.00    -0.083 SA
BRANCH  12  13
HETATM   13  C   UNL     1     -40.863  54.438 -55.227  1.00  0.00     0.121 C 
BRANCH  13  14
HETATM   14  C   UNL     1     -40.481  53.492 -54.114  1.00  0.00    -0.047 A 
HETATM   15  C   UNL     1     -40.141  52.160 -54.394  1.00  0.00     0.031 A 
HETATM   16  C   UNL     1     -39.819  51.285 -53.356  1.00  0.00     0.034 A 
HETATM   17 CL   UNL     1     -39.401  49.654 -53.712  1.00  0.00    -0.084 Cl
HETATM   18  C   UNL     1     -39.835  51.720 -52.032  1.00  0.00     0.024 A 
HETATM   19  C   UNL     1     -40.177  53.040 -51.743  1.00  0.00     0.002 A 
HETATM   20  C   UNL     1     -40.499  53.921 -52.777  1.00  0.00     0.008 A 
ENDBRANCH  13  14
ENDBRANCH  12  13
ENDBRANCH   7  12
BRANCH   2  21
HETATM   21  C   UNL     1     -43.217  59.939 -54.694  1.00  0.00    -0.028 A 
HETATM   22  C   UNL     1     -42.198  60.373 -55.559  1.00  0.00     0.011 A 
HETATM   23  C   UNL     1     -42.486  61.213 -56.638  1.00  0.00     0.024 A 
HETATM   24  C   UNL     1     -43.796  61.626 -56.864  1.00  0.00     0.034 A 
HETATM   25 CL   UNL     1     -44.150  62.664 -58.190  1.00  0.00    -0.084 Cl
HETATM   26  C   UNL     1     -44.821  61.207 -56.021  1.00  0.00     0.024 A 
HETATM   27  C   UNL     1     -44.535  60.368 -54.942  1.00  0.00     0.011 A 
ENDBRANCH   2  21
BRANCH   1  28
HETATM   28  C   UNL     1     -42.949  60.610 -51.574  1.00  0.00     0.293 C 
HETATM   29  O   UNL     1     -42.998  61.736 -52.047  1.00  0.00    -0.259 OA
BRANCH  28  30
HETATM   30  O   UNL     1     -42.231  60.262 -50.480  1.00  0.00    -0.318 OA
BRANCH  30  31
HETATM   31  C   UNL     1     -40.904  59.771 -50.730  1.00  0.00     0.174 C 
HETATM   32  C   UNL     1     -40.803  58.298 -50.382  1.00  0.00     0.034 C 
ENDBRANCH  30  31
ENDBRANCH  28  30
ENDBRANCH   1  28
TORSDOF 7
ENDMDL
