MODEL 1
REMARK VINA RESULT:      -8.4      0.000      0.000
REMARK  4 active torsions:
REMARK  status: ('A' for Active; 'I' for Inactive)
REMARK    1  A    between atoms: C_9  and  N_10 
REMARK       I    between atoms: N_10  and  C_11 
REMARK    2  A    between atoms: C_11  and  C_12 
REMARK    3  A    between atoms: C_14  and  C_15 
REMARK    4  A    between atoms: C_22  and  C_23 
ROOT
HETATM    1  N   UNL     1     -42.230  57.074 -56.904  1.00  0.00    -0.322 N 
HETATM    2  C   UNL     1     -43.283  56.856 -56.033  1.00  0.00     0.277 C 
HETATM    3  O   UNL     1     -44.418  57.304 -56.160  1.00  0.00    -0.266 OA
HETATM    4  H   UNL     1     -41.372  56.591 -56.639  1.00  0.00     0.169 HD
ENDROOT
BRANCH   2   5
HETATM    5  C   UNL     1     -42.882  56.023 -54.902  1.00  0.00     0.157 A 
HETATM    6  N   UNL     1     -41.994  54.957 -55.045  1.00  0.00    -0.216 NA
HETATM    7  C   UNL     1     -41.856  54.490 -53.817  1.00  0.00     0.180 A 
HETATM    8  O   UNL     1     -42.591  55.162 -52.880  1.00  0.00    -0.293 OA
HETATM    9  C   UNL     1     -43.247  56.140 -53.575  1.00  0.00     0.094 A 
BRANCH   7  10
HETATM   10  C   UNL     1     -41.030  53.389 -53.326  1.00  0.00     0.017 A 
HETATM   11  C   UNL     1     -40.678  53.329 -51.968  1.00  0.00     0.016 A 
HETATM   12  C   UNL     1     -39.898  52.279 -51.477  1.00  0.00     0.001 A 
HETATM   13  C   UNL     1     -39.458  51.275 -52.337  1.00  0.00     0.000 A 
HETATM   14  C   UNL     1     -39.797  51.318 -53.686  1.00  0.00     0.001 A 
HETATM   15  C   UNL     1     -40.577  52.369 -54.177  1.00  0.00     0.016 A 
ENDBRANCH   7  10
BRANCH   9  16
HETATM   16  C   UNL     1     -44.182  57.149 -52.934  1.00  0.00     0.046 A 
HETATM   17  C   UNL     1     -44.241  57.196 -51.421  1.00  0.00     0.012 A 
HETATM   18  C   UNL     1     -43.559  58.294 -52.162  1.00  0.00     0.012 A 
ENDBRANCH   9  16
ENDBRANCH   2   5
BRANCH   1  19
HETATM   19  C   UNL     1     -42.206  57.900 -58.042  1.00  0.00     0.035 A 
HETATM   20  C   UNL     1     -41.934  59.271 -57.989  1.00  0.00     0.039 A 
HETATM   21  C   UNL     1     -41.884  59.992 -59.173  1.00  0.00    -0.022 A 
HETATM   22  C   UNL     1     -41.554  61.434 -59.345  1.00  0.00     0.274 C 
HETATM   23  C   UNL     1     -42.104  59.379 -60.407  1.00  0.00    -0.025 A 
HETATM   24  N   UNL     1     -41.801  61.716 -60.824  1.00  0.00    -0.067 N 
HETATM   25  C   UNL     1     -40.803  62.628 -61.442  1.00  0.00     0.270 C 
HETATM   26  H   UNL     1     -42.727  62.156 -60.875  1.00  0.00     0.280 HD
HETATM   27  C   UNL     1     -41.934  60.362 -61.514  1.00  0.00     0.273 C 
HETATM   28  C   UNL     1     -42.389  58.027 -60.481  1.00  0.00     0.012 A 
HETATM   29  C   UNL     1     -42.440  57.291 -59.290  1.00  0.00     0.030 A 
ENDBRANCH   1  19
TORSDOF 4
ENDMDL
MODEL 2
REMARK VINA RESULT:      -8.4      1.969      2.535
REMARK  4 active torsions:
REMARK  status: ('A' for Active; 'I' for Inactive)
REMARK    1  A    between atoms: C_9  and  N_10 
REMARK       I    between atoms: N_10  and  C_11 
REMARK    2  A    between atoms: C_11  and  C_12 
REMARK    3  A    between atoms: C_14  and  C_15 
REMARK    4  A    between atoms: C_22  and  C_23 
ROOT
HETATM    1  N   UNL     1     -42.331  56.411 -56.514  1.00  0.00    -0.322 N 
HETATM    2  C   UNL     1     -42.853  56.353 -55.232  1.00  0.00     0.277 C 
HETATM    3  O   UNL     1     -43.849  56.952 -54.840  1.00  0.00    -0.266 OA
HETATM    4  H   UNL     1     -41.514  55.818 -56.651  1.00  0.00     0.169 HD
ENDROOT
BRANCH   2   5
HETATM    5  C   UNL     1     -42.055  55.488 -54.367  1.00  0.00     0.157 A 
HETATM    6  N   UNL     1     -41.888  54.128 -54.629  1.00  0.00    -0.216 NA
HETATM    7  C   UNL     1     -41.088  53.713 -53.663  1.00  0.00     0.180 A 
HETATM    8  O   UNL     1     -40.724  54.693 -52.783  1.00  0.00    -0.293 OA
HETATM    9  C   UNL     1     -41.343  55.826 -53.232  1.00  0.00     0.094 A 
BRANCH   7  10
HETATM   10  C   UNL     1     -40.534  52.383 -53.418  1.00  0.00     0.017 A 
HETATM   11  C   UNL     1     -39.965  52.080 -52.171  1.00  0.00     0.016 A 
HETATM   12  C   UNL     1     -39.439  50.812 -51.913  1.00  0.00     0.001 A 
HETATM   13  C   UNL     1     -39.474  49.828 -52.900  1.00  0.00     0.000 A 
HETATM   14  C   UNL     1     -40.033  50.112 -54.143  1.00  0.00     0.001 A 
HETATM   15  C   UNL     1     -40.558  51.380 -54.401  1.00  0.00     0.016 A 
ENDBRANCH   7  10
BRANCH   9  16
HETATM   16  C   UNL     1     -41.215  57.182 -52.563  1.00  0.00     0.046 A 
HETATM   17  C   UNL     1     -42.363  57.652 -51.693  1.00  0.00     0.012 A 
HETATM   18  C   UNL     1     -41.092  57.212 -51.052  1.00  0.00     0.012 A 
ENDBRANCH   9  16
ENDBRANCH   2   5
BRANCH   1  19
HETATM   19  C   UNL     1     -42.763  57.210 -57.587  1.00  0.00     0.035 A 
HETATM   20  C   UNL     1     -44.004  57.051 -58.212  1.00  0.00     0.039 A 
HETATM   21  C   UNL     1     -44.360  57.923 -59.230  1.00  0.00    -0.022 A 
HETATM   22  C   UNL     1     -45.646  57.967 -59.980  1.00  0.00     0.274 C 
HETATM   23  C   UNL     1     -43.506  58.947 -59.642  1.00  0.00    -0.025 A 
HETATM   24  N   UNL     1     -45.425  59.011 -61.070  1.00  0.00    -0.067 N 
HETATM   25  C   UNL     1     -46.606  59.876 -61.329  1.00  0.00     0.270 C 
HETATM   26  H   UNL     1     -45.208  58.484 -61.924  1.00  0.00     0.280 HD
HETATM   27  C   UNL     1     -44.154  59.769 -60.703  1.00  0.00     0.273 C 
HETATM   28  C   UNL     1     -42.269  59.115 -59.047  1.00  0.00     0.012 A 
HETATM   29  C   UNL     1     -41.901  58.239 -58.016  1.00  0.00     0.030 A 
ENDBRANCH   1  19
TORSDOF 4
ENDMDL
MODEL 3
REMARK VINA RESULT:      -8.3      3.672      6.621
REMARK  4 active torsions:
REMARK  status: ('A' for Active; 'I' for Inactive)
REMARK    1  A    between atoms: C_9  and  N_10 
REMARK       I    between atoms: N_10  and  C_11 
REMARK    2  A    between atoms: C_11  and  C_12 
REMARK    3  A    between atoms: C_14  and  C_15 
REMARK    4  A    between atoms: C_22  and  C_23 
ROOT
HETATM    1  N   UNL     1     -42.443  57.341 -52.168  1.00  0.00    -0.322 N 
HETATM    2  C   UNL     1     -41.589  57.178 -53.246  1.00  0.00     0.277 C 
HETATM    3  O   UNL     1     -40.968  58.076 -53.806  1.00  0.00    -0.266 OA
HETATM    4  H   UNL     1     -42.842  56.468 -51.826  1.00  0.00     0.169 HD
ENDROOT
BRANCH   2   5
HETATM    5  C   UNL     1     -41.518  55.782 -53.669  1.00  0.00     0.157 A 
HETATM    6  N   UNL     1     -40.747  54.840 -52.988  1.00  0.00    -0.216 NA
HETATM    7  C   UNL     1     -40.972  53.712 -53.639  1.00  0.00     0.180 A 
HETATM    8  O   UNL     1     -41.825  53.843 -54.699  1.00  0.00    -0.293 OA
HETATM    9  C   UNL     1     -42.171  55.166 -54.719  1.00  0.00     0.094 A 
BRANCH   7  10
HETATM   10  C   UNL     1     -40.462  52.368 -53.379  1.00  0.00     0.017 A 
HETATM   11  C   UNL     1     -39.948  52.047 -52.112  1.00  0.00     0.016 A 
HETATM   12  C   UNL     1     -39.465  50.765 -51.840  1.00  0.00     0.001 A 
HETATM   13  C   UNL     1     -39.488  49.785 -52.830  1.00  0.00     0.000 A 
HETATM   14  C   UNL     1     -39.995  50.086 -54.092  1.00  0.00     0.001 A 
HETATM   15  C   UNL     1     -40.477  51.368 -54.364  1.00  0.00     0.016 A 
ENDBRANCH   7  10
BRANCH   9  16
HETATM   16  C   UNL     1     -43.122  55.776 -55.732  1.00  0.00     0.046 A 
HETATM   17  C   UNL     1     -42.564  56.806 -56.693  1.00  0.00     0.012 A 
HETATM   18  C   UNL     1     -42.899  55.443 -57.194  1.00  0.00     0.012 A 
ENDBRANCH   9  16
ENDBRANCH   2   5
BRANCH   1  19
HETATM   19  C   UNL     1     -42.840  58.542 -51.555  1.00  0.00     0.035 A 
HETATM   20  C   UNL     1     -44.165  58.988 -51.525  1.00  0.00     0.039 A 
HETATM   21  C   UNL     1     -44.464  60.162 -50.851  1.00  0.00    -0.022 A 
HETATM   22  C   UNL     1     -45.806  60.776 -50.648  1.00  0.00     0.274 C 
HETATM   23  C   UNL     1     -43.473  60.905 -50.211  1.00  0.00    -0.025 A 
HETATM   24  N   UNL     1     -45.522  62.119 -49.981  1.00  0.00    -0.067 N 
HETATM   25  C   UNL     1     -46.499  62.487 -48.922  1.00  0.00     0.270 C 
HETATM   26  H   UNL     1     -45.566  62.819 -50.729  1.00  0.00     0.280 HD
HETATM   27  C   UNL     1     -44.070  62.082 -49.517  1.00  0.00     0.273 C 
HETATM   28  C   UNL     1     -42.153  60.491 -50.239  1.00  0.00     0.012 A 
HETATM   29  C   UNL     1     -41.842  59.305 -50.916  1.00  0.00     0.030 A 
ENDBRANCH   1  19
TORSDOF 4
ENDMDL
MODEL 4
REMARK VINA RESULT:      -8.3      1.317      1.505
REMARK  4 active torsions:
REMARK  status: ('A' for Active; 'I' for Inactive)
REMARK    1  A    between atoms: C_9  and  N_10 
REMARK       I    between atoms: N_10  and  C_11 
REMARK    2  A    between atoms: C_11  and  C_12 
REMARK    3  A    between atoms: C_14  and  C_15 
REMARK    4  A    between atoms: C_22  and  C_23 
ROOT
HETATM    1  N   UNL     1     -42.101  56.464 -56.600  1.00  0.00    -0.322 N 
HETATM    2  C   UNL     1     -42.734  56.337 -55.375  1.00  0.00     0.277 C 
HETATM    3  O   UNL     1     -43.788  56.878 -55.058  1.00  0.00    -0.266 OA
HETATM    4  H   UNL     1     -41.249  55.912 -56.681  1.00  0.00     0.169 HD
ENDROOT
BRANCH   2   5
HETATM    5  C   UNL     1     -41.980  55.475 -54.468  1.00  0.00     0.157 A 
HETATM    6  N   UNL     1     -41.807  54.113 -54.712  1.00  0.00    -0.216 NA
HETATM    7  C   UNL     1     -41.052  53.703 -53.708  1.00  0.00     0.180 A 
HETATM    8  O   UNL     1     -40.724  54.688 -52.820  1.00  0.00    -0.293 OA
HETATM    9  C   UNL     1     -41.318  55.820 -53.305  1.00  0.00     0.094 A 
BRANCH   7  10
HETATM   10  C   UNL     1     -40.515  52.372 -53.429  1.00  0.00     0.017 A 
HETATM   11  C   UNL     1     -39.958  52.093 -52.171  1.00  0.00     0.016 A 
HETATM   12  C   UNL     1     -39.448  50.825 -51.880  1.00  0.00     0.001 A 
HETATM   13  C   UNL     1     -39.489  49.819 -52.844  1.00  0.00     0.000 A 
HETATM   14  C   UNL     1     -40.038  50.079 -54.096  1.00  0.00     0.001 A 
HETATM   15  C   UNL     1     -40.547  51.347 -54.387  1.00  0.00     0.016 A 
ENDBRANCH   7  10
BRANCH   9  16
HETATM   16  C   UNL     1     -41.215  57.181 -52.642  1.00  0.00     0.046 A 
HETATM   17  C   UNL     1     -42.405  57.670 -51.843  1.00  0.00     0.012 A 
HETATM   18  C   UNL     1     -41.177  57.223 -51.127  1.00  0.00     0.012 A 
ENDBRANCH   9  16
ENDBRANCH   2   5
BRANCH   1  19
HETATM   19  C   UNL     1     -42.470  57.283 -57.682  1.00  0.00     0.035 A 
HETATM   20  C   UNL     1     -42.083  58.622 -57.798  1.00  0.00     0.039 A 
HETATM   21  C   UNL     1     -42.455  59.334 -58.929  1.00  0.00    -0.022 A 
HETATM   22  C   UNL     1     -42.100  60.738 -59.276  1.00  0.00     0.274 C 
HETATM   23  C   UNL     1     -43.209  58.744 -59.943  1.00  0.00    -0.025 A 
HETATM   24  N   UNL     1     -42.900  61.041 -60.539  1.00  0.00    -0.067 N 
HETATM   25  C   UNL     1     -42.163  61.853 -61.543  1.00  0.00     0.270 C 
HETATM   26  H   UNL     1     -43.725  61.566 -60.229  1.00  0.00     0.280 HD
HETATM   27  C   UNL     1     -43.418  59.705 -61.063  1.00  0.00     0.273 C 
HETATM   28  C   UNL     1     -43.615  57.425 -59.843  1.00  0.00     0.012 A 
HETATM   29  C   UNL     1     -43.242  56.698 -58.705  1.00  0.00     0.030 A 
ENDBRANCH   1  19
TORSDOF 4
ENDMDL
MODEL 5
REMARK VINA RESULT:      -8.1      3.088      3.813
REMARK  4 active torsions:
REMARK  status: ('A' for Active; 'I' for Inactive)
REMARK    1  A    between atoms: C_9  and  N_10 
REMARK       I    between atoms: N_10  and  C_11 
REMARK    2  A    between atoms: C_11  and  C_12 
REMARK    3  A    between atoms: C_14  and  C_15 
REMARK    4  A    between atoms: C_22  and  C_23 
ROOT
HETATM    1  N   UNL     1     -43.972  56.929 -56.836  1.00  0.00    -0.322 N 
HETATM    2  C   UNL     1     -42.607  57.119 -56.708  1.00  0.00     0.277 C 
HETATM    3  O   UNL     1     -41.900  57.760 -57.478  1.00  0.00    -0.266 OA
HETATM    4  H   UNL     1     -44.385  56.390 -56.077  1.00  0.00     0.169 HD
ENDROOT
BRANCH   2   5
HETATM    5  C   UNL     1     -42.079  56.439 -55.527  1.00  0.00     0.157 A 
HETATM    6  N   UNL     1     -41.707  55.095 -55.550  1.00  0.00    -0.216 NA
HETATM    7  C   UNL     1     -41.252  54.869 -54.330  1.00  0.00     0.180 A 
HETATM    8  O   UNL     1     -41.305  55.959 -53.506  1.00  0.00    -0.293 OA
HETATM    9  C   UNL     1     -41.835  56.961 -54.271  1.00  0.00     0.094 A 
BRANCH   7  10
HETATM   10  C   UNL     1     -40.695  53.647 -53.755  1.00  0.00     0.017 A 
HETATM   11  C   UNL     1     -40.449  53.572 -52.375  1.00  0.00     0.016 A 
HETATM   12  C   UNL     1     -39.926  52.409 -51.803  1.00  0.00     0.001 A 
HETATM   13  C   UNL     1     -39.642  51.305 -52.604  1.00  0.00     0.000 A 
HETATM   14  C   UNL     1     -39.881  51.362 -53.975  1.00  0.00     0.001 A 
HETATM   15  C   UNL     1     -40.402  52.525 -54.546  1.00  0.00     0.016 A 
ENDBRANCH   7  10
BRANCH   9  16
HETATM   16  C   UNL     1     -42.071  58.373 -53.769  1.00  0.00     0.046 A 
HETATM   17  C   UNL     1     -41.774  58.664 -52.312  1.00  0.00     0.012 A 
HETATM   18  C   UNL     1     -40.857  59.187 -53.364  1.00  0.00     0.012 A 
ENDBRANCH   9  16
ENDBRANCH   2   5
BRANCH   1  19
HETATM   19  C   UNL     1     -44.806  57.342 -57.891  1.00  0.00     0.035 A 
HETATM   20  C   UNL     1     -45.234  56.486 -58.911  1.00  0.00     0.039 A 
HETATM   21  C   UNL     1     -46.097  56.975 -59.880  1.00  0.00    -0.022 A 
HETATM   22  C   UNL     1     -46.715  56.225 -61.008  1.00  0.00     0.274 C 
HETATM   23  C   UNL     1     -46.539  58.298 -59.859  1.00  0.00    -0.025 A 
HETATM   24  N   UNL     1     -47.439  57.285 -61.831  1.00  0.00    -0.067 N 
HETATM   25  C   UNL     1     -48.753  56.843 -62.369  1.00  0.00     0.270 C 
HETATM   26  H   UNL     1     -46.816  57.504 -62.617  1.00  0.00     0.280 HD
HETATM   27  C   UNL     1     -47.498  58.544 -60.972  1.00  0.00     0.273 C 
HETATM   28  C   UNL     1     -46.117  59.166 -58.867  1.00  0.00     0.012 A 
HETATM   29  C   UNL     1     -45.247  58.680 -57.883  1.00  0.00     0.030 A 
ENDBRANCH   1  19
TORSDOF 4
ENDMDL
MODEL 6
REMARK VINA RESULT:      -8.0      1.980      2.748
REMARK  4 active torsions:
REMARK  status: ('A' for Active; 'I' for Inactive)
REMARK    1  A    between atoms: C_9  and  N_10 
REMARK       I    between atoms: N_10  and  C_11 
REMARK    2  A    between atoms: C_11  and  C_12 
REMARK    3  A    between atoms: C_14  and  C_15 
REMARK    4  A    between atoms: C_22  and  C_23 
ROOT
HETATM    1  N   UNL     1     -42.431  56.695 -55.041  1.00  0.00    -0.322 N 
HETATM    2  C   UNL     1     -41.418  56.775 -54.100  1.00  0.00     0.277 C 
HETATM    3  O   UNL     1     -40.735  57.768 -53.871  1.00  0.00    -0.266 OA
HETATM    4  H   UNL     1     -42.902  55.791 -55.060  1.00  0.00     0.169 HD
ENDROOT
BRANCH   2   5
HETATM    5  C   UNL     1     -41.234  55.507 -53.399  1.00  0.00     0.157 A 
HETATM    6  N   UNL     1     -40.753  54.367 -54.044  1.00  0.00    -0.216 NA
HETATM    7  C   UNL     1     -40.692  53.460 -53.084  1.00  0.00     0.180 A 
HETATM    8  O   UNL     1     -41.104  53.914 -51.863  1.00  0.00    -0.293 OA
HETATM    9  C   UNL     1     -41.452  55.221 -52.065  1.00  0.00     0.094 A 
BRANCH   7  10
HETATM   10  C   UNL     1     -40.238  52.072 -53.141  1.00  0.00     0.017 A 
HETATM   11  C   UNL     1     -39.744  51.450 -51.985  1.00  0.00     0.016 A 
HETATM   12  C   UNL     1     -39.314  50.120 -52.015  1.00  0.00     0.001 A 
HETATM   13  C   UNL     1     -39.372  49.396 -53.204  1.00  0.00     0.000 A 
HETATM   14  C   UNL     1     -39.859  49.998 -54.361  1.00  0.00     0.001 A 
HETATM   15  C   UNL     1     -40.288  51.327 -54.330  1.00  0.00     0.016 A 
ENDBRANCH   7  10
BRANCH   9  16
HETATM   16  C   UNL     1     -41.964  56.139 -50.971  1.00  0.00     0.046 A 
HETATM   17  C   UNL     1     -41.414  55.946 -49.572  1.00  0.00     0.012 A 
HETATM   18  C   UNL     1     -40.986  57.130 -50.370  1.00  0.00     0.012 A 
ENDBRANCH   9  16
ENDBRANCH   2   5
BRANCH   1  19
HETATM   19  C   UNL     1     -42.827  57.674 -55.969  1.00  0.00     0.035 A 
HETATM   20  C   UNL     1     -42.280  57.780 -57.252  1.00  0.00     0.039 A 
HETATM   21  C   UNL     1     -42.773  58.749 -58.114  1.00  0.00    -0.022 A 
HETATM   22  C   UNL     1     -42.378  58.991 -59.529  1.00  0.00     0.274 C 
HETATM   23  C   UNL     1     -43.794  59.616 -57.725  1.00  0.00    -0.025 A 
HETATM   24  N   UNL     1     -43.122  60.261 -59.930  1.00  0.00    -0.067 N 
HETATM   25  C   UNL     1     -43.652  60.241 -61.318  1.00  0.00     0.270 C 
HETATM   26  H   UNL     1     -42.440  61.024 -59.847  1.00  0.00     0.280 HD
HETATM   27  C   UNL     1     -44.174  60.512 -58.854  1.00  0.00     0.273 C 
HETATM   28  C   UNL     1     -44.340  59.538 -56.456  1.00  0.00     0.012 A 
HETATM   29  C   UNL     1     -43.849  58.561 -55.580  1.00  0.00     0.030 A 
ENDBRANCH   1  19
TORSDOF 4
ENDMDL
MODEL 7
REMARK VINA RESULT:      -8.0      2.072      9.039
REMARK  4 active torsions:
REMARK  status: ('A' for Active; 'I' for Inactive)
REMARK    1  A    between atoms: C_9  and  N_10 
REMARK       I    between atoms: N_10  and  C_11 
REMARK    2  A    between atoms: C_11  and  C_12 
REMARK    3  A    between atoms: C_14  and  C_15 
REMARK    4  A    between atoms: C_22  and  C_23 
ROOT
HETATM    1  N   UNL     1     -41.406  56.031 -55.793  1.00  0.00    -0.322 N 
HETATM    2  C   UNL     1     -42.680  56.524 -56.017  1.00  0.00     0.277 C 
HETATM    3  O   UNL     1     -43.677  56.249 -55.357  1.00  0.00    -0.266 OA
HETATM    4  H   UNL     1     -40.705  56.401 -56.433  1.00  0.00     0.169 HD
ENDROOT
BRANCH   2   5
HETATM    5  C   UNL     1     -42.715  57.421 -57.169  1.00  0.00     0.157 A 
HETATM    6  N   UNL     1     -41.985  58.610 -57.204  1.00  0.00    -0.216 NA
HETATM    7  C   UNL     1     -42.243  59.107 -58.401  1.00  0.00     0.180 A 
HETATM    8  O   UNL     1     -43.092  58.341 -59.150  1.00  0.00    -0.293 OA
HETATM    9  C   UNL     1     -43.394  57.265 -58.362  1.00  0.00     0.094 A 
BRANCH   7  10
HETATM   10  C   UNL     1     -41.744  60.328 -59.031  1.00  0.00     0.017 A 
HETATM   11  C   UNL     1     -41.884  60.508 -60.416  1.00  0.00     0.016 A 
HETATM   12  C   UNL     1     -41.423  61.672 -61.036  1.00  0.00     0.001 A 
HETATM   13  C   UNL     1     -40.815  62.672 -60.279  1.00  0.00     0.000 A 
HETATM   14  C   UNL     1     -40.668  62.509 -58.904  1.00  0.00     0.001 A 
HETATM   15  C   UNL     1     -41.128  61.345 -58.285  1.00  0.00     0.016 A 
ENDBRANCH   7  10
BRANCH   9  16
HETATM   16  C   UNL     1     -44.307  56.132 -58.791  1.00  0.00     0.046 A 
HETATM   17  C   UNL     1     -45.082  56.300 -60.082  1.00  0.00     0.012 A 
HETATM   18  C   UNL     1     -43.928  55.357 -60.038  1.00  0.00     0.012 A 
ENDBRANCH   9  16
ENDBRANCH   2   5
BRANCH   1  19
HETATM   19  C   UNL     1     -41.005  55.071 -54.847  1.00  0.00     0.035 A 
HETATM   20  C   UNL     1     -41.001  55.307 -53.469  1.00  0.00     0.039 A 
HETATM   21  C   UNL     1     -40.636  54.279 -52.612  1.00  0.00    -0.022 A 
HETATM   22  C   UNL     1     -40.622  54.300 -51.123  1.00  0.00     0.274 C 
HETATM   23  C   UNL     1     -40.270  53.024 -53.098  1.00  0.00    -0.025 A 
HETATM   24  N   UNL     1     -39.996  52.968 -50.721  1.00  0.00    -0.067 N 
HETATM   25  C   UNL     1     -40.624  52.337 -49.531  1.00  0.00     0.270 C 
HETATM   26  H   UNL     1     -39.013  53.173 -50.507  1.00  0.00     0.280 HD
HETATM   27  C   UNL     1     -39.985  52.092 -51.970  1.00  0.00     0.273 C 
HETATM   28  C   UNL     1     -40.254  52.772 -54.458  1.00  0.00     0.012 A 
HETATM   29  C   UNL     1     -40.623  53.804 -55.331  1.00  0.00     0.030 A 
ENDBRANCH   1  19
TORSDOF 4
ENDMDL
MODEL 8
REMARK VINA RESULT:      -7.9      3.504      8.880
REMARK  4 active torsions:
REMARK  status: ('A' for Active; 'I' for Inactive)
REMARK    1  A    between atoms: C_9  and  N_10 
REMARK       I    between atoms: N_10  and  C_11 
REMARK    2  A    between atoms: C_11  and  C_12 
REMARK    3  A    between atoms: C_14  and  C_15 
REMARK    4  A    between atoms: C_22  and  C_23 
ROOT
HETATM    1  N   UNL     1     -41.460  56.597 -52.706  1.00  0.00    -0.322 N 
HETATM    2  C   UNL     1     -42.765  57.060 -52.715  1.00  0.00     0.277 C 
HETATM    3  O   UNL     1     -43.762  56.380 -52.934  1.00  0.00    -0.266 OA
HETATM    4  H   UNL     1     -40.773  57.312 -52.475  1.00  0.00     0.169 HD
ENDROOT
BRANCH   2   5
HETATM    5  C   UNL     1     -42.827  58.494 -52.444  1.00  0.00     0.157 A 
HETATM    6  N   UNL     1     -43.379  59.003 -51.268  1.00  0.00    -0.216 NA
HETATM    7  C   UNL     1     -43.215  60.310 -51.379  1.00  0.00     0.180 A 
HETATM    8  O   UNL     1     -42.608  60.698 -52.540  1.00  0.00    -0.293 OA
HETATM    9  C   UNL     1     -42.362  59.538 -53.221  1.00  0.00     0.094 A 
BRANCH   7  10
HETATM   10  C   UNL     1     -43.571  61.376 -50.444  1.00  0.00     0.017 A 
HETATM   11  C   UNL     1     -43.010  62.654 -50.595  1.00  0.00     0.016 A 
HETATM   12  C   UNL     1     -43.343  63.690 -49.718  1.00  0.00     0.001 A 
HETATM   13  C   UNL     1     -44.243  63.461 -48.679  1.00  0.00     0.000 A 
HETATM   14  C   UNL     1     -44.809  62.200 -48.515  1.00  0.00     0.001 A 
HETATM   15  C   UNL     1     -44.474  61.164 -49.391  1.00  0.00     0.016 A 
ENDBRANCH   7  10
BRANCH   9  16
HETATM   16  C   UNL     1     -41.681  59.481 -54.576  1.00  0.00     0.046 A 
HETATM   17  C   UNL     1     -42.422  58.804 -55.711  1.00  0.00     0.012 A 
HETATM   18  C   UNL     1     -42.292  60.288 -55.704  1.00  0.00     0.012 A 
ENDBRANCH   9  16
ENDBRANCH   2   5
BRANCH   1  19
HETATM   19  C   UNL     1     -41.000  55.306 -53.021  1.00  0.00     0.035 A 
HETATM   20  C   UNL     1     -40.623  54.368 -52.056  1.00  0.00     0.039 A 
HETATM   21  C   UNL     1     -40.230  53.102 -52.465  1.00  0.00    -0.022 A 
HETATM   22  C   UNL     1     -39.851  51.947 -51.606  1.00  0.00     0.274 C 
HETATM   23  C   UNL     1     -40.200  52.752 -53.815  1.00  0.00    -0.025 A 
HETATM   24  N   UNL     1     -39.368  50.878 -52.581  1.00  0.00    -0.067 N 
HETATM   25  C   UNL     1     -39.781  49.496 -52.220  1.00  0.00     0.270 C 
HETATM   26  H   UNL     1     -38.343  50.931 -52.570  1.00  0.00     0.280 HD
HETATM   27  C   UNL     1     -39.802  51.325 -53.974  1.00  0.00     0.273 C 
HETATM   28  C   UNL     1     -40.556  53.668 -54.789  1.00  0.00     0.012 A 
HETATM   29  C   UNL     1     -40.956  54.949 -54.384  1.00  0.00     0.030 A 
ENDBRANCH   1  19
TORSDOF 4
ENDMDL
MODEL 9
REMARK VINA RESULT:      -7.5      3.775      9.293
REMARK  4 active torsions:
REMARK  status: ('A' for Active; 'I' for Inactive)
REMARK    1  A    between atoms: C_9  and  N_10 
REMARK       I    between atoms: N_10  and  C_11 
REMARK    2  A    between atoms: C_11  and  C_12 
REMARK    3  A    between atoms: C_14  and  C_15 
REMARK    4  A    between atoms: C_22  and  C_23 
ROOT
HETATM    1  N   UNL     1     -43.734  55.947 -56.059  1.00  0.00    -0.322 N 
HETATM    2  C   UNL     1     -43.346  56.909 -56.977  1.00  0.00     0.277 C 
HETATM    3  O   UNL     1     -42.239  57.432 -57.037  1.00  0.00    -0.266 OA
HETATM    4  H   UNL     1     -44.688  55.615 -56.191  1.00  0.00     0.169 HD
ENDROOT
BRANCH   2   5
HETATM    5  C   UNL     1     -44.438  57.256 -57.883  1.00  0.00     0.157 A 
HETATM    6  N   UNL     1     -45.344  58.276 -57.595  1.00  0.00    -0.216 NA
HETATM    7  C   UNL     1     -46.136  58.308 -58.652  1.00  0.00     0.180 A 
HETATM    8  O   UNL     1     -45.824  57.382 -59.608  1.00  0.00    -0.293 OA
HETATM    9  C   UNL     1     -44.740  56.710 -59.115  1.00  0.00     0.094 A 
BRANCH   7  10
HETATM   10  C   UNL     1     -47.265  59.189 -58.945  1.00  0.00     0.017 A 
HETATM   11  C   UNL     1     -47.637  59.430 -60.277  1.00  0.00     0.016 A 
HETATM   12  C   UNL     1     -48.720  60.260 -60.579  1.00  0.00     0.001 A 
HETATM   13  C   UNL     1     -49.445  60.862 -59.552  1.00  0.00     0.000 A 
HETATM   14  C   UNL     1     -49.089  60.633 -58.225  1.00  0.00     0.001 A 
HETATM   15  C   UNL     1     -48.007  59.804 -57.924  1.00  0.00     0.016 A 
ENDBRANCH   7  10
BRANCH   9  16
HETATM   16  C   UNL     1     -44.037  55.585 -59.852  1.00  0.00     0.046 A 
HETATM   17  C   UNL     1     -44.478  54.165 -59.561  1.00  0.00     0.012 A 
HETATM   18  C   UNL     1     -44.843  54.793 -60.862  1.00  0.00     0.012 A 
ENDBRANCH   9  16
ENDBRANCH   2   5
BRANCH   1  19
HETATM   19  C   UNL     1     -42.994  55.439 -54.976  1.00  0.00     0.035 A 
HETATM   20  C   UNL     1     -42.824  56.130 -53.772  1.00  0.00     0.039 A 
HETATM   21  C   UNL     1     -42.119  55.523 -52.743  1.00  0.00    -0.022 A 
HETATM   22  C   UNL     1     -41.876  56.052 -51.373  1.00  0.00     0.274 C 
HETATM   23  C   UNL     1     -41.575  54.246 -52.889  1.00  0.00    -0.025 A 
HETATM   24  N   UNL     1     -40.925  55.047 -50.730  1.00  0.00    -0.067 N 
HETATM   25  C   UNL     1     -41.210  54.774 -49.296  1.00  0.00     0.270 C 
HETATM   26  H   UNL     1     -39.988  55.457 -50.808  1.00  0.00     0.280 HD
HETATM   27  C   UNL     1     -40.924  53.810 -51.622  1.00  0.00     0.273 C 
HETATM   28  C   UNL     1     -41.719  53.551 -54.077  1.00  0.00     0.012 A 
HETATM   29  C   UNL     1     -42.432  54.156 -55.121  1.00  0.00     0.030 A 
ENDBRANCH   1  19
TORSDOF 4
ENDMDL
MODEL 10
REMARK VINA RESULT:      -7.4      2.353      8.671
REMARK  4 active torsions:
REMARK  status: ('A' for Active; 'I' for Inactive)
REMARK    1  A    between atoms: C_9  and  N_10 
REMARK       I    between atoms: N_10  and  C_11 
REMARK    2  A    between atoms: C_11  and  C_12 
REMARK    3  A    between atoms: C_14  and  C_15 
REMARK    4  A    between atoms: C_22  and  C_23 
ROOT
HETATM    1  N   UNL     1     -41.611  56.122 -53.960  1.00  0.00    -0.322 N 
HETATM    2  C   UNL     1     -42.908  56.410 -54.351  1.00  0.00     0.277 C 
HETATM    3  O   UNL     1     -43.815  55.594 -54.467  1.00  0.00    -0.266 OA
HETATM    4  H   UNL     1     -41.010  56.943 -53.895  1.00  0.00     0.169 HD
ENDROOT
BRANCH   2   5
HETATM    5  C   UNL     1     -43.080  57.833 -54.633  1.00  0.00     0.157 A 
HETATM    6  N   UNL     1     -42.404  58.469 -55.674  1.00  0.00    -0.216 NA
HETATM    7  C   UNL     1     -42.848  59.714 -55.629  1.00  0.00     0.180 A 
HETATM    8  O   UNL     1     -43.756  59.944 -54.634  1.00  0.00    -0.293 OA
HETATM    9  C   UNL     1     -43.902  58.744 -53.997  1.00  0.00     0.094 A 
BRANCH   7  10
HETATM   10  C   UNL     1     -42.523  60.850 -56.488  1.00  0.00     0.017 A 
HETATM   11  C   UNL     1     -43.159  62.085 -56.285  1.00  0.00     0.016 A 
HETATM   12  C   UNL     1     -42.856  63.187 -57.089  1.00  0.00     0.001 A 
HETATM   13  C   UNL     1     -41.913  63.069 -58.108  1.00  0.00     0.000 A 
HETATM   14  C   UNL     1     -41.273  61.851 -58.324  1.00  0.00     0.001 A 
HETATM   15  C   UNL     1     -41.577  60.750 -57.521  1.00  0.00     0.016 A 
ENDBRANCH   7  10
BRANCH   9  16
HETATM   16  C   UNL     1     -44.832  58.519 -52.819  1.00  0.00     0.046 A 
HETATM   17  C   UNL     1     -44.233  57.969 -51.541  1.00  0.00     0.012 A 
HETATM   18  C   UNL     1     -44.646  59.400 -51.599  1.00  0.00     0.012 A 
ENDBRANCH   9  16
ENDBRANCH   2   5
BRANCH   1  19
HETATM   19  C   UNL     1     -41.046  54.860 -53.706  1.00  0.00     0.035 A 
HETATM   20  C   UNL     1     -40.868  54.344 -52.418  1.00  0.00     0.039 A 
HETATM   21  C   UNL     1     -40.348  53.067 -52.272  1.00  0.00    -0.022 A 
HETATM   22  C   UNL     1     -40.136  52.312 -51.006  1.00  0.00     0.274 C 
HETATM   23  C   UNL     1     -39.997  52.294 -53.379  1.00  0.00    -0.025 A 
HETATM   24  N   UNL     1     -39.405  51.041 -51.428  1.00  0.00    -0.067 N 
HETATM   25  C   UNL     1     -39.841  49.820 -50.700  1.00  0.00     0.270 C 
HETATM   26  H   UNL     1     -38.412  51.209 -51.228  1.00  0.00     0.280 HD
HETATM   27  C   UNL     1     -39.523  50.949 -52.946  1.00  0.00     0.273 C 
HETATM   28  C   UNL     1     -40.151  52.790 -54.662  1.00  0.00     0.012 A 
HETATM   29  C   UNL     1     -40.677  54.079 -54.819  1.00  0.00     0.030 A 
ENDBRANCH   1  19
TORSDOF 4
ENDMDL
