MODEL 1
REMARK VINA RESULT:      -8.8      0.000      0.000
REMARK  3 active torsions:
REMARK  status: ('A' for Active; 'I' for Inactive)
REMARK    1  A    between atoms: N_3  and  C_4 
REMARK    2  A    between atoms: C_6  and  C_7 
REMARK       I    between atoms: C_7  and  N_8 
REMARK    3  A    between atoms: N_8  and  C_9 
ROOT
HETATM    1  C   UNL     1     -42.108  59.254 -57.126  1.00  0.00     0.072 C 
HETATM    2  C   UNL     1     -43.409  58.427 -57.226  1.00  0.00     0.149 C 
HETATM    3  N   UNL     1     -43.833  57.856 -55.922  1.00  0.00    -0.267 N 
HETATM    4  C   UNL     1     -45.182  57.663 -55.627  1.00  0.00     0.326 C 
HETATM    5  O   UNL     1     -45.628  57.123 -54.616  1.00  0.00    -0.247 OA
HETATM    6  N   UNL     1     -46.084  58.115 -56.545  1.00  0.00    -0.334 N 
HETATM    7  O   UNL     1     -43.140  57.363 -58.168  1.00  0.00    -0.319 OA
HETATM    8  C   UNL     1     -44.204  56.881 -58.881  1.00  0.00     0.080 A 
HETATM    9  C   UNL     1     -45.491  57.417 -58.785  1.00  0.00    -0.002 A 
HETATM   10  C   UNL     1     -43.944  55.825 -59.752  1.00  0.00     0.037 A 
HETATM   11  C   UNL     1     -44.976  55.286 -60.522  1.00  0.00     0.003 A 
HETATM   12  C   UNL     1     -46.268  55.800 -60.415  1.00  0.00     0.001 A 
HETATM   13  C   UNL     1     -46.528  56.860 -59.545  1.00  0.00     0.012 A 
HETATM   14  C   UNL     1     -44.472  59.397 -57.762  1.00  0.00     0.092 C 
HETATM   15  C   UNL     1     -45.732  58.575 -57.859  1.00  0.00     0.127 C 
HETATM   16  H   UNL     1     -47.036  57.831 -56.348  1.00  0.00     0.165 HD
ENDROOT
BRANCH   3  17
HETATM   17  C   UNL     1     -42.859  57.360 -54.997  1.00  0.00     0.043 A 
HETATM   18  C   UNL     1     -42.156  56.170 -55.228  1.00  0.00     0.047 A 
HETATM   19  C   UNL     1     -41.209  55.718 -54.296  1.00  0.00     0.034 A 
HETATM   20  C   UNL     1     -40.922  56.477 -53.157  1.00  0.00     0.017 A 
HETATM   21  C   UNL     1     -41.621  57.655 -52.916  1.00  0.00     0.003 A 
HETATM   22  C   UNL     1     -42.594  58.082 -53.822  1.00  0.00     0.030 A 
BRANCH  19  23
HETATM   23  C   UNL     1     -40.502  54.421 -54.461  1.00  0.00     0.252 C 
HETATM   24  N   UNL     1     -40.595  53.556 -53.390  1.00  0.00    -0.352 N 
HETATM   25  H   UNL     1     -41.003  53.915 -52.536  1.00  0.00     0.163 HD
HETATM   26  O   UNL     1     -39.839  54.213 -55.468  1.00  0.00    -0.268 OA
BRANCH  24  27
HETATM   27  C   UNL     1     -39.804  52.345 -53.267  1.00  0.00     0.084 C 
HETATM   28  C   UNL     1     -39.822  51.689 -51.886  1.00  0.00     0.025 C 
HETATM   29  C   UNL     1     -39.413  50.256 -52.184  1.00  0.00     0.002 C 
HETATM   30  C   UNL     1     -40.173  49.935 -53.461  1.00  0.00     0.002 C 
HETATM   31  C   UNL     1     -40.183  51.237 -54.262  1.00  0.00     0.025 C 
ENDBRANCH  24  27
ENDBRANCH  19  23
ENDBRANCH   3  17
TORSDOF 3
ENDMDL
MODEL 2
REMARK VINA RESULT:      -8.7      1.246      1.521
REMARK  3 active torsions:
REMARK  status: ('A' for Active; 'I' for Inactive)
REMARK    1  A    between atoms: N_3  and  C_4 
REMARK    2  A    between atoms: C_6  and  C_7 
REMARK       I    between atoms: C_7  and  N_8 
REMARK    3  A    between atoms: N_8  and  C_9 
ROOT
HETATM    1  C   UNL     1     -41.666  59.331 -57.752  1.00  0.00     0.072 C 
HETATM    2  C   UNL     1     -43.028  58.602 -57.734  1.00  0.00     0.149 C 
HETATM    3  N   UNL     1     -43.594  58.467 -56.369  1.00  0.00    -0.267 N 
HETATM    4  C   UNL     1     -44.973  58.460 -56.160  1.00  0.00     0.326 C 
HETATM    5  O   UNL     1     -45.538  58.272 -55.084  1.00  0.00    -0.247 OA
HETATM    6  N   UNL     1     -45.762  58.684 -57.250  1.00  0.00    -0.334 N 
HETATM    7  O   UNL     1     -42.792  57.293 -58.303  1.00  0.00    -0.319 OA
HETATM    8  C   UNL     1     -43.842  56.697 -58.947  1.00  0.00     0.080 A 
HETATM    9  C   UNL     1     -45.077  57.323 -59.130  1.00  0.00    -0.002 A 
HETATM   10  C   UNL     1     -43.619  55.417 -59.450  1.00  0.00     0.037 A 
HETATM   11  C   UNL     1     -44.638  54.747 -60.128  1.00  0.00     0.003 A 
HETATM   12  C   UNL     1     -45.882  55.356 -60.295  1.00  0.00     0.001 A 
HETATM   13  C   UNL     1     -46.104  56.639 -59.794  1.00  0.00     0.012 A 
HETATM   14  C   UNL     1     -43.955  59.442 -58.624  1.00  0.00     0.092 C 
HETATM   15  C   UNL     1     -45.275  58.714 -58.601  1.00  0.00     0.127 C 
HETATM   16  H   UNL     1     -46.747  58.536 -57.072  1.00  0.00     0.165 HD
ENDROOT
BRANCH   3  17
HETATM   17  C   UNL     1     -42.738  58.199 -55.252  1.00  0.00     0.043 A 
HETATM   18  C   UNL     1     -42.619  56.917 -54.701  1.00  0.00     0.047 A 
HETATM   19  C   UNL     1     -41.769  56.696 -53.606  1.00  0.00     0.034 A 
HETATM   20  C   UNL     1     -40.996  57.741 -53.090  1.00  0.00     0.017 A 
HETATM   21  C   UNL     1     -41.114  59.019 -53.627  1.00  0.00     0.003 A 
HETATM   22  C   UNL     1     -41.992  59.247 -54.687  1.00  0.00     0.030 A 
BRANCH  19  23
HETATM   23  C   UNL     1     -41.677  55.371 -52.939  1.00  0.00     0.252 C 
HETATM   24  N   UNL     1     -40.848  54.454 -53.553  1.00  0.00    -0.352 N 
HETATM   25  H   UNL     1     -40.486  54.694 -54.467  1.00  0.00     0.163 HD
HETATM   26  O   UNL     1     -42.365  55.136 -51.954  1.00  0.00    -0.268 OA
BRANCH  24  27
HETATM   27  C   UNL     1     -40.792  53.052 -53.185  1.00  0.00     0.084 C 
HETATM   28  C   UNL     1     -40.212  52.118 -54.248  1.00  0.00     0.025 C 
HETATM   29  C   UNL     1     -39.780  50.906 -53.439  1.00  0.00     0.002 C 
HETATM   30  C   UNL     1     -39.162  51.521 -52.193  1.00  0.00     0.002 C 
HETATM   31  C   UNL     1     -40.001  52.764 -51.899  1.00  0.00     0.025 C 
ENDBRANCH  24  27
ENDBRANCH  19  23
ENDBRANCH   3  17
TORSDOF 3
ENDMDL
MODEL 3
REMARK VINA RESULT:      -8.6      4.083      5.822
REMARK  3 active torsions:
REMARK  status: ('A' for Active; 'I' for Inactive)
REMARK    1  A    between atoms: N_3  and  C_4 
REMARK    2  A    between atoms: C_6  and  C_7 
REMARK       I    between atoms: C_7  and  N_8 
REMARK    3  A    between atoms: N_8  and  C_9 
ROOT
HETATM    1  C   UNL     1     -44.690  57.622 -52.748  1.00  0.00     0.072 C 
HETATM    2  C   UNL     1     -43.744  58.843 -52.725  1.00  0.00     0.149 C 
HETATM    3  N   UNL     1     -42.309  58.465 -52.762  1.00  0.00    -0.267 N 
HETATM    4  C   UNL     1     -41.364  59.288 -53.373  1.00  0.00     0.326 C 
HETATM    5  O   UNL     1     -40.148  59.105 -53.384  1.00  0.00    -0.247 OA
HETATM    6  N   UNL     1     -41.836  60.395 -54.015  1.00  0.00    -0.334 N 
HETATM    7  O   UNL     1     -44.036  59.556 -51.501  1.00  0.00    -0.319 OA
HETATM    8  C   UNL     1     -43.822  60.908 -51.504  1.00  0.00     0.080 A 
HETATM    9  C   UNL     1     -43.411  61.612 -52.639  1.00  0.00    -0.002 A 
HETATM   10  C   UNL     1     -44.060  61.580 -50.307  1.00  0.00     0.037 A 
HETATM   11  C   UNL     1     -43.874  62.961 -50.233  1.00  0.00     0.003 A 
HETATM   12  C   UNL     1     -43.443  63.667 -51.355  1.00  0.00     0.001 A 
HETATM   13  C   UNL     1     -43.207  62.995 -52.555  1.00  0.00     0.012 A 
HETATM   14  C   UNL     1     -44.117  59.673 -53.962  1.00  0.00     0.092 C 
HETATM   15  C   UNL     1     -43.191  60.863 -53.921  1.00  0.00     0.127 C 
HETATM   16  H   UNL     1     -41.106  61.025 -54.323  1.00  0.00     0.165 HD
ENDROOT
BRANCH   3  17
HETATM   17  C   UNL     1     -41.844  57.314 -52.047  1.00  0.00     0.043 A 
HETATM   18  C   UNL     1     -41.612  56.089 -52.686  1.00  0.00     0.047 A 
HETATM   19  C   UNL     1     -41.156  54.985 -51.950  1.00  0.00     0.034 A 
HETATM   20  C   UNL     1     -40.883  55.111 -50.584  1.00  0.00     0.017 A 
HETATM   21  C   UNL     1     -41.119  56.321 -49.940  1.00  0.00     0.003 A 
HETATM   22  C   UNL     1     -41.613  57.407 -50.665  1.00  0.00     0.030 A 
BRANCH  19  23
HETATM   23  C   UNL     1     -40.976  53.646 -52.572  1.00  0.00     0.252 C 
HETATM   24  N   UNL     1     -39.855  52.951 -52.167  1.00  0.00    -0.352 N 
HETATM   25  H   UNL     1     -39.179  53.448 -51.602  1.00  0.00     0.163 HD
HETATM   26  O   UNL     1     -41.760  53.265 -53.431  1.00  0.00    -0.268 OA
BRANCH  24  27
HETATM   27  C   UNL     1     -39.391  51.736 -52.811  1.00  0.00     0.084 C 
HETATM   28  C   UNL     1     -39.649  50.444 -52.034  1.00  0.00     0.025 C 
HETATM   29  C   UNL     1     -39.582  49.377 -53.116  1.00  0.00     0.002 C 
HETATM   30  C   UNL     1     -40.320  50.017 -54.282  1.00  0.00     0.002 C 
HETATM   31  C   UNL     1     -39.966  51.503 -54.216  1.00  0.00     0.025 C 
ENDBRANCH  24  27
ENDBRANCH  19  23
ENDBRANCH   3  17
TORSDOF 3
ENDMDL
MODEL 4
REMARK VINA RESULT:      -8.5      3.157      5.461
REMARK  3 active torsions:
REMARK  status: ('A' for Active; 'I' for Inactive)
REMARK    1  A    between atoms: N_3  and  C_4 
REMARK    2  A    between atoms: C_6  and  C_7 
REMARK       I    between atoms: C_7  and  N_8 
REMARK    3  A    between atoms: N_8  and  C_9 
ROOT
HETATM    1  C   UNL     1     -40.002  58.855 -52.852  1.00  0.00     0.072 C 
HETATM    2  C   UNL     1     -41.436  59.258 -52.441  1.00  0.00     0.149 C 
HETATM    3  N   UNL     1     -42.387  58.118 -52.467  1.00  0.00    -0.267 N 
HETATM    4  C   UNL     1     -43.465  58.061 -51.585  1.00  0.00     0.326 C 
HETATM    5  O   UNL     1     -44.350  57.206 -51.583  1.00  0.00    -0.247 OA
HETATM    6  N   UNL     1     -43.541  59.043 -50.642  1.00  0.00    -0.334 N 
HETATM    7  O   UNL     1     -41.855  60.273 -53.382  1.00  0.00    -0.319 OA
HETATM    8  C   UNL     1     -42.761  61.197 -52.936  1.00  0.00     0.080 A 
HETATM    9  C   UNL     1     -43.225  61.234 -51.619  1.00  0.00    -0.002 A 
HETATM   10  C   UNL     1     -43.195  62.142 -53.863  1.00  0.00     0.037 A 
HETATM   11  C   UNL     1     -44.110  63.124 -53.481  1.00  0.00     0.003 A 
HETATM   12  C   UNL     1     -44.596  63.154 -52.174  1.00  0.00     0.001 A 
HETATM   13  C   UNL     1     -44.159  62.209 -51.245  1.00  0.00     0.012 A 
HETATM   14  C   UNL     1     -41.311  59.825 -51.020  1.00  0.00     0.092 C 
HETATM   15  C   UNL     1     -42.716  60.218 -50.637  1.00  0.00     0.127 C 
HETATM   16  H   UNL     1     -44.407  59.032 -50.118  1.00  0.00     0.165 HD
ENDROOT
BRANCH   3  17
HETATM   17  C   UNL     1     -42.298  57.123 -53.494  1.00  0.00     0.043 A 
HETATM   18  C   UNL     1     -41.531  55.961 -53.335  1.00  0.00     0.047 A 
HETATM   19  C   UNL     1     -41.470  55.010 -54.365  1.00  0.00     0.034 A 
HETATM   20  C   UNL     1     -42.212  55.189 -55.537  1.00  0.00     0.017 A 
HETATM   21  C   UNL     1     -42.969  56.344 -55.706  1.00  0.00     0.003 A 
HETATM   22  C   UNL     1     -42.996  57.310 -54.698  1.00  0.00     0.030 A 
BRANCH  19  23
HETATM   23  C   UNL     1     -40.604  53.805 -54.272  1.00  0.00     0.252 C 
HETATM   24  N   UNL     1     -40.701  53.095 -53.093  1.00  0.00    -0.352 N 
HETATM   25  H   UNL     1     -41.233  53.515 -52.340  1.00  0.00     0.163 HD
HETATM   26  O   UNL     1     -39.822  53.546 -55.177  1.00  0.00    -0.268 OA
BRANCH  24  27
HETATM   27  C   UNL     1     -39.792  52.027 -52.723  1.00  0.00     0.084 C 
HETATM   28  C   UNL     1     -39.926  51.521 -51.285  1.00  0.00     0.025 C 
HETATM   29  C   UNL     1     -39.302  50.137 -51.351  1.00  0.00     0.002 C 
HETATM   30  C   UNL     1     -39.824  49.582 -52.668  1.00  0.00     0.002 C 
HETATM   31  C   UNL     1     -39.881  50.779 -53.615  1.00  0.00     0.025 C 
ENDBRANCH  24  27
ENDBRANCH  19  23
ENDBRANCH   3  17
TORSDOF 3
ENDMDL
MODEL 5
REMARK VINA RESULT:      -8.5      2.259      7.186
REMARK  3 active torsions:
REMARK  status: ('A' for Active; 'I' for Inactive)
REMARK    1  A    between atoms: N_3  and  C_4 
REMARK    2  A    between atoms: C_6  and  C_7 
REMARK       I    between atoms: C_7  and  N_8 
REMARK    3  A    between atoms: N_8  and  C_9 
ROOT
HETATM    1  C   UNL     1     -44.586  57.665 -52.708  1.00  0.00     0.072 C 
HETATM    2  C   UNL     1     -43.127  57.213 -52.480  1.00  0.00     0.149 C 
HETATM    3  N   UNL     1     -42.132  58.189 -52.993  1.00  0.00    -0.267 N 
HETATM    4  C   UNL     1     -40.890  58.339 -52.378  1.00  0.00     0.326 C 
HETATM    5  O   UNL     1     -39.971  59.055 -52.774  1.00  0.00    -0.247 OA
HETATM    6  N   UNL     1     -40.678  57.625 -51.235  1.00  0.00    -0.334 N 
HETATM    7  O   UNL     1     -42.983  55.951 -53.171  1.00  0.00    -0.319 OA
HETATM    8  C   UNL     1     -42.064  55.069 -52.669  1.00  0.00     0.080 A 
HETATM    9  C   UNL     1     -41.334  55.311 -51.503  1.00  0.00    -0.002 A 
HETATM   10  C   UNL     1     -41.899  53.875 -53.369  1.00  0.00     0.037 A 
HETATM   11  C   UNL     1     -40.988  52.921 -52.914  1.00  0.00     0.003 A 
HETATM   12  C   UNL     1     -40.238  53.165 -51.763  1.00  0.00     0.001 A 
HETATM   13  C   UNL     1     -40.406  54.360 -51.061  1.00  0.00     0.012 A 
HETATM   14  C   UNL     1     -42.982  57.042 -50.961  1.00  0.00     0.092 C 
HETATM   15  C   UNL     1     -41.557  56.595 -50.757  1.00  0.00     0.127 C 
HETATM   16  H   UNL     1     -39.722  57.665 -50.906  1.00  0.00     0.165 HD
ENDROOT
BRANCH   3  17
HETATM   17  C   UNL     1     -42.373  58.895 -54.215  1.00  0.00     0.043 A 
HETATM   18  C   UNL     1     -42.475  58.233 -55.446  1.00  0.00     0.047 A 
HETATM   19  C   UNL     1     -42.713  58.962 -56.621  1.00  0.00     0.034 A 
HETATM   20  C   UNL     1     -42.900  60.347 -56.567  1.00  0.00     0.017 A 
HETATM   21  C   UNL     1     -42.792  61.013 -55.351  1.00  0.00     0.003 A 
HETATM   22  C   UNL     1     -42.513  60.292 -54.188  1.00  0.00     0.030 A 
BRANCH  19  23
HETATM   23  C   UNL     1     -42.745  58.310 -57.957  1.00  0.00     0.252 C 
HETATM   24  N   UNL     1     -43.946  57.724 -58.301  1.00  0.00    -0.352 N 
HETATM   25  H   UNL     1     -44.653  57.655 -57.580  1.00  0.00     0.163 HD
HETATM   26  O   UNL     1     -41.727  58.262 -58.635  1.00  0.00    -0.268 OA
BRANCH  24  27
HETATM   27  C   UNL     1     -44.113  56.859 -59.454  1.00  0.00     0.084 C 
HETATM   28  C   UNL     1     -43.767  55.387 -59.224  1.00  0.00     0.025 C 
HETATM   29  C   UNL     1     -44.522  54.681 -60.339  1.00  0.00     0.002 C 
HETATM   30  C   UNL     1     -45.857  55.408 -60.370  1.00  0.00     0.002 C 
HETATM   31  C   UNL     1     -45.529  56.867 -60.053  1.00  0.00     0.025 C 
ENDBRANCH  24  27
ENDBRANCH  19  23
ENDBRANCH   3  17
TORSDOF 3
ENDMDL
MODEL 6
REMARK VINA RESULT:      -8.4      2.683      7.422
REMARK  3 active torsions:
REMARK  status: ('A' for Active; 'I' for Inactive)
REMARK    1  A    between atoms: N_3  and  C_4 
REMARK    2  A    between atoms: C_6  and  C_7 
REMARK       I    between atoms: C_7  and  N_8 
REMARK    3  A    between atoms: N_8  and  C_9 
ROOT
HETATM    1  C   UNL     1     -44.558  56.932 -51.985  1.00  0.00     0.072 C 
HETATM    2  C   UNL     1     -43.105  56.438 -51.812  1.00  0.00     0.149 C 
HETATM    3  N   UNL     1     -42.117  57.546 -51.780  1.00  0.00    -0.267 N 
HETATM    4  C   UNL     1     -40.944  57.441 -51.034  1.00  0.00     0.326 C 
HETATM    5  O   UNL     1     -40.030  58.263 -51.009  1.00  0.00    -0.247 OA
HETATM    6  N   UNL     1     -40.802  56.324 -50.264  1.00  0.00    -0.334 N 
HETATM    7  O   UNL     1     -42.838  55.570 -52.938  1.00  0.00    -0.319 OA
HETATM    8  C   UNL     1     -41.927  54.567 -52.746  1.00  0.00     0.080 A 
HETATM    9  C   UNL     1     -41.317  54.317 -51.514  1.00  0.00    -0.002 A 
HETATM   10  C   UNL     1     -41.641  53.765 -53.849  1.00  0.00     0.037 A 
HETATM   11  C   UNL     1     -40.729  52.715 -53.730  1.00  0.00     0.003 A 
HETATM   12  C   UNL     1     -40.100  52.473 -52.509  1.00  0.00     0.001 A 
HETATM   13  C   UNL     1     -40.389  53.274 -51.404  1.00  0.00     0.012 A 
HETATM   14  C   UNL     1     -43.091  55.662 -50.488  1.00  0.00     0.092 C 
HETATM   15  C   UNL     1     -41.670  55.181 -50.338  1.00  0.00     0.127 C 
HETATM   16  H   UNL     1     -39.883  56.233 -49.851  1.00  0.00     0.165 HD
ENDROOT
BRANCH   3  17
HETATM   17  C   UNL     1     -42.282  58.688 -52.628  1.00  0.00     0.043 A 
HETATM   18  C   UNL     1     -42.157  58.601 -54.021  1.00  0.00     0.047 A 
HETATM   19  C   UNL     1     -42.326  59.745 -54.817  1.00  0.00     0.034 A 
HETATM   20  C   UNL     1     -42.669  60.968 -54.232  1.00  0.00     0.017 A 
HETATM   21  C   UNL     1     -42.786  61.065 -52.849  1.00  0.00     0.003 A 
HETATM   22  C   UNL     1     -42.576  59.936 -52.055  1.00  0.00     0.030 A 
BRANCH  19  23
HETATM   23  C   UNL     1     -42.120  59.714 -56.289  1.00  0.00     0.252 C 
HETATM   24  N   UNL     1     -42.828  58.743 -56.967  1.00  0.00    -0.352 N 
HETATM   25  H   UNL     1     -43.310  58.047 -56.411  1.00  0.00     0.163 HD
HETATM   26  O   UNL     1     -41.312  60.475 -56.806  1.00  0.00    -0.268 OA
BRANCH  24  27
HETATM   27  C   UNL     1     -42.600  58.411 -58.361  1.00  0.00     0.084 C 
HETATM   28  C   UNL     1     -42.602  56.917 -58.687  1.00  0.00     0.025 C 
HETATM   29  C   UNL     1     -42.892  56.895 -60.179  1.00  0.00     0.002 C 
HETATM   30  C   UNL     1     -43.962  57.963 -60.342  1.00  0.00     0.002 C 
HETATM   31  C   UNL     1     -43.599  59.054 -59.336  1.00  0.00     0.025 C 
ENDBRANCH  24  27
ENDBRANCH  19  23
ENDBRANCH   3  17
TORSDOF 3
ENDMDL
MODEL 7
REMARK VINA RESULT:      -8.4      2.038      2.933
REMARK  3 active torsions:
REMARK  status: ('A' for Active; 'I' for Inactive)
REMARK    1  A    between atoms: N_3  and  C_4 
REMARK    2  A    between atoms: C_6  and  C_7 
REMARK       I    between atoms: C_7  and  N_8 
REMARK    3  A    between atoms: N_8  and  C_9 
ROOT
HETATM    1  C   UNL     1     -40.827  59.156 -53.568  1.00  0.00     0.072 C 
HETATM    2  C   UNL     1     -42.275  58.779 -53.950  1.00  0.00     0.149 C 
HETATM    3  N   UNL     1     -42.979  58.027 -52.880  1.00  0.00    -0.267 N 
HETATM    4  C   UNL     1     -44.357  58.145 -52.706  1.00  0.00     0.326 C 
HETATM    5  O   UNL     1     -45.040  57.505 -51.907  1.00  0.00    -0.247 OA
HETATM    6  N   UNL     1     -45.002  59.053 -53.493  1.00  0.00    -0.334 N 
HETATM    7  O   UNL     1     -42.180  57.967 -55.143  1.00  0.00    -0.319 OA
HETATM    8  C   UNL     1     -43.241  58.003 -56.006  1.00  0.00     0.080 A 
HETATM    9  C   UNL     1     -44.352  58.830 -55.813  1.00  0.00    -0.002 A 
HETATM   10  C   UNL     1     -43.161  57.182 -57.129  1.00  0.00     0.037 A 
HETATM   11  C   UNL     1     -44.200  57.171 -58.060  1.00  0.00     0.003 A 
HETATM   12  C   UNL     1     -45.321  57.976 -57.864  1.00  0.00     0.001 A 
HETATM   13  C   UNL     1     -45.401  58.801 -56.741  1.00  0.00     0.012 A 
HETATM   14  C   UNL     1     -42.986  60.110 -54.232  1.00  0.00     0.092 C 
HETATM   15  C   UNL     1     -44.394  59.724 -54.608  1.00  0.00     0.127 C 
HETATM   16  H   UNL     1     -46.010  59.003 -53.423  1.00  0.00     0.165 HD
ENDROOT
BRANCH   3  17
HETATM   17  C   UNL     1     -42.276  57.056 -52.095  1.00  0.00     0.043 A 
HETATM   18  C   UNL     1     -41.950  55.791 -52.599  1.00  0.00     0.047 A 
HETATM   19  C   UNL     1     -41.261  54.868 -51.798  1.00  0.00     0.034 A 
HETATM   20  C   UNL     1     -40.850  55.222 -50.508  1.00  0.00     0.017 A 
HETATM   21  C   UNL     1     -41.177  56.473 -49.996  1.00  0.00     0.003 A 
HETATM   22  C   UNL     1     -41.900  57.375 -50.779  1.00  0.00     0.030 A 
BRANCH  19  23
HETATM   23  C   UNL     1     -40.968  53.487 -52.264  1.00  0.00     0.252 C 
HETATM   24  N   UNL     1     -39.871  52.885 -51.683  1.00  0.00    -0.352 N 
HETATM   25  H   UNL     1     -39.275  53.465 -51.104  1.00  0.00     0.163 HD
HETATM   26  O   UNL     1     -41.643  52.991 -53.156  1.00  0.00    -0.268 OA
BRANCH  24  27
HETATM   27  C   UNL     1     -39.298  51.639 -52.154  1.00  0.00     0.084 C 
HETATM   28  C   UNL     1     -39.846  50.374 -51.491  1.00  0.00     0.025 C 
HETATM   29  C   UNL     1     -39.511  49.287 -52.500  1.00  0.00     0.002 C 
HETATM   30  C   UNL     1     -39.828  49.943 -53.836  1.00  0.00     0.002 C 
HETATM   31  C   UNL     1     -39.433  51.410 -53.668  1.00  0.00     0.025 C 
ENDBRANCH  24  27
ENDBRANCH  19  23
ENDBRANCH   3  17
TORSDOF 3
ENDMDL
MODEL 8
REMARK VINA RESULT:      -8.4      4.159      8.654
REMARK  3 active torsions:
REMARK  status: ('A' for Active; 'I' for Inactive)
REMARK    1  A    between atoms: N_3  and  C_4 
REMARK    2  A    between atoms: C_6  and  C_7 
REMARK       I    between atoms: C_7  and  N_8 
REMARK    3  A    between atoms: N_8  and  C_9 
ROOT
HETATM    1  C   UNL     1     -40.854  58.132 -53.716  1.00  0.00     0.072 C 
HETATM    2  C   UNL     1     -41.371  56.742 -53.284  1.00  0.00     0.149 C 
HETATM    3  N   UNL     1     -42.814  56.546 -53.575  1.00  0.00    -0.267 N 
HETATM    4  C   UNL     1     -43.321  55.284 -53.880  1.00  0.00     0.326 C 
HETATM    5  O   UNL     1     -44.507  55.006 -54.053  1.00  0.00    -0.247 OA
HETATM    6  N   UNL     1     -42.417  54.269 -53.997  1.00  0.00    -0.334 N 
HETATM    7  O   UNL     1     -41.137  56.648 -51.860  1.00  0.00    -0.319 OA
HETATM    8  C   UNL     1     -40.929  55.397 -51.346  1.00  0.00     0.080 A 
HETATM    9  C   UNL     1     -40.867  54.248 -52.139  1.00  0.00    -0.002 A 
HETATM   10  C   UNL     1     -40.751  55.312 -49.966  1.00  0.00     0.037 A 
HETATM   11  C   UNL     1     -40.524  54.071 -49.368  1.00  0.00     0.003 A 
HETATM   12  C   UNL     1     -40.483  52.917 -50.150  1.00  0.00     0.001 A 
HETATM   13  C   UNL     1     -40.658  53.003 -51.532  1.00  0.00     0.012 A 
HETATM   14  C   UNL     1     -40.521  55.728 -54.062  1.00  0.00     0.092 C 
HETATM   15  C   UNL     1     -41.034  54.379 -53.625  1.00  0.00     0.127 C 
HETATM   16  H   UNL     1     -42.845  53.356 -54.085  1.00  0.00     0.165 HD
ENDROOT
BRANCH   3  17
HETATM   17  C   UNL     1     -43.740  57.627 -53.409  1.00  0.00     0.043 A 
HETATM   18  C   UNL     1     -44.170  58.046 -52.143  1.00  0.00     0.047 A 
HETATM   19  C   UNL     1     -45.078  59.109 -52.023  1.00  0.00     0.034 A 
HETATM   20  C   UNL     1     -45.522  59.790 -53.161  1.00  0.00     0.017 A 
HETATM   21  C   UNL     1     -45.107  59.375 -54.421  1.00  0.00     0.003 A 
HETATM   22  C   UNL     1     -44.236  58.290 -54.543  1.00  0.00     0.030 A 
BRANCH  19  23
HETATM   23  C   UNL     1     -45.623  59.531 -50.706  1.00  0.00     0.252 C 
HETATM   24  N   UNL     1     -45.606  60.890 -50.465  1.00  0.00    -0.352 N 
HETATM   25  H   UNL     1     -45.105  61.472 -51.124  1.00  0.00     0.163 HD
HETATM   26  O   UNL     1     -45.984  58.685 -49.897  1.00  0.00    -0.268 OA
BRANCH  24  27
HETATM   27  C   UNL     1     -45.889  61.477 -49.169  1.00  0.00     0.084 C 
HETATM   28  C   UNL     1     -44.748  61.401 -48.153  1.00  0.00     0.025 C 
HETATM   29  C   UNL     1     -45.092  62.508 -47.170  1.00  0.00     0.002 C 
HETATM   30  C   UNL     1     -45.565  63.639 -48.071  1.00  0.00     0.002 C 
HETATM   31  C   UNL     1     -46.306  62.956 -49.220  1.00  0.00     0.025 C 
ENDBRANCH  24  27
ENDBRANCH  19  23
ENDBRANCH   3  17
TORSDOF 3
ENDMDL
MODEL 9
REMARK VINA RESULT:      -8.3     15.801     17.840
REMARK  3 active torsions:
REMARK  status: ('A' for Active; 'I' for Inactive)
REMARK    1  A    between atoms: N_3  and  C_4 
REMARK    2  A    between atoms: C_6  and  C_7 
REMARK       I    between atoms: C_7  and  N_8 
REMARK    3  A    between atoms: N_8  and  C_9 
ROOT
HETATM    1  C   UNL     1     -33.693  38.841 -54.403  1.00  0.00     0.072 C 
HETATM    2  C   UNL     1     -34.591  39.982 -54.929  1.00  0.00     0.149 C 
HETATM    3  N   UNL     1     -35.086  40.873 -53.849  1.00  0.00    -0.267 N 
HETATM    4  C   UNL     1     -35.328  42.225 -54.087  1.00  0.00     0.326 C 
HETATM    5  O   UNL     1     -35.814  43.023 -53.287  1.00  0.00    -0.247 OA
HETATM    6  N   UNL     1     -34.992  42.703 -55.320  1.00  0.00    -0.334 N 
HETATM    7  O   UNL     1     -35.706  39.344 -55.593  1.00  0.00    -0.319 OA
HETATM    8  C   UNL     1     -36.293  40.033 -56.620  1.00  0.00     0.080 A 
HETATM    9  C   UNL     1     -35.820  41.264 -57.081  1.00  0.00    -0.002 A 
HETATM   10  C   UNL     1     -37.396  39.431 -57.223  1.00  0.00     0.037 A 
HETATM   11  C   UNL     1     -38.043  40.067 -58.284  1.00  0.00     0.003 A 
HETATM   12  C   UNL     1     -37.591  41.306 -58.735  1.00  0.00     0.001 A 
HETATM   13  C   UNL     1     -36.485  41.908 -58.133  1.00  0.00     0.012 A 
HETATM   14  C   UNL     1     -33.720  40.767 -55.920  1.00  0.00     0.092 C 
HETATM   15  C   UNL     1     -34.612  41.871 -56.428  1.00  0.00     0.127 C 
HETATM   16  H   UNL     1     -35.309  43.649 -55.486  1.00  0.00     0.165 HD
ENDROOT
BRANCH   3  17
HETATM   17  C   UNL     1     -35.461  40.331 -52.577  1.00  0.00     0.043 A 
HETATM   18  C   UNL     1     -36.548  39.459 -52.435  1.00  0.00     0.047 A 
HETATM   19  C   UNL     1     -36.883  38.949 -51.171  1.00  0.00     0.034 A 
HETATM   20  C   UNL     1     -36.105  39.267 -50.053  1.00  0.00     0.017 A 
HETATM   21  C   UNL     1     -35.030  40.139 -50.184  1.00  0.00     0.003 A 
HETATM   22  C   UNL     1     -34.723  40.679 -51.434  1.00  0.00     0.030 A 
BRANCH  19  23
HETATM   23  C   UNL     1     -38.077  38.088 -50.962  1.00  0.00     0.252 C 
HETATM   24  N   UNL     1     -39.254  38.760 -50.700  1.00  0.00    -0.352 N 
HETATM   25  H   UNL     1     -39.192  39.756 -50.530  1.00  0.00     0.163 HD
HETATM   26  O   UNL     1     -37.956  36.870 -50.963  1.00  0.00    -0.268 OA
BRANCH  24  27
HETATM   27  C   UNL     1     -40.469  38.104 -50.257  1.00  0.00     0.084 C 
HETATM   28  C   UNL     1     -40.992  38.548 -48.890  1.00  0.00     0.025 C 
HETATM   29  C   UNL     1     -42.459  38.149 -48.940  1.00  0.00     0.002 C 
HETATM   30  C   UNL     1     -42.876  38.533 -50.352  1.00  0.00     0.002 C 
HETATM   31  C   UNL     1     -41.655  38.244 -51.225  1.00  0.00     0.025 C 
ENDBRANCH  24  27
ENDBRANCH  19  23
ENDBRANCH   3  17
TORSDOF 3
ENDMDL
MODEL 10
REMARK VINA RESULT:      -8.1      1.760      2.799
REMARK  3 active torsions:
REMARK  status: ('A' for Active; 'I' for Inactive)
REMARK    1  A    between atoms: N_3  and  C_4 
REMARK    2  A    between atoms: C_6  and  C_7 
REMARK       I    between atoms: C_7  and  N_8 
REMARK    3  A    between atoms: N_8  and  C_9 
ROOT
HETATM    1  C   UNL     1     -43.605  55.422 -58.942  1.00  0.00     0.072 C 
HETATM    2  C   UNL     1     -43.813  56.927 -58.663  1.00  0.00     0.149 C 
HETATM    3  N   UNL     1     -43.077  57.399 -57.462  1.00  0.00    -0.267 N 
HETATM    4  C   UNL     1     -42.593  58.704 -57.384  1.00  0.00     0.326 C 
HETATM    5  O   UNL     1     -42.048  59.213 -56.406  1.00  0.00    -0.247 OA
HETATM    6  N   UNL     1     -42.739  59.483 -58.494  1.00  0.00    -0.334 N 
HETATM    7  O   UNL     1     -45.235  57.109 -58.475  1.00  0.00    -0.319 OA
HETATM    8  C   UNL     1     -45.754  58.331 -58.808  1.00  0.00     0.080 A 
HETATM    9  C   UNL     1     -44.989  59.354 -59.375  1.00  0.00    -0.002 A 
HETATM   10  C   UNL     1     -47.116  58.513 -58.579  1.00  0.00     0.037 A 
HETATM   11  C   UNL     1     -47.720  59.729 -58.903  1.00  0.00     0.003 A 
HETATM   12  C   UNL     1     -46.960  60.763 -59.448  1.00  0.00     0.001 A 
HETATM   13  C   UNL     1     -45.596  60.579 -59.680  1.00  0.00     0.012 A 
HETATM   14  C   UNL     1     -43.314  57.650 -59.921  1.00  0.00     0.092 C 
HETATM   15  C   UNL     1     -43.530  59.115 -59.635  1.00  0.00     0.127 C 
HETATM   16  H   UNL     1     -42.496  60.453 -58.341  1.00  0.00     0.165 HD
ENDROOT
BRANCH   3  17
HETATM   17  C   UNL     1     -42.973  56.566 -56.301  1.00  0.00     0.043 A 
HETATM   18  C   UNL     1     -41.859  55.750 -56.073  1.00  0.00     0.047 A 
HETATM   19  C   UNL     1     -41.795  54.949 -54.923  1.00  0.00     0.034 A 
HETATM   20  C   UNL     1     -42.819  54.996 -53.972  1.00  0.00     0.017 A 
HETATM   21  C   UNL     1     -43.933  55.798 -54.195  1.00  0.00     0.003 A 
HETATM   22  C   UNL     1     -44.016  56.563 -55.360  1.00  0.00     0.030 A 
BRANCH  19  23
HETATM   23  C   UNL     1     -40.670  54.006 -54.683  1.00  0.00     0.252 C 
HETATM   24  N   UNL     1     -40.963  52.928 -53.873  1.00  0.00    -0.352 N 
HETATM   25  H   UNL     1     -41.856  52.935 -53.396  1.00  0.00     0.163 HD
HETATM   26  O   UNL     1     -39.562  54.254 -55.139  1.00  0.00    -0.268 OA
BRANCH  24  27
HETATM   27  C   UNL     1     -39.957  52.024 -53.348  1.00  0.00     0.084 C 
HETATM   28  C   UNL     1     -40.001  51.803 -51.835  1.00  0.00     0.025 C 
HETATM   29  C   UNL     1     -39.268  50.483 -51.661  1.00  0.00     0.002 C 
HETATM   30  C   UNL     1     -39.787  49.642 -52.818  1.00  0.00     0.002 C 
HETATM   31  C   UNL     1     -39.974  50.622 -53.976  1.00  0.00     0.025 C 
ENDBRANCH  24  27
ENDBRANCH  19  23
ENDBRANCH   3  17
TORSDOF 3
ENDMDL
