MODEL 1
REMARK VINA RESULT:      -9.2      0.000      0.000
REMARK  8 active torsions:
REMARK  status: ('A' for Active; 'I' for Inactive)
REMARK    1  A    between atoms: C_3  and  C_4 
REMARK    2  A    between atoms: N_5  and  N_6 
REMARK    3  A    between atoms: C_17  and  C_18 
REMARK       I    between atoms: C_18  and  N_19 
REMARK    4  A    between atoms: N_19  and  C_20 
REMARK    5  A    between atoms: C_20  and  C_21 
REMARK    6  A    between atoms: C_21  and  C_22 
REMARK    7  A    between atoms: C_29  and  N_30 
REMARK    8  A    between atoms: C_31  and  O_32 
ROOT
HETATM    1  N   UNL     1     -42.605  55.447 -52.972  1.00  0.00    -0.202 N 
HETATM    2  C   UNL     1     -42.997  56.018 -54.169  1.00  0.00     0.183 A 
HETATM    3  C   UNL     1     -43.890  57.039 -53.854  1.00  0.00     0.124 A 
HETATM    4  N   UNL     1     -44.522  57.735 -54.834  1.00  0.00    -0.242 NA
HETATM    5  C   UNL     1     -44.153  57.422 -56.086  1.00  0.00     0.086 A 
HETATM    6  C   UNL     1     -43.213  56.398 -56.375  1.00  0.00     0.088 A 
HETATM    7  N   UNL     1     -42.637  55.649 -55.421  1.00  0.00    -0.225 NA
HETATM    8  C   UNL     1     -44.701  58.144 -57.140  1.00  0.00     0.034 A 
HETATM    9  C   UNL     1     -44.340  57.895 -58.466  1.00  0.00     0.002 A 
HETATM   10  C   UNL     1     -43.415  56.901 -58.746  1.00  0.00     0.002 A 
HETATM   11  C   UNL     1     -42.865  56.159 -57.699  1.00  0.00     0.034 A 
HETATM   12  C   UNL     1     -43.970  57.139 -52.433  1.00  0.00     0.099 C 
HETATM   13  C   UNL     1     -42.935  56.341 -51.956  1.00  0.00     0.122 C 
ENDROOT
BRANCH  12  14
HETATM   14  C   UNL     1     -44.962  57.865 -51.641  1.00  0.00     0.236 C 
HETATM   15  N   UNL     1     -45.334  59.107 -52.150  1.00  0.00    -0.258 NA
HETATM   16  H   UNL     1     -45.256  59.089 -53.157  1.00  0.00     0.130 HD
HETATM   17  O   UNL     1     -45.383  57.468 -50.560  1.00  0.00    -0.274 OA
BRANCH  15  18
HETATM   18  C   UNL     1     -44.563  60.266 -51.712  1.00  0.00     0.099 C 
BRANCH  18  19
HETATM   19  C   UNL     1     -43.425  60.724 -52.624  1.00  0.00     0.048 C 
BRANCH  19  20
HETATM   20  C   UNL     1     -42.120  60.093 -52.176  1.00  0.00    -0.083 C 
HETATM   21  C   UNL     1     -41.223  59.517 -53.245  1.00  0.00     0.034 C 
HETATM   22  C   UNL     1     -40.120  58.604 -52.696  1.00  0.00     0.005 C 
HETATM   23  C   UNL     1     -39.491  59.180 -51.431  1.00  0.00     0.004 C 
HETATM   24  C   UNL     1     -40.542  59.401 -50.346  1.00  0.00     0.027 C 
HETATM   25  C   UNL     1     -41.800  60.028 -50.869  1.00  0.00    -0.024 C 
ENDBRANCH  19  20
ENDBRANCH  18  19
ENDBRANCH  15  18
ENDBRANCH  12  14
BRANCH  13  26
HETATM   26  N   UNL     1     -42.368  56.220 -50.713  1.00  0.00    -0.286 NA
HETATM   27  H   UNL     1     -41.503  56.741 -50.560  1.00  0.00     0.125 HD
HETATM   28  H   UNL     1     -42.186  55.254 -50.422  1.00  0.00     0.125 HD
ENDBRANCH  13  26
BRANCH   1  29
HETATM   29  N   UNL     1     -42.044  54.225 -52.665  1.00  0.00    -0.176 NA
HETATM   30  C   UNL     1     -40.954  53.917 -53.293  1.00  0.00     0.153 C 
BRANCH  30  31
HETATM   31  C   UNL     1     -40.400  52.545 -53.199  1.00  0.00     0.016 A 
HETATM   32  C   UNL     1     -40.454  51.728 -54.333  1.00  0.00     0.016 A 
HETATM   33  C   UNL     1     -40.029  50.399 -54.252  1.00  0.00     0.001 A 
HETATM   34  C   UNL     1     -39.555  49.884 -53.044  1.00  0.00     0.003 A 
HETATM   35  C   UNL     1     -39.499  50.696 -51.912  1.00  0.00     0.037 A 
HETATM   36  C   UNL     1     -39.922  52.020 -51.990  1.00  0.00     0.077 A 
BRANCH  36  37
HETATM   37  O   UNL     1     -39.877  52.747 -50.831  1.00  0.00    -0.360 OA
HETATM   38  H   UNL     1     -40.522  53.478 -50.944  1.00  0.00     0.217 HD
ENDBRANCH  36  37
ENDBRANCH  30  31
ENDBRANCH   1  29
TORSDOF 8
ENDMDL
MODEL 2
REMARK VINA RESULT:      -8.5      1.906      6.165
REMARK  8 active torsions:
REMARK  status: ('A' for Active; 'I' for Inactive)
REMARK    1  A    between atoms: C_3  and  C_4 
REMARK    2  A    between atoms: N_5  and  N_6 
REMARK    3  A    between atoms: C_17  and  C_18 
REMARK       I    between atoms: C_18  and  N_19 
REMARK    4  A    between atoms: N_19  and  C_20 
REMARK    5  A    between atoms: C_20  and  C_21 
REMARK    6  A    between atoms: C_21  and  C_22 
REMARK    7  A    between atoms: C_29  and  N_30 
REMARK    8  A    between atoms: C_31  and  O_32 
ROOT
HETATM    1  N   UNL     1     -42.697  55.041 -53.650  1.00  0.00    -0.202 N 
HETATM    2  C   UNL     1     -41.917  53.931 -53.385  1.00  0.00     0.183 A 
HETATM    3  C   UNL     1     -41.518  54.028 -52.054  1.00  0.00     0.124 A 
HETATM    4  N   UNL     1     -40.662  53.121 -51.518  1.00  0.00    -0.242 NA
HETATM    5  C   UNL     1     -40.319  52.110 -52.331  1.00  0.00     0.086 A 
HETATM    6  C   UNL     1     -40.768  52.019 -53.674  1.00  0.00     0.088 A 
HETATM    7  N   UNL     1     -41.554  52.949 -54.243  1.00  0.00    -0.225 NA
HETATM    8  C   UNL     1     -39.503  51.102 -51.829  1.00  0.00     0.034 A 
HETATM    9  C   UNL     1     -39.132  50.003 -52.607  1.00  0.00     0.002 A 
HETATM   10  C   UNL     1     -39.580  49.911 -53.916  1.00  0.00     0.002 A 
HETATM   11  C   UNL     1     -40.389  50.922 -54.438  1.00  0.00     0.034 A 
HETATM   12  C   UNL     1     -42.145  55.177 -51.484  1.00  0.00     0.099 C 
HETATM   13  C   UNL     1     -43.086  55.580 -52.426  1.00  0.00     0.122 C 
ENDROOT
BRANCH  12  14
HETATM   14  C   UNL     1     -41.825  55.835 -50.217  1.00  0.00     0.236 C 
HETATM   15  N   UNL     1     -41.910  57.225 -50.233  1.00  0.00    -0.258 NA
HETATM   16  H   UNL     1     -42.611  57.507 -50.903  1.00  0.00     0.130 HD
HETATM   17  O   UNL     1     -41.423  55.232 -49.228  1.00  0.00    -0.274 OA
BRANCH  15  18
HETATM   18  C   UNL     1     -40.702  57.964 -50.587  1.00  0.00     0.099 C 
BRANCH  18  19
HETATM   19  C   UNL     1     -40.703  59.467 -50.303  1.00  0.00     0.048 C 
BRANCH  19  20
HETATM   20  C   UNL     1     -41.804  60.140 -51.100  1.00  0.00    -0.083 C 
HETATM   21  C   UNL     1     -41.816  59.918 -52.594  1.00  0.00     0.034 C 
HETATM   22  C   UNL     1     -42.724  60.892 -53.353  1.00  0.00     0.005 C 
HETATM   23  C   UNL     1     -44.047  61.113 -52.626  1.00  0.00     0.004 C 
HETATM   24  C   UNL     1     -43.815  61.644 -51.213  1.00  0.00     0.027 C 
HETATM   25  C   UNL     1     -42.712  60.928 -50.492  1.00  0.00    -0.024 C 
ENDBRANCH  19  20
ENDBRANCH  18  19
ENDBRANCH  15  18
ENDBRANCH  12  14
BRANCH  13  26
HETATM   26  N   UNL     1     -44.134  56.462 -52.356  1.00  0.00    -0.286 NA
HETATM   27  H   UNL     1     -44.017  57.340 -52.865  1.00  0.00     0.125 HD
HETATM   28  H   UNL     1     -44.418  56.708 -51.403  1.00  0.00     0.125 HD
ENDBRANCH  13  26
BRANCH   1  29
HETATM   29  N   UNL     1     -43.064  55.660 -54.826  1.00  0.00    -0.176 NA
HETATM   30  C   UNL     1     -42.207  56.489 -55.333  1.00  0.00     0.153 C 
BRANCH  30  31
HETATM   31  C   UNL     1     -42.593  57.365 -56.466  1.00  0.00     0.016 A 
HETATM   32  C   UNL     1     -42.328  58.735 -56.366  1.00  0.00     0.016 A 
HETATM   33  C   UNL     1     -42.765  59.601 -57.372  1.00  0.00     0.001 A 
HETATM   34  C   UNL     1     -43.467  59.104 -58.472  1.00  0.00     0.003 A 
HETATM   35  C   UNL     1     -43.732  57.740 -58.574  1.00  0.00     0.037 A 
HETATM   36  C   UNL     1     -43.298  56.875 -57.573  1.00  0.00     0.077 A 
BRANCH  36  37
HETATM   37  O   UNL     1     -43.628  55.554 -57.720  1.00  0.00    -0.360 OA
HETATM   38  H   UNL     1     -44.121  55.490 -58.566  1.00  0.00     0.217 HD
ENDBRANCH  36  37
ENDBRANCH  30  31
ENDBRANCH   1  29
TORSDOF 8
ENDMDL
MODEL 3
REMARK VINA RESULT:      -8.5      2.198      5.790
REMARK  8 active torsions:
REMARK  status: ('A' for Active; 'I' for Inactive)
REMARK    1  A    between atoms: C_3  and  C_4 
REMARK    2  A    between atoms: N_5  and  N_6 
REMARK    3  A    between atoms: C_17  and  C_18 
REMARK       I    between atoms: C_18  and  N_19 
REMARK    4  A    between atoms: N_19  and  C_20 
REMARK    5  A    between atoms: C_20  and  C_21 
REMARK    6  A    between atoms: C_21  and  C_22 
REMARK    7  A    between atoms: C_29  and  N_30 
REMARK    8  A    between atoms: C_31  and  O_32 
ROOT
HETATM    1  N   UNL     1     -43.641  56.711 -54.697  1.00  0.00    -0.202 N 
HETATM    2  C   UNL     1     -42.986  56.171 -53.606  1.00  0.00     0.183 A 
HETATM    3  C   UNL     1     -43.565  56.733 -52.471  1.00  0.00     0.124 A 
HETATM    4  N   UNL     1     -43.073  56.462 -51.234  1.00  0.00    -0.242 NA
HETATM    5  C   UNL     1     -42.073  55.567 -51.201  1.00  0.00     0.086 A 
HETATM    6  C   UNL     1     -41.525  54.985 -52.374  1.00  0.00     0.088 A 
HETATM    7  N   UNL     1     -41.950  55.299 -53.609  1.00  0.00    -0.225 NA
HETATM    8  C   UNL     1     -41.567  55.184 -49.964  1.00  0.00     0.034 A 
HETATM    9  C   UNL     1     -40.549  54.234 -49.851  1.00  0.00     0.002 A 
HETATM   10  C   UNL     1     -40.021  53.658 -50.997  1.00  0.00     0.002 A 
HETATM   11  C   UNL     1     -40.511  54.043 -52.247  1.00  0.00     0.034 A 
HETATM   12  C   UNL     1     -44.648  57.563 -52.887  1.00  0.00     0.099 C 
HETATM   13  C   UNL     1     -44.830  57.270 -54.235  1.00  0.00     0.122 C 
ENDROOT
BRANCH  12  14
HETATM   14  C   UNL     1     -45.370  58.558 -52.094  1.00  0.00     0.236 C 
HETATM   15  N   UNL     1     -45.519  59.803 -52.698  1.00  0.00    -0.258 NA
HETATM   16  H   UNL     1     -45.555  59.684 -53.701  1.00  0.00     0.130 HD
HETATM   17  O   UNL     1     -45.747  58.358 -50.944  1.00  0.00    -0.274 OA
BRANCH  15  18
HETATM   18  C   UNL     1     -44.474  60.793 -52.454  1.00  0.00     0.099 C 
BRANCH  18  19
HETATM   19  C   UNL     1     -43.233  60.723 -53.346  1.00  0.00     0.048 C 
BRANCH  19  20
HETATM   20  C   UNL     1     -42.095  60.061 -52.592  1.00  0.00    -0.083 C 
HETATM   21  C   UNL     1     -41.040  59.352 -53.409  1.00  0.00     0.034 C 
HETATM   22  C   UNL     1     -40.138  58.430 -52.580  1.00  0.00     0.005 C 
HETATM   23  C   UNL     1     -39.743  59.072 -51.254  1.00  0.00     0.004 C 
HETATM   24  C   UNL     1     -40.975  59.437 -50.430  1.00  0.00     0.027 C 
HETATM   25  C   UNL     1     -42.053  60.085 -51.246  1.00  0.00    -0.024 C 
ENDBRANCH  19  20
ENDBRANCH  18  19
ENDBRANCH  15  18
ENDBRANCH  12  14
BRANCH  13  26
HETATM   26  N   UNL     1     -45.844  57.567 -55.109  1.00  0.00    -0.286 NA
HETATM   27  H   UNL     1     -45.562  57.955 -56.010  1.00  0.00     0.125 HD
HETATM   28  H   UNL     1     -46.562  58.191 -54.729  1.00  0.00     0.125 HD
ENDBRANCH  13  26
BRANCH   1  29
HETATM   29  N   UNL     1     -43.299  56.815 -56.029  1.00  0.00    -0.176 NA
HETATM   30  C   UNL     1     -42.544  57.816 -56.354  1.00  0.00     0.153 C 
BRANCH  30  31
HETATM   31  C   UNL     1     -42.305  58.140 -57.781  1.00  0.00     0.016 A 
HETATM   32  C   UNL     1     -42.186  59.485 -58.146  1.00  0.00     0.016 A 
HETATM   33  C   UNL     1     -42.057  59.830 -59.494  1.00  0.00     0.001 A 
HETATM   34  C   UNL     1     -42.050  58.837 -60.476  1.00  0.00     0.003 A 
HETATM   35  C   UNL     1     -42.168  57.496 -60.116  1.00  0.00     0.037 A 
HETATM   36  C   UNL     1     -42.297  57.150 -58.774  1.00  0.00     0.077 A 
BRANCH  36  37
HETATM   37  O   UNL     1     -42.448  55.818 -58.496  1.00  0.00    -0.360 OA
HETATM   38  H   UNL     1     -43.326  55.565 -58.854  1.00  0.00     0.217 HD
ENDBRANCH  36  37
ENDBRANCH  30  31
ENDBRANCH   1  29
TORSDOF 8
ENDMDL
MODEL 4
REMARK VINA RESULT:      -8.4      2.207      7.244
REMARK  8 active torsions:
REMARK  status: ('A' for Active; 'I' for Inactive)
REMARK    1  A    between atoms: C_3  and  C_4 
REMARK    2  A    between atoms: N_5  and  N_6 
REMARK    3  A    between atoms: C_17  and  C_18 
REMARK       I    between atoms: C_18  and  N_19 
REMARK    4  A    between atoms: N_19  and  C_20 
REMARK    5  A    between atoms: C_20  and  C_21 
REMARK    6  A    between atoms: C_21  and  C_22 
REMARK    7  A    between atoms: C_29  and  N_30 
REMARK    8  A    between atoms: C_31  and  O_32 
ROOT
HETATM    1  N   UNL     1     -44.372  58.710 -52.363  1.00  0.00    -0.202 N 
HETATM    2  C   UNL     1     -44.081  57.973 -53.496  1.00  0.00     0.183 A 
HETATM    3  C   UNL     1     -43.740  56.693 -53.066  1.00  0.00     0.124 A 
HETATM    4  N   UNL     1     -43.316  55.753 -53.950  1.00  0.00    -0.242 NA
HETATM    5  C   UNL     1     -43.339  56.129 -55.238  1.00  0.00     0.086 A 
HETATM    6  C   UNL     1     -43.724  57.432 -55.650  1.00  0.00     0.088 A 
HETATM    7  N   UNL     1     -44.074  58.396 -54.782  1.00  0.00    -0.225 NA
HETATM    8  C   UNL     1     -42.989  55.197 -56.208  1.00  0.00     0.034 A 
HETATM    9  C   UNL     1     -43.022  55.508 -57.569  1.00  0.00     0.002 A 
HETATM   10  C   UNL     1     -43.407  56.778 -57.971  1.00  0.00     0.002 A 
HETATM   11  C   UNL     1     -43.750  57.728 -57.008  1.00  0.00     0.034 A 
HETATM   12  C   UNL     1     -43.914  56.638 -51.651  1.00  0.00     0.099 C 
HETATM   13  C   UNL     1     -44.588  57.810 -51.323  1.00  0.00     0.122 C 
ENDROOT
BRANCH  12  14
HETATM   14  C   UNL     1     -43.432  55.609 -50.729  1.00  0.00     0.236 C 
HETATM   15  N   UNL     1     -42.238  55.909 -50.078  1.00  0.00    -0.258 NA
HETATM   16  H   UNL     1     -42.165  56.910 -49.963  1.00  0.00     0.130 HD
HETATM   17  O   UNL     1     -43.976  54.519 -50.592  1.00  0.00    -0.274 OA
BRANCH  15  18
HETATM   18  C   UNL     1     -41.000  55.494 -50.730  1.00  0.00     0.099 C 
BRANCH  18  19
HETATM   19  C   UNL     1     -40.532  54.060 -50.478  1.00  0.00     0.048 C 
BRANCH  19  20
HETATM   20  C   UNL     1     -40.352  53.338 -51.800  1.00  0.00    -0.083 C 
HETATM   21  C   UNL     1     -39.819  51.925 -51.753  1.00  0.00     0.034 C 
HETATM   22  C   UNL     1     -39.342  51.403 -53.113  1.00  0.00     0.005 C 
HETATM   23  C   UNL     1     -40.299  51.798 -54.235  1.00  0.00     0.004 C 
HETATM   24  C   UNL     1     -40.461  53.314 -54.311  1.00  0.00     0.027 C 
HETATM   25  C   UNL     1     -40.632  53.952 -52.965  1.00  0.00    -0.024 C 
ENDBRANCH  19  20
ENDBRANCH  18  19
ENDBRANCH  15  18
ENDBRANCH  12  14
BRANCH  13  26
HETATM   26  N   UNL     1     -45.228  58.211 -50.179  1.00  0.00    -0.286 NA
HETATM   27  H   UNL     1     -44.631  58.407 -49.374  1.00  0.00     0.125 HD
HETATM   28  H   UNL     1     -45.959  57.571 -49.856  1.00  0.00     0.125 HD
ENDBRANCH  13  26
BRANCH   1  29
HETATM   29  N   UNL     1     -44.421  60.068 -52.126  1.00  0.00    -0.176 NA
HETATM   30  C   UNL     1     -43.286  60.694 -52.120  1.00  0.00     0.153 C 
BRANCH  30  31
HETATM   31  C   UNL     1     -43.211  62.100 -51.657  1.00  0.00     0.016 A 
HETATM   32  C   UNL     1     -43.435  62.367 -50.303  1.00  0.00     0.016 A 
HETATM   33  C   UNL     1     -43.467  63.690 -49.851  1.00  0.00     0.001 A 
HETATM   34  C   UNL     1     -43.278  64.743 -50.748  1.00  0.00     0.003 A 
HETATM   35  C   UNL     1     -43.053  64.481 -52.098  1.00  0.00     0.037 A 
HETATM   36  C   UNL     1     -43.022  63.164 -52.550  1.00  0.00     0.077 A 
BRANCH  36  37
HETATM   37  O   UNL     1     -42.836  62.982 -53.894  1.00  0.00    -0.360 OA
HETATM   38  H   UNL     1     -41.991  62.492 -53.987  1.00  0.00     0.217 HD
ENDBRANCH  36  37
ENDBRANCH  30  31
ENDBRANCH   1  29
TORSDOF 8
ENDMDL
MODEL 5
REMARK VINA RESULT:      -8.3      3.025      6.421
REMARK  8 active torsions:
REMARK  status: ('A' for Active; 'I' for Inactive)
REMARK    1  A    between atoms: C_3  and  C_4 
REMARK    2  A    between atoms: N_5  and  N_6 
REMARK    3  A    between atoms: C_17  and  C_18 
REMARK       I    between atoms: C_18  and  N_19 
REMARK    4  A    between atoms: N_19  and  C_20 
REMARK    5  A    between atoms: C_20  and  C_21 
REMARK    6  A    between atoms: C_21  and  C_22 
REMARK    7  A    between atoms: C_29  and  N_30 
REMARK    8  A    between atoms: C_31  and  O_32 
ROOT
HETATM    1  N   UNL     1     -42.566  58.778 -55.163  1.00  0.00    -0.202 N 
HETATM    2  C   UNL     1     -42.345  59.238 -56.449  1.00  0.00     0.183 A 
HETATM    3  C   UNL     1     -42.648  58.186 -57.310  1.00  0.00     0.124 A 
HETATM    4  N   UNL     1     -42.444  58.304 -58.647  1.00  0.00    -0.242 NA
HETATM    5  C   UNL     1     -42.025  59.511 -59.057  1.00  0.00     0.086 A 
HETATM    6  C   UNL     1     -41.757  60.577 -58.158  1.00  0.00     0.088 A 
HETATM    7  N   UNL     1     -41.880  60.453 -56.826  1.00  0.00    -0.225 NA
HETATM    8  C   UNL     1     -41.866  59.731 -60.421  1.00  0.00     0.034 A 
HETATM    9  C   UNL     1     -41.465  60.971 -60.922  1.00  0.00     0.002 A 
HETATM   10  C   UNL     1     -41.212  62.014 -60.043  1.00  0.00     0.002 A 
HETATM   11  C   UNL     1     -41.356  61.805 -58.670  1.00  0.00     0.034 A 
HETATM   12  C   UNL     1     -43.144  57.100 -56.529  1.00  0.00     0.099 C 
HETATM   13  C   UNL     1     -43.351  57.632 -55.260  1.00  0.00     0.122 C 
ENDROOT
BRANCH  12  14
HETATM   14  C   UNL     1     -43.331  55.711 -56.946  1.00  0.00     0.236 C 
HETATM   15  N   UNL     1     -43.397  54.784 -55.909  1.00  0.00    -0.258 NA
HETATM   16  H   UNL     1     -43.786  55.229 -55.090  1.00  0.00     0.130 HD
HETATM   17  O   UNL     1     -43.343  55.355 -58.120  1.00  0.00    -0.274 OA
BRANCH  15  18
HETATM   18  C   UNL     1     -42.142  54.179 -55.473  1.00  0.00     0.099 C 
BRANCH  18  19
HETATM   19  C   UNL     1     -41.607  54.606 -54.106  1.00  0.00     0.048 C 
BRANCH  19  20
HETATM   20  C   UNL     1     -40.858  53.454 -53.464  1.00  0.00    -0.083 C 
HETATM   21  C   UNL     1     -40.359  52.356 -54.375  1.00  0.00     0.034 C 
HETATM   22  C   UNL     1     -39.934  51.085 -53.630  1.00  0.00     0.005 C 
HETATM   23  C   UNL     1     -39.150  51.411 -52.362  1.00  0.00     0.004 C 
HETATM   24  C   UNL     1     -39.969  52.291 -51.420  1.00  0.00     0.027 C 
HETATM   25  C   UNL     1     -40.678  53.405 -52.130  1.00  0.00    -0.024 C 
ENDBRANCH  19  20
ENDBRANCH  18  19
ENDBRANCH  15  18
ENDBRANCH  12  14
BRANCH  13  26
HETATM   26  N   UNL     1     -44.019  57.152 -54.162  1.00  0.00    -0.286 NA
HETATM   27  H   UNL     1     -43.899  56.158 -53.962  1.00  0.00     0.125 HD
HETATM   28  H   UNL     1     -45.027  57.335 -54.167  1.00  0.00     0.125 HD
ENDBRANCH  13  26
BRANCH   1  29
HETATM   29  N   UNL     1     -42.124  59.213 -53.932  1.00  0.00    -0.176 NA
HETATM   30  C   UNL     1     -40.930  58.847 -53.586  1.00  0.00     0.153 C 
BRANCH  30  31
HETATM   31  C   UNL     1     -40.450  59.073 -52.201  1.00  0.00     0.016 A 
HETATM   32  C   UNL     1     -41.400  59.191 -51.181  1.00  0.00     0.016 A 
HETATM   33  C   UNL     1     -40.988  59.500 -49.881  1.00  0.00     0.001 A 
HETATM   34  C   UNL     1     -39.634  59.694 -49.600  1.00  0.00     0.003 A 
HETATM   35  C   UNL     1     -38.685  59.576 -50.615  1.00  0.00     0.037 A 
HETATM   36  C   UNL     1     -39.094  59.269 -51.910  1.00  0.00     0.077 A 
BRANCH  36  37
HETATM   37  O   UNL     1     -38.113  59.207 -52.863  1.00  0.00    -0.360 OA
HETATM   38  H   UNL     1     -37.424  59.850 -52.585  1.00  0.00     0.217 HD
ENDBRANCH  36  37
ENDBRANCH  30  31
ENDBRANCH   1  29
TORSDOF 8
ENDMDL
MODEL 6
REMARK VINA RESULT:      -8.3      2.337      6.143
REMARK  8 active torsions:
REMARK  status: ('A' for Active; 'I' for Inactive)
REMARK    1  A    between atoms: C_3  and  C_4 
REMARK    2  A    between atoms: N_5  and  N_6 
REMARK    3  A    between atoms: C_17  and  C_18 
REMARK       I    between atoms: C_18  and  N_19 
REMARK    4  A    between atoms: N_19  and  C_20 
REMARK    5  A    between atoms: C_20  and  C_21 
REMARK    6  A    between atoms: C_21  and  C_22 
REMARK    7  A    between atoms: C_29  and  N_30 
REMARK    8  A    between atoms: C_31  and  O_32 
ROOT
HETATM    1  N   UNL     1     -42.523  54.926 -54.120  1.00  0.00    -0.202 N 
HETATM    2  C   UNL     1     -42.459  56.222 -53.642  1.00  0.00     0.183 A 
HETATM    3  C   UNL     1     -42.636  57.064 -54.738  1.00  0.00     0.124 A 
HETATM    4  N   UNL     1     -42.536  58.411 -54.601  1.00  0.00    -0.242 NA
HETATM    5  C   UNL     1     -42.348  58.845 -53.345  1.00  0.00     0.086 A 
HETATM    6  C   UNL     1     -42.206  57.964 -52.241  1.00  0.00     0.088 A 
HETATM    7  N   UNL     1     -42.226  56.627 -52.371  1.00  0.00    -0.225 NA
HETATM    8  C   UNL     1     -42.310  60.216 -53.115  1.00  0.00     0.034 A 
HETATM    9  C   UNL     1     -42.151  60.740 -51.831  1.00  0.00     0.002 A 
HETATM   10  C   UNL     1     -42.021  59.878 -50.752  1.00  0.00     0.002 A 
HETATM   11  C   UNL     1     -42.045  58.499 -50.969  1.00  0.00     0.034 A 
HETATM   12  C   UNL     1     -42.896  56.254 -55.883  1.00  0.00     0.099 C 
HETATM   13  C   UNL     1     -43.111  54.975 -55.381  1.00  0.00     0.122 C 
ENDROOT
BRANCH  12  14
HETATM   14  C   UNL     1     -42.877  56.660 -57.289  1.00  0.00     0.236 C 
HETATM   15  N   UNL     1     -43.149  58.006 -57.522  1.00  0.00    -0.258 NA
HETATM   16  H   UNL     1     -42.838  58.549 -56.728  1.00  0.00     0.130 HD
HETATM   17  O   UNL     1     -42.722  55.872 -58.215  1.00  0.00    -0.274 OA
BRANCH  15  18
HETATM   18  C   UNL     1     -44.544  58.378 -57.735  1.00  0.00     0.099 C 
BRANCH  18  19
HETATM   19  C   UNL     1     -44.875  59.097 -59.043  1.00  0.00     0.048 C 
BRANCH  19  20
HETATM   20  C   UNL     1     -45.830  58.253 -59.866  1.00  0.00    -0.083 C 
HETATM   21  C   UNL     1     -45.621  56.757 -59.855  1.00  0.00     0.034 C 
HETATM   22  C   UNL     1     -46.384  56.021 -60.963  1.00  0.00     0.005 C 
HETATM   23  C   UNL     1     -47.798  56.571 -61.134  1.00  0.00     0.004 C 
HETATM   24  C   UNL     1     -47.772  58.064 -61.452  1.00  0.00     0.027 C 
HETATM   25  C   UNL     1     -46.804  58.828 -60.598  1.00  0.00    -0.024 C 
ENDBRANCH  19  20
ENDBRANCH  18  19
ENDBRANCH  15  18
ENDBRANCH  12  14
BRANCH  13  26
HETATM   26  N   UNL     1     -43.623  53.839 -55.953  1.00  0.00    -0.286 NA
HETATM   27  H   UNL     1     -44.442  53.965 -56.550  1.00  0.00     0.125 HD
HETATM   28  H   UNL     1     -43.853  53.095 -55.287  1.00  0.00     0.125 HD
ENDBRANCH  13  26
BRANCH   1  29
HETATM   29  N   UNL     1     -42.084  53.724 -53.606  1.00  0.00    -0.176 NA
HETATM   30  C   UNL     1     -40.807  53.510 -53.650  1.00  0.00     0.153 C 
BRANCH  30  31
HETATM   31  C   UNL     1     -40.263  52.168 -53.331  1.00  0.00     0.016 A 
HETATM   32  C   UNL     1     -40.283  51.188 -54.329  1.00  0.00     0.016 A 
HETATM   33  C   UNL     1     -39.867  49.887 -54.033  1.00  0.00     0.001 A 
HETATM   34  C   UNL     1     -39.436  49.562 -52.746  1.00  0.00     0.003 A 
HETATM   35  C   UNL     1     -39.413  50.536 -51.749  1.00  0.00     0.037 A 
HETATM   36  C   UNL     1     -39.828  51.833 -52.041  1.00  0.00     0.077 A 
BRANCH  36  37
HETATM   37  O   UNL     1     -39.817  52.728 -51.005  1.00  0.00    -0.360 OA
HETATM   38  H   UNL     1     -40.200  53.559 -51.360  1.00  0.00     0.217 HD
ENDBRANCH  36  37
ENDBRANCH  30  31
ENDBRANCH   1  29
TORSDOF 8
ENDMDL
MODEL 7
REMARK VINA RESULT:      -8.2      1.901      6.245
REMARK  8 active torsions:
REMARK  status: ('A' for Active; 'I' for Inactive)
REMARK    1  A    between atoms: C_3  and  C_4 
REMARK    2  A    between atoms: N_5  and  N_6 
REMARK    3  A    between atoms: C_17  and  C_18 
REMARK       I    between atoms: C_18  and  N_19 
REMARK    4  A    between atoms: N_19  and  C_20 
REMARK    5  A    between atoms: C_20  and  C_21 
REMARK    6  A    between atoms: C_21  and  C_22 
REMARK    7  A    between atoms: C_29  and  N_30 
REMARK    8  A    between atoms: C_31  and  O_32 
ROOT
HETATM    1  N   UNL     1     -43.031  55.350 -54.171  1.00  0.00    -0.202 N 
HETATM    2  C   UNL     1     -42.182  54.345 -53.745  1.00  0.00     0.183 A 
HETATM    3  C   UNL     1     -41.804  54.664 -52.443  1.00  0.00     0.124 A 
HETATM    4  N   UNL     1     -40.895  53.904 -51.779  1.00  0.00    -0.242 NA
HETATM    5  C   UNL     1     -40.479  52.809 -52.434  1.00  0.00     0.086 A 
HETATM    6  C   UNL     1     -40.908  52.492 -53.749  1.00  0.00     0.088 A 
HETATM    7  N   UNL     1     -41.748  53.273 -54.449  1.00  0.00    -0.225 NA
HETATM    8  C   UNL     1     -39.604  51.942 -51.789  1.00  0.00     0.034 A 
HETATM    9  C   UNL     1     -39.155  50.768 -52.396  1.00  0.00     0.002 A 
HETATM   10  C   UNL     1     -39.582  50.454 -53.677  1.00  0.00     0.002 A 
HETATM   11  C   UNL     1     -40.451  51.321 -54.343  1.00  0.00     0.034 A 
HETATM   12  C   UNL     1     -42.509  55.840 -52.050  1.00  0.00     0.099 C 
HETATM   13  C   UNL     1     -43.466  56.036 -53.040  1.00  0.00     0.122 C 
ENDROOT
BRANCH  12  14
HETATM   14  C   UNL     1     -42.245  56.697 -50.894  1.00  0.00     0.236 C 
HETATM   15  N   UNL     1     -42.929  57.910 -50.887  1.00  0.00    -0.258 NA
HETATM   16  H   UNL     1     -43.809  57.798 -51.371  1.00  0.00     0.130 HD
HETATM   17  O   UNL     1     -41.420  56.426 -50.029  1.00  0.00    -0.274 OA
BRANCH  15  18
HETATM   18  C   UNL     1     -42.272  59.051 -51.517  1.00  0.00     0.099 C 
BRANCH  18  19
HETATM   19  C   UNL     1     -43.150  60.257 -51.851  1.00  0.00     0.048 C 
BRANCH  19  20
HETATM   20  C   UNL     1     -43.164  60.482 -53.351  1.00  0.00    -0.083 C 
HETATM   21  C   UNL     1     -44.394  61.128 -53.946  1.00  0.00     0.034 C 
HETATM   22  C   UNL     1     -44.478  61.001 -55.471  1.00  0.00     0.005 C 
HETATM   23  C   UNL     1     -43.123  61.237 -56.132  1.00  0.00     0.004 C 
HETATM   24  C   UNL     1     -42.077  60.257 -55.607  1.00  0.00     0.027 C 
HETATM   25  C   UNL     1     -42.128  60.090 -54.117  1.00  0.00    -0.024 C 
ENDBRANCH  19  20
ENDBRANCH  18  19
ENDBRANCH  15  18
ENDBRANCH  12  14
BRANCH  13  26
HETATM   26  N   UNL     1     -44.570  56.848 -53.102  1.00  0.00    -0.286 NA
HETATM   27  H   UNL     1     -44.409  57.803 -53.426  1.00  0.00     0.125 HD
HETATM   28  H   UNL     1     -45.094  56.918 -52.224  1.00  0.00     0.125 HD
ENDBRANCH  13  26
BRANCH   1  29
HETATM   29  N   UNL     1     -43.426  55.763 -55.427  1.00  0.00    -0.176 NA
HETATM   30  C   UNL     1     -42.723  56.705 -55.972  1.00  0.00     0.153 C 
BRANCH  30  31
HETATM   31  C   UNL     1     -43.193  57.368 -57.212  1.00  0.00     0.016 A 
HETATM   32  C   UNL     1     -42.263  57.616 -58.226  1.00  0.00     0.016 A 
HETATM   33  C   UNL     1     -42.652  58.324 -59.367  1.00  0.00     0.001 A 
HETATM   34  C   UNL     1     -43.963  58.786 -59.494  1.00  0.00     0.003 A 
HETATM   35  C   UNL     1     -44.893  58.540 -58.485  1.00  0.00     0.037 A 
HETATM   36  C   UNL     1     -44.507  57.836 -57.348  1.00  0.00     0.077 A 
BRANCH  36  37
HETATM   37  O   UNL     1     -45.461  57.665 -56.381  1.00  0.00    -0.360 OA
HETATM   38  H   UNL     1     -45.093  57.009 -55.750  1.00  0.00     0.217 HD
ENDBRANCH  36  37
ENDBRANCH  30  31
ENDBRANCH   1  29
TORSDOF 8
ENDMDL
MODEL 8
REMARK VINA RESULT:      -8.2      2.311      5.340
REMARK  8 active torsions:
REMARK  status: ('A' for Active; 'I' for Inactive)
REMARK    1  A    between atoms: C_3  and  C_4 
REMARK    2  A    between atoms: N_5  and  N_6 
REMARK    3  A    between atoms: C_17  and  C_18 
REMARK       I    between atoms: C_18  and  N_19 
REMARK    4  A    between atoms: N_19  and  C_20 
REMARK    5  A    between atoms: C_20  and  C_21 
REMARK    6  A    between atoms: C_21  and  C_22 
REMARK    7  A    between atoms: C_29  and  N_30 
REMARK    8  A    between atoms: C_31  and  O_32 
ROOT
HETATM    1  N   UNL     1     -43.154  56.307 -53.156  1.00  0.00    -0.202 N 
HETATM    2  C   UNL     1     -43.177  57.638 -52.782  1.00  0.00     0.183 A 
HETATM    3  C   UNL     1     -43.721  58.346 -53.851  1.00  0.00     0.124 A 
HETATM    4  N   UNL     1     -43.795  59.702 -53.819  1.00  0.00    -0.242 NA
HETATM    5  C   UNL     1     -43.393  60.269 -52.671  1.00  0.00     0.086 A 
HETATM    6  C   UNL     1     -42.873  59.518 -51.585  1.00  0.00     0.088 A 
HETATM    7  N   UNL     1     -42.723  58.183 -51.629  1.00  0.00    -0.225 NA
HETATM    8  C   UNL     1     -43.508  61.648 -52.537  1.00  0.00     0.034 A 
HETATM    9  C   UNL     1     -43.140  62.303 -51.359  1.00  0.00     0.002 A 
HETATM   10  C   UNL     1     -42.641  61.567 -50.295  1.00  0.00     0.002 A 
HETATM   11  C   UNL     1     -42.509  60.183 -50.420  1.00  0.00     0.034 A 
HETATM   12  C   UNL     1     -44.113  57.409 -54.853  1.00  0.00     0.099 C 
HETATM   13  C   UNL     1     -44.015  56.163 -54.241  1.00  0.00     0.122 C 
ENDROOT
BRANCH  12  14
HETATM   14  C   UNL     1     -44.474  57.684 -56.243  1.00  0.00     0.236 C 
HETATM   15  N   UNL     1     -43.956  56.792 -57.178  1.00  0.00    -0.258 NA
HETATM   16  H   UNL     1     -43.850  55.884 -56.747  1.00  0.00     0.130 HD
HETATM   17  O   UNL     1     -45.110  58.673 -56.591  1.00  0.00    -0.274 OA
BRANCH  15  18
HETATM   18  C   UNL     1     -42.655  57.111 -57.757  1.00  0.00     0.099 C 
BRANCH  18  19
HETATM   19  C   UNL     1     -42.649  57.659 -59.185  1.00  0.00     0.048 C 
BRANCH  19  20
HETATM   20  C   UNL     1     -42.174  59.099 -59.181  1.00  0.00    -0.083 C 
HETATM   21  C   UNL     1     -41.727  59.680 -57.860  1.00  0.00     0.034 C 
HETATM   22  C   UNL     1     -41.601  61.207 -57.871  1.00  0.00     0.005 C 
HETATM   23  C   UNL     1     -40.953  61.709 -59.159  1.00  0.00     0.004 C 
HETATM   24  C   UNL     1     -41.749  61.265 -60.384  1.00  0.00     0.027 C 
HETATM   25  C   UNL     1     -42.182  59.831 -60.311  1.00  0.00    -0.024 C 
ENDBRANCH  19  20
ENDBRANCH  18  19
ENDBRANCH  15  18
ENDBRANCH  12  14
BRANCH  13  26
HETATM   26  N   UNL     1     -44.468  54.922 -54.609  1.00  0.00    -0.286 NA
HETATM   27  H   UNL     1     -43.762  54.189 -54.684  1.00  0.00     0.125 HD
HETATM   28  H   UNL     1     -45.004  54.909 -55.482  1.00  0.00     0.125 HD
ENDBRANCH  13  26
BRANCH   1  29
HETATM   29  N   UNL     1     -42.436  55.224 -52.693  1.00  0.00    -0.176 NA
HETATM   30  C   UNL     1     -41.365  54.918 -53.354  1.00  0.00     0.153 C 
BRANCH  30  31
HETATM   31  C   UNL     1     -40.651  53.648 -53.074  1.00  0.00     0.016 A 
HETATM   32  C   UNL     1     -40.496  52.730 -54.118  1.00  0.00     0.016 A 
HETATM   33  C   UNL     1     -39.914  51.484 -53.866  1.00  0.00     0.001 A 
HETATM   34  C   UNL     1     -39.492  51.153 -52.576  1.00  0.00     0.003 A 
HETATM   35  C   UNL     1     -39.644  52.067 -51.535  1.00  0.00     0.037 A 
HETATM   36  C   UNL     1     -40.224  53.308 -51.783  1.00  0.00     0.077 A 
BRANCH  36  37
HETATM   37  O   UNL     1     -40.378  54.139 -50.706  1.00  0.00    -0.360 OA
HETATM   38  H   UNL     1     -39.471  54.385 -50.422  1.00  0.00     0.217 HD
ENDBRANCH  36  37
ENDBRANCH  30  31
ENDBRANCH   1  29
TORSDOF 8
ENDMDL
MODEL 9
REMARK VINA RESULT:      -8.1      2.453      3.830
REMARK  8 active torsions:
REMARK  status: ('A' for Active; 'I' for Inactive)
REMARK    1  A    between atoms: C_3  and  C_4 
REMARK    2  A    between atoms: N_5  and  N_6 
REMARK    3  A    between atoms: C_17  and  C_18 
REMARK       I    between atoms: C_18  and  N_19 
REMARK    4  A    between atoms: N_19  and  C_20 
REMARK    5  A    between atoms: C_20  and  C_21 
REMARK    6  A    between atoms: C_21  and  C_22 
REMARK    7  A    between atoms: C_29  and  N_30 
REMARK    8  A    between atoms: C_31  and  O_32 
ROOT
HETATM    1  N   UNL     1     -42.080  56.539 -55.357  1.00  0.00    -0.202 N 
HETATM    2  C   UNL     1     -42.872  56.571 -56.489  1.00  0.00     0.183 A 
HETATM    3  C   UNL     1     -43.877  57.506 -56.251  1.00  0.00     0.124 A 
HETATM    4  N   UNL     1     -44.872  57.701 -57.154  1.00  0.00    -0.242 NA
HETATM    5  C   UNL     1     -44.754  57.002 -58.293  1.00  0.00     0.086 A 
HETATM    6  C   UNL     1     -43.699  56.080 -58.523  1.00  0.00     0.088 A 
HETATM    7  N   UNL     1     -42.749  55.819 -57.609  1.00  0.00    -0.225 NA
HETATM    8  C   UNL     1     -45.695  57.204 -59.297  1.00  0.00     0.034 A 
HETATM    9  C   UNL     1     -45.617  56.536 -60.521  1.00  0.00     0.002 A 
HETATM   10  C   UNL     1     -44.581  55.643 -60.747  1.00  0.00     0.002 A 
HETATM   11  C   UNL     1     -43.635  55.420 -59.745  1.00  0.00     0.034 A 
HETATM   12  C   UNL     1     -43.631  58.110 -54.981  1.00  0.00     0.099 C 
HETATM   13  C   UNL     1     -42.354  57.690 -54.623  1.00  0.00     0.122 C 
ENDROOT
BRANCH  12  14
HETATM   14  C   UNL     1     -44.545  58.935 -54.191  1.00  0.00     0.236 C 
HETATM   15  N   UNL     1     -45.475  59.662 -54.929  1.00  0.00    -0.258 NA
HETATM   16  H   UNL     1     -45.692  59.159 -55.778  1.00  0.00     0.130 HD
HETATM   17  O   UNL     1     -44.458  59.060 -52.975  1.00  0.00    -0.274 OA
BRANCH  15  18
HETATM   18  C   UNL     1     -45.090  61.005 -55.351  1.00  0.00     0.099 C 
BRANCH  18  19
HETATM   19  C   UNL     1     -45.348  61.372 -56.813  1.00  0.00     0.048 C 
BRANCH  19  20
HETATM   20  C   UNL     1     -44.124  61.049 -57.648  1.00  0.00    -0.083 C 
HETATM   21  C   UNL     1     -44.346  60.694 -59.099  1.00  0.00     0.034 C 
HETATM   22  C   UNL     1     -43.127  60.051 -59.769  1.00  0.00     0.005 C 
HETATM   23  C   UNL     1     -41.830  60.748 -59.367  1.00  0.00     0.004 C 
HETATM   24  C   UNL     1     -41.640  60.723 -57.852  1.00  0.00     0.027 C 
HETATM   25  C   UNL     1     -42.894  61.052 -57.099  1.00  0.00    -0.024 C 
ENDBRANCH  19  20
ENDBRANCH  18  19
ENDBRANCH  15  18
ENDBRANCH  12  14
BRANCH  13  26
HETATM   26  N   UNL     1     -41.491  58.113 -53.644  1.00  0.00    -0.286 NA
HETATM   27  H   UNL     1     -40.648  57.551 -53.515  1.00  0.00     0.125 HD
HETATM   28  H   UNL     1     -41.919  58.222 -52.720  1.00  0.00     0.125 HD
ENDBRANCH  13  26
BRANCH   1  29
HETATM   29  N   UNL     1     -41.190  55.604 -54.871  1.00  0.00    -0.176 NA
HETATM   30  C   UNL     1     -41.696  54.480 -54.470  1.00  0.00     0.153 C 
BRANCH  30  31
HETATM   31  C   UNL     1     -40.859  53.505 -53.731  1.00  0.00     0.016 A 
HETATM   32  C   UNL     1     -40.473  52.331 -54.387  1.00  0.00     0.016 A 
HETATM   33  C   UNL     1     -39.765  51.347 -53.690  1.00  0.00     0.001 A 
HETATM   34  C   UNL     1     -39.447  51.531 -52.343  1.00  0.00     0.003 A 
HETATM   35  C   UNL     1     -39.829  52.700 -51.688  1.00  0.00     0.037 A 
HETATM   36  C   UNL     1     -40.535  53.681 -52.380  1.00  0.00     0.077 A 
BRANCH  36  37
HETATM   37  O   UNL     1     -40.912  54.785 -51.663  1.00  0.00    -0.360 OA
HETATM   38  H   UNL     1     -40.188  55.439 -51.771  1.00  0.00     0.217 HD
ENDBRANCH  36  37
ENDBRANCH  30  31
ENDBRANCH   1  29
TORSDOF 8
ENDMDL
MODEL 10
REMARK VINA RESULT:      -8.1      1.944      6.042
REMARK  8 active torsions:
REMARK  status: ('A' for Active; 'I' for Inactive)
REMARK    1  A    between atoms: C_3  and  C_4 
REMARK    2  A    between atoms: N_5  and  N_6 
REMARK    3  A    between atoms: C_17  and  C_18 
REMARK       I    between atoms: C_18  and  N_19 
REMARK    4  A    between atoms: N_19  and  C_20 
REMARK    5  A    between atoms: C_20  and  C_21 
REMARK    6  A    between atoms: C_21  and  C_22 
REMARK    7  A    between atoms: C_29  and  N_30 
REMARK    8  A    between atoms: C_31  and  O_32 
ROOT
HETATM    1  N   UNL     1     -43.126  56.434 -53.016  1.00  0.00    -0.202 N 
HETATM    2  C   UNL     1     -43.169  57.774 -52.675  1.00  0.00     0.183 A 
HETATM    3  C   UNL     1     -43.767  58.441 -53.742  1.00  0.00     0.124 A 
HETATM    4  N   UNL     1     -43.872  59.795 -53.742  1.00  0.00    -0.242 NA
HETATM    5  C   UNL     1     -43.444  60.401 -52.623  1.00  0.00     0.086 A 
HETATM    6  C   UNL     1     -42.870  59.690 -51.536  1.00  0.00     0.088 A 
HETATM    7  N   UNL     1     -42.689  58.359 -51.553  1.00  0.00    -0.225 NA
HETATM    8  C   UNL     1     -43.588  61.780 -52.518  1.00  0.00     0.034 A 
HETATM    9  C   UNL     1     -43.196  62.473 -51.371  1.00  0.00     0.002 A 
HETATM   10  C   UNL     1     -42.644  61.776 -50.307  1.00  0.00     0.002 A 
HETATM   11  C   UNL     1     -42.482  60.393 -50.402  1.00  0.00     0.034 A 
HETATM   12  C   UNL     1     -44.169  57.470 -54.706  1.00  0.00     0.099 C 
HETATM   13  C   UNL     1     -44.020  56.243 -54.067  1.00  0.00     0.122 C 
ENDROOT
BRANCH  12  14
HETATM   14  C   UNL     1     -44.584  57.701 -56.089  1.00  0.00     0.236 C 
HETATM   15  N   UNL     1     -43.940  56.914 -57.041  1.00  0.00    -0.258 NA
HETATM   16  H   UNL     1     -43.685  56.030 -56.623  1.00  0.00     0.130 HD
HETATM   17  O   UNL     1     -45.374  58.579 -56.418  1.00  0.00    -0.274 OA
BRANCH  15  18
HETATM   18  C   UNL     1     -42.713  57.444 -57.627  1.00  0.00     0.099 C 
BRANCH  18  19
HETATM   19  C   UNL     1     -42.679  57.587 -59.149  1.00  0.00     0.048 C 
BRANCH  19  20
HETATM   20  C   UNL     1     -43.879  56.888 -59.758  1.00  0.00    -0.083 C 
HETATM   21  C   UNL     1     -45.131  57.709 -59.962  1.00  0.00     0.034 C 
HETATM   22  C   UNL     1     -46.380  56.866 -60.245  1.00  0.00     0.005 C 
HETATM   23  C   UNL     1     -46.080  55.719 -61.206  1.00  0.00     0.004 C 
HETATM   24  C   UNL     1     -44.980  54.814 -60.656  1.00  0.00     0.027 C 
HETATM   25  C   UNL     1     -43.830  55.580 -60.072  1.00  0.00    -0.024 C 
ENDBRANCH  19  20
ENDBRANCH  18  19
ENDBRANCH  15  18
ENDBRANCH  12  14
BRANCH  13  26
HETATM   26  N   UNL     1     -44.456  54.983 -54.388  1.00  0.00    -0.286 NA
HETATM   27  H   UNL     1     -45.077  54.536 -53.712  1.00  0.00     0.125 HD
HETATM   28  H   UNL     1     -43.706  54.313 -54.589  1.00  0.00     0.125 HD
ENDBRANCH  13  26
BRANCH   1  29
HETATM   29  N   UNL     1     -42.367  55.381 -52.552  1.00  0.00    -0.176 NA
HETATM   30  C   UNL     1     -41.362  55.026 -53.289  1.00  0.00     0.153 C 
BRANCH  30  31
HETATM   31  C   UNL     1     -40.624  53.774 -52.993  1.00  0.00     0.016 A 
HETATM   32  C   UNL     1     -40.376  52.886 -54.045  1.00  0.00     0.016 A 
HETATM   33  C   UNL     1     -39.769  51.654 -53.785  1.00  0.00     0.001 A 
HETATM   34  C   UNL     1     -39.412  51.308 -52.480  1.00  0.00     0.003 A 
HETATM   35  C   UNL     1     -39.657  52.191 -51.430  1.00  0.00     0.037 A 
HETATM   36  C   UNL     1     -40.262  53.418 -51.687  1.00  0.00     0.077 A 
BRANCH  36  37
HETATM   37  O   UNL     1     -40.508  54.219 -50.604  1.00  0.00    -0.360 OA
HETATM   38  H   UNL     1     -39.694  54.751 -50.470  1.00  0.00     0.217 HD
ENDBRANCH  36  37
ENDBRANCH  30  31
ENDBRANCH   1  29
TORSDOF 8
ENDMDL
