MODEL 1
REMARK VINA RESULT:      -9.0      0.000      0.000
REMARK  8 active torsions:
REMARK  status: ('A' for Active; 'I' for Inactive)
REMARK    1  A    between atoms: C_3  and  C_4 
REMARK    2  A    between atoms: N_5  and  N_6 
REMARK    3  A    between atoms: C_17  and  C_18 
REMARK       I    between atoms: C_18  and  N_19 
REMARK    4  A    between atoms: N_19  and  C_20 
REMARK    5  A    between atoms: C_20  and  C_21 
REMARK    6  A    between atoms: C_21  and  C_22 
REMARK    7  A    between atoms: C_29  and  N_30 
REMARK    8  A    between atoms: C_31  and  O_32 
ROOT
HETATM    1  N   UNL     1     -41.252  58.586 -52.187  1.00  0.00    -0.202 N 
HETATM    2  C   UNL     1     -41.650  57.695 -53.163  1.00  0.00     0.183 A 
HETATM    3  C   UNL     1     -41.817  56.450 -52.564  1.00  0.00     0.124 A 
HETATM    4  N   UNL     1     -42.201  55.370 -53.293  1.00  0.00    -0.242 NA
HETATM    5  C   UNL     1     -42.432  55.623 -54.596  1.00  0.00     0.086 A 
HETATM    6  C   UNL     1     -42.265  56.909 -55.175  1.00  0.00     0.088 A 
HETATM    7  N   UNL     1     -41.858  57.976 -54.471  1.00  0.00    -0.225 NA
HETATM    8  C   UNL     1     -42.856  54.582 -55.415  1.00  0.00     0.034 A 
HETATM    9  C   UNL     1     -43.118  54.775 -56.774  1.00  0.00     0.002 A 
HETATM   10  C   UNL     1     -42.952  56.034 -57.332  1.00  0.00     0.002 A 
HETATM   11  C   UNL     1     -42.527  57.088 -56.526  1.00  0.00     0.034 A 
HETATM   12  C   UNL     1     -41.524  56.588 -51.183  1.00  0.00     0.104 A 
HETATM   13  C   UNL     1     -41.212  57.925 -50.970  1.00  0.00     0.123 A 
ENDROOT
BRANCH  12  14
HETATM   14  C   UNL     1     -41.586  55.607 -50.121  1.00  0.00     0.257 C 
HETATM   15  N   UNL     1     -41.913  54.344 -50.593  1.00  0.00    -0.356 N 
HETATM   16  H   UNL     1     -42.248  54.327 -51.548  1.00  0.00     0.162 HD
HETATM   17  O   UNL     1     -41.221  55.839 -48.976  1.00  0.00    -0.267 OA
BRANCH  15  18
HETATM   18  C   UNL     1     -41.049  53.232 -50.248  1.00  0.00     0.127 C 
BRANCH  18  19
HETATM   19  C   UNL     1     -39.752  53.152 -51.054  1.00  0.00     0.053 C 
BRANCH  19  20
HETATM   20  C   UNL     1     -39.797  52.048 -52.084  1.00  0.00    -0.082 C 
HETATM   21  C   UNL     1     -40.157  52.454 -53.491  1.00  0.00     0.034 C 
HETATM   22  C   UNL     1     -40.554  51.274 -54.381  1.00  0.00     0.005 C 
HETATM   23  C   UNL     1     -39.616  50.087 -54.185  1.00  0.00     0.004 C 
HETATM   24  C   UNL     1     -39.599  49.628 -52.728  1.00  0.00     0.027 C 
HETATM   25  C   UNL     1     -39.549  50.767 -51.752  1.00  0.00    -0.024 C 
ENDBRANCH  19  20
ENDBRANCH  18  19
ENDBRANCH  15  18
ENDBRANCH  12  14
BRANCH  13  26
HETATM   26  N   UNL     1     -40.924  58.615 -49.825  1.00  0.00    -0.286 NA
HETATM   27  H   UNL     1     -40.370  58.127 -49.119  1.00  0.00     0.125 HD
HETATM   28  H   UNL     1     -41.726  59.071 -49.380  1.00  0.00     0.125 HD
ENDBRANCH  13  26
BRANCH   1  29
HETATM   29  N   UNL     1     -41.090  59.940 -52.304  1.00  0.00    -0.176 NA
HETATM   30  C   UNL     1     -42.141  60.664 -52.063  1.00  0.00     0.153 C 
BRANCH  30  31
HETATM   31  C   UNL     1     -43.529  60.225 -51.868  1.00  0.00     0.016 A 
HETATM   32  C   UNL     1     -44.026  60.139 -50.567  1.00  0.00     0.016 A 
HETATM   33  C   UNL     1     -45.377  59.851 -50.367  1.00  0.00     0.001 A 
HETATM   34  C   UNL     1     -46.227  59.691 -51.462  1.00  0.00     0.003 A 
HETATM   35  C   UNL     1     -45.726  59.789 -52.762  1.00  0.00     0.037 A 
HETATM   36  C   UNL     1     -44.371  60.038 -52.966  1.00  0.00     0.077 A 
BRANCH  36  37
HETATM   37  O   UNL     1     -43.940  60.095 -54.261  1.00  0.00    -0.360 OA
HETATM   38  H   UNL     1     -43.102  59.599 -54.341  1.00  0.00     0.217 HD
ENDBRANCH  36  37
ENDBRANCH  30  31
ENDBRANCH   1  29
TORSDOF 8
ENDMDL
MODEL 2
REMARK VINA RESULT:      -9.0      1.899      2.680
REMARK  8 active torsions:
REMARK  status: ('A' for Active; 'I' for Inactive)
REMARK    1  A    between atoms: C_3  and  C_4 
REMARK    2  A    between atoms: N_5  and  N_6 
REMARK    3  A    between atoms: C_17  and  C_18 
REMARK       I    between atoms: C_18  and  N_19 
REMARK    4  A    between atoms: N_19  and  C_20 
REMARK    5  A    between atoms: C_20  and  C_21 
REMARK    6  A    between atoms: C_21  and  C_22 
REMARK    7  A    between atoms: C_29  and  N_30 
REMARK    8  A    between atoms: C_31  and  O_32 
ROOT
HETATM    1  N   UNL     1     -43.964  57.948 -52.825  1.00  0.00    -0.202 N 
HETATM    2  C   UNL     1     -43.724  57.394 -54.066  1.00  0.00     0.183 A 
HETATM    3  C   UNL     1     -43.437  56.043 -53.883  1.00  0.00     0.124 A 
HETATM    4  N   UNL     1     -43.151  55.241 -54.942  1.00  0.00    -0.242 NA
HETATM    5  C   UNL     1     -43.207  55.850 -56.142  1.00  0.00     0.086 A 
HETATM    6  C   UNL     1     -43.516  57.227 -56.296  1.00  0.00     0.088 A 
HETATM    7  N   UNL     1     -43.772  58.036 -55.256  1.00  0.00    -0.225 NA
HETATM    8  C   UNL     1     -42.955  55.100 -57.285  1.00  0.00     0.034 A 
HETATM    9  C   UNL     1     -43.001  55.666 -58.562  1.00  0.00     0.002 A 
HETATM   10  C   UNL     1     -43.303  57.012 -58.704  1.00  0.00     0.002 A 
HETATM   11  C   UNL     1     -43.558  57.779 -57.568  1.00  0.00     0.034 A 
HETATM   12  C   UNL     1     -43.515  55.765 -52.495  1.00  0.00     0.104 A 
HETATM   13  C   UNL     1     -43.877  56.952 -51.866  1.00  0.00     0.123 A 
ENDROOT
BRANCH  12  14
HETATM   14  C   UNL     1     -43.345  54.512 -51.790  1.00  0.00     0.257 C 
HETATM   15  N   UNL     1     -42.124  53.917 -52.068  1.00  0.00    -0.356 N 
HETATM   16  H   UNL     1     -41.627  54.324 -52.851  1.00  0.00     0.162 HD
HETATM   17  O   UNL     1     -44.117  54.125 -50.923  1.00  0.00    -0.267 OA
BRANCH  15  18
HETATM   18  C   UNL     1     -41.271  53.536 -50.960  1.00  0.00     0.127 C 
BRANCH  18  19
HETATM   19  C   UNL     1     -39.838  53.171 -51.348  1.00  0.00     0.053 C 
BRANCH  19  20
HETATM   20  C   UNL     1     -39.787  51.927 -52.202  1.00  0.00    -0.082 C 
HETATM   21  C   UNL     1     -39.951  52.122 -53.689  1.00  0.00     0.034 C 
HETATM   22  C   UNL     1     -40.269  50.826 -54.440  1.00  0.00     0.005 C 
HETATM   23  C   UNL     1     -39.402  49.671 -53.951  1.00  0.00     0.004 C 
HETATM   24  C   UNL     1     -39.586  49.435 -52.453  1.00  0.00     0.027 C 
HETATM   25  C   UNL     1     -39.624  50.706 -51.656  1.00  0.00    -0.024 C 
ENDBRANCH  19  20
ENDBRANCH  18  19
ENDBRANCH  15  18
ENDBRANCH  12  14
BRANCH  13  26
HETATM   26  N   UNL     1     -44.157  57.233 -50.558  1.00  0.00    -0.286 NA
HETATM   27  H   UNL     1     -45.092  57.590 -50.353  1.00  0.00     0.125 HD
HETATM   28  H   UNL     1     -43.456  57.804 -50.078  1.00  0.00     0.125 HD
ENDBRANCH  13  26
BRANCH   1  29
HETATM   29  N   UNL     1     -44.399  59.215 -52.543  1.00  0.00    -0.176 NA
HETATM   30  C   UNL     1     -43.484  60.072 -52.203  1.00  0.00     0.153 C 
BRANCH  30  31
HETATM   31  C   UNL     1     -42.070  59.823 -51.893  1.00  0.00     0.016 A 
HETATM   32  C   UNL     1     -41.686  59.720 -50.555  1.00  0.00     0.016 A 
HETATM   33  C   UNL     1     -40.376  59.356 -50.242  1.00  0.00     0.001 A 
HETATM   34  C   UNL     1     -39.471  59.059 -51.263  1.00  0.00     0.003 A 
HETATM   35  C   UNL     1     -39.864  59.153 -52.600  1.00  0.00     0.037 A 
HETATM   36  C   UNL     1     -41.159  59.553 -52.916  1.00  0.00     0.077 A 
BRANCH  36  37
HETATM   37  O   UNL     1     -41.470  59.652 -54.243  1.00  0.00    -0.360 OA
HETATM   38  H   UNL     1     -42.424  59.844 -54.334  1.00  0.00     0.217 HD
ENDBRANCH  36  37
ENDBRANCH  30  31
ENDBRANCH   1  29
TORSDOF 8
ENDMDL
MODEL 3
REMARK VINA RESULT:      -8.7      2.454      4.370
REMARK  8 active torsions:
REMARK  status: ('A' for Active; 'I' for Inactive)
REMARK    1  A    between atoms: C_3  and  C_4 
REMARK    2  A    between atoms: N_5  and  N_6 
REMARK    3  A    between atoms: C_17  and  C_18 
REMARK       I    between atoms: C_18  and  N_19 
REMARK    4  A    between atoms: N_19  and  C_20 
REMARK    5  A    between atoms: C_20  and  C_21 
REMARK    6  A    between atoms: C_21  and  C_22 
REMARK    7  A    between atoms: C_29  and  N_30 
REMARK    8  A    between atoms: C_31  and  O_32 
ROOT
HETATM    1  N   UNL     1     -43.931  57.617 -53.841  1.00  0.00    -0.202 N 
HETATM    2  C   UNL     1     -43.452  58.345 -54.911  1.00  0.00     0.183 A 
HETATM    3  C   UNL     1     -42.794  57.466 -55.767  1.00  0.00     0.124 A 
HETATM    4  N   UNL     1     -42.211  57.911 -56.911  1.00  0.00    -0.242 NA
HETATM    5  C   UNL     1     -42.359  59.230 -57.144  1.00  0.00     0.086 A 
HETATM    6  C   UNL     1     -43.048  60.098 -56.256  1.00  0.00     0.088 A 
HETATM    7  N   UNL     1     -43.603  59.676 -55.110  1.00  0.00    -0.225 NA
HETATM    8  C   UNL     1     -41.818  59.769 -58.305  1.00  0.00     0.034 A 
HETATM    9  C   UNL     1     -41.938  61.127 -58.611  1.00  0.00     0.002 A 
HETATM   10  C   UNL     1     -42.613  61.969 -57.739  1.00  0.00     0.002 A 
HETATM   11  C   UNL     1     -43.161  61.445 -56.570  1.00  0.00     0.034 A 
HETATM   12  C   UNL     1     -42.885  56.165 -55.209  1.00  0.00     0.104 A 
HETATM   13  C   UNL     1     -43.622  56.281 -54.037  1.00  0.00     0.123 A 
ENDROOT
BRANCH  12  14
HETATM   14  C   UNL     1     -42.403  54.902 -55.725  1.00  0.00     0.257 C 
HETATM   15  N   UNL     1     -41.027  54.893 -55.888  1.00  0.00    -0.356 N 
HETATM   16  H   UNL     1     -40.590  55.804 -55.819  1.00  0.00     0.162 HD
HETATM   17  O   UNL     1     -43.114  53.912 -55.833  1.00  0.00    -0.267 OA
BRANCH  15  18
HETATM   18  C   UNL     1     -40.263  53.823 -55.276  1.00  0.00     0.127 C 
BRANCH  18  19
HETATM   19  C   UNL     1     -40.532  53.614 -53.786  1.00  0.00     0.053 C 
BRANCH  19  20
HETATM   20  C   UNL     1     -40.171  52.216 -53.341  1.00  0.00    -0.082 C 
HETATM   21  C   UNL     1     -39.972  52.010 -51.860  1.00  0.00     0.034 C 
HETATM   22  C   UNL     1     -39.250  50.704 -51.520  1.00  0.00     0.005 C 
HETATM   23  C   UNL     1     -39.783  49.540 -52.349  1.00  0.00     0.004 C 
HETATM   24  C   UNL     1     -39.639  49.813 -53.845  1.00  0.00     0.027 C 
HETATM   25  C   UNL     1     -40.016  51.215 -54.227  1.00  0.00    -0.024 C 
ENDBRANCH  19  20
ENDBRANCH  18  19
ENDBRANCH  15  18
ENDBRANCH  12  14
BRANCH  13  26
HETATM   26  N   UNL     1     -44.064  55.338 -53.151  1.00  0.00    -0.286 NA
HETATM   27  H   UNL     1     -44.663  55.665 -52.390  1.00  0.00     0.125 HD
HETATM   28  H   UNL     1     -43.338  54.720 -52.777  1.00  0.00     0.125 HD
ENDBRANCH  13  26
BRANCH   1  29
HETATM   29  N   UNL     1     -44.738  58.053 -52.825  1.00  0.00    -0.176 NA
HETATM   30  C   UNL     1     -44.134  58.526 -51.777  1.00  0.00     0.153 C 
BRANCH  30  31
HETATM   31  C   UNL     1     -42.702  58.483 -51.451  1.00  0.00     0.016 A 
HETATM   32  C   UNL     1     -41.930  59.623 -51.679  1.00  0.00     0.016 A 
HETATM   33  C   UNL     1     -40.600  59.647 -51.255  1.00  0.00     0.001 A 
HETATM   34  C   UNL     1     -40.064  58.553 -50.574  1.00  0.00     0.003 A 
HETATM   35  C   UNL     1     -40.845  57.419 -50.338  1.00  0.00     0.037 A 
HETATM   36  C   UNL     1     -42.160  57.377 -50.793  1.00  0.00     0.077 A 
BRANCH  36  37
HETATM   37  O   UNL     1     -42.861  56.228 -50.556  1.00  0.00    -0.360 OA
HETATM   38  H   UNL     1     -42.233  55.497 -50.400  1.00  0.00     0.217 HD
ENDBRANCH  36  37
ENDBRANCH  30  31
ENDBRANCH   1  29
TORSDOF 8
ENDMDL
MODEL 4
REMARK VINA RESULT:      -8.5      2.495      4.095
REMARK  8 active torsions:
REMARK  status: ('A' for Active; 'I' for Inactive)
REMARK    1  A    between atoms: C_3  and  C_4 
REMARK    2  A    between atoms: N_5  and  N_6 
REMARK    3  A    between atoms: C_17  and  C_18 
REMARK       I    between atoms: C_18  and  N_19 
REMARK    4  A    between atoms: N_19  and  C_20 
REMARK    5  A    between atoms: C_20  and  C_21 
REMARK    6  A    between atoms: C_21  and  C_22 
REMARK    7  A    between atoms: C_29  and  N_30 
REMARK    8  A    between atoms: C_31  and  O_32 
ROOT
HETATM    1  N   UNL     1     -44.130  58.275 -54.447  1.00  0.00    -0.202 N 
HETATM    2  C   UNL     1     -43.664  58.084 -55.732  1.00  0.00     0.183 A 
HETATM    3  C   UNL     1     -43.378  56.730 -55.887  1.00  0.00     0.124 A 
HETATM    4  N   UNL     1     -42.890  56.250 -57.061  1.00  0.00    -0.242 NA
HETATM    5  C   UNL     1     -42.753  57.172 -58.034  1.00  0.00     0.086 A 
HETATM    6  C   UNL     1     -43.066  58.544 -57.848  1.00  0.00     0.088 A 
HETATM    7  N   UNL     1     -43.521  59.035 -56.685  1.00  0.00    -0.225 NA
HETATM    8  C   UNL     1     -42.285  56.765 -59.278  1.00  0.00     0.034 A 
HETATM    9  C   UNL     1     -42.123  57.668 -60.333  1.00  0.00     0.002 A 
HETATM   10  C   UNL     1     -42.431  59.007 -60.144  1.00  0.00     0.002 A 
HETATM   11  C   UNL     1     -42.900  59.431 -58.901  1.00  0.00     0.034 A 
HETATM   12  C   UNL     1     -43.689  56.077 -54.667  1.00  0.00     0.104 A 
HETATM   13  C   UNL     1     -44.186  57.048 -53.806  1.00  0.00     0.123 A 
ENDROOT
BRANCH  12  14
HETATM   14  C   UNL     1     -43.611  54.673 -54.323  1.00  0.00     0.257 C 
HETATM   15  N   UNL     1     -42.708  53.988 -55.121  1.00  0.00    -0.356 N 
HETATM   16  H   UNL     1     -42.393  54.501 -55.935  1.00  0.00     0.162 HD
HETATM   17  O   UNL     1     -44.151  54.199 -53.332  1.00  0.00    -0.267 OA
BRANCH  15  18
HETATM   18  C   UNL     1     -41.673  53.202 -54.479  1.00  0.00     0.127 C 
BRANCH  18  19
HETATM   19  C   UNL     1     -40.533  54.019 -53.869  1.00  0.00     0.053 C 
BRANCH  19  20
HETATM   20  C   UNL     1     -40.577  54.005 -52.360  1.00  0.00    -0.082 C 
HETATM   21  C   UNL     1     -39.963  52.807 -51.679  1.00  0.00     0.034 C 
HETATM   22  C   UNL     1     -40.370  52.668 -50.210  1.00  0.00     0.005 C 
HETATM   23  C   UNL     1     -40.329  54.012 -49.490  1.00  0.00     0.004 C 
HETATM   24  C   UNL     1     -41.245  55.032 -50.166  1.00  0.00     0.027 C 
HETATM   25  C   UNL     1     -41.154  55.003 -51.664  1.00  0.00    -0.024 C 
ENDBRANCH  19  20
ENDBRANCH  18  19
ENDBRANCH  15  18
ENDBRANCH  12  14
BRANCH  13  26
HETATM   26  N   UNL     1     -44.697  56.959 -52.541  1.00  0.00    -0.286 NA
HETATM   27  H   UNL     1     -45.714  56.938 -52.455  1.00  0.00     0.125 HD
HETATM   28  H   UNL     1     -44.307  57.625 -51.868  1.00  0.00     0.125 HD
ENDBRANCH  13  26
BRANCH   1  29
HETATM   29  N   UNL     1     -44.641  59.422 -53.903  1.00  0.00    -0.176 NA
HETATM   30  C   UNL     1     -43.847  60.084 -53.115  1.00  0.00     0.153 C 
BRANCH  30  31
HETATM   31  C   UNL     1     -42.544  59.674 -52.576  1.00  0.00     0.016 A 
HETATM   32  C   UNL     1     -42.479  59.215 -51.260  1.00  0.00     0.016 A 
HETATM   33  C   UNL     1     -41.279  58.698 -50.771  1.00  0.00     0.001 A 
HETATM   34  C   UNL     1     -40.165  58.608 -51.609  1.00  0.00     0.003 A 
HETATM   35  C   UNL     1     -40.239  59.059 -52.929  1.00  0.00     0.037 A 
HETATM   36  C   UNL     1     -41.424  59.610 -53.408  1.00  0.00     0.077 A 
BRANCH  36  37
HETATM   37  O   UNL     1     -41.422  60.058 -54.699  1.00  0.00    -0.360 OA
HETATM   38  H   UNL     1     -41.281  61.024 -54.701  1.00  0.00     0.217 HD
ENDBRANCH  36  37
ENDBRANCH  30  31
ENDBRANCH   1  29
TORSDOF 8
ENDMDL
MODEL 5
REMARK VINA RESULT:      -8.3      3.767      5.673
REMARK  8 active torsions:
REMARK  status: ('A' for Active; 'I' for Inactive)
REMARK    1  A    between atoms: C_3  and  C_4 
REMARK    2  A    between atoms: N_5  and  N_6 
REMARK    3  A    between atoms: C_17  and  C_18 
REMARK       I    between atoms: C_18  and  N_19 
REMARK    4  A    between atoms: N_19  and  C_20 
REMARK    5  A    between atoms: C_20  and  C_21 
REMARK    6  A    between atoms: C_21  and  C_22 
REMARK    7  A    between atoms: C_29  and  N_30 
REMARK    8  A    between atoms: C_31  and  O_32 
ROOT
HETATM    1  N   UNL     1     -43.827  60.603 -56.862  1.00  0.00    -0.202 N 
HETATM    2  C   UNL     1     -43.803  59.346 -57.429  1.00  0.00     0.183 A 
HETATM    3  C   UNL     1     -43.021  58.526 -56.618  1.00  0.00     0.124 A 
HETATM    4  N   UNL     1     -42.813  57.222 -56.939  1.00  0.00    -0.242 NA
HETATM    5  C   UNL     1     -43.444  56.808 -58.054  1.00  0.00     0.086 A 
HETATM    6  C   UNL     1     -44.245  57.666 -58.853  1.00  0.00     0.088 A 
HETATM    7  N   UNL     1     -44.435  58.962 -58.563  1.00  0.00    -0.225 NA
HETATM    8  C   UNL     1     -43.309  55.480 -58.445  1.00  0.00     0.034 A 
HETATM    9  C   UNL     1     -43.939  54.982 -59.589  1.00  0.00     0.002 A 
HETATM   10  C   UNL     1     -44.720  55.827 -60.364  1.00  0.00     0.002 A 
HETATM   11  C   UNL     1     -44.865  57.161 -59.987  1.00  0.00     0.034 A 
HETATM   12  C   UNL     1     -42.567  59.303 -55.522  1.00  0.00     0.104 A 
HETATM   13  C   UNL     1     -43.109  60.574 -55.678  1.00  0.00     0.123 A 
ENDROOT
BRANCH  12  14
HETATM   14  C   UNL     1     -41.763  58.915 -54.383  1.00  0.00     0.257 C 
HETATM   15  N   UNL     1     -42.009  57.609 -53.989  1.00  0.00    -0.356 N 
HETATM   16  H   UNL     1     -42.831  57.191 -54.408  1.00  0.00     0.162 HD
HETATM   17  O   UNL     1     -40.855  59.606 -53.942  1.00  0.00    -0.267 OA
BRANCH  15  18
HETATM   18  C   UNL     1     -40.886  56.701 -53.858  1.00  0.00     0.127 C 
BRANCH  18  19
HETATM   19  C   UNL     1     -40.981  55.435 -54.710  1.00  0.00     0.053 C 
BRANCH  19  20
HETATM   20  C   UNL     1     -40.658  54.195 -53.911  1.00  0.00    -0.082 C 
HETATM   21  C   UNL     1     -40.207  52.987 -54.694  1.00  0.00     0.034 C 
HETATM   22  C   UNL     1     -40.265  51.686 -53.890  1.00  0.00     0.005 C 
HETATM   23  C   UNL     1     -39.723  51.878 -52.477  1.00  0.00     0.004 C 
HETATM   24  C   UNL     1     -40.499  52.961 -51.729  1.00  0.00     0.027 C 
HETATM   25  C   UNL     1     -40.787  54.169 -52.571  1.00  0.00    -0.024 C 
ENDBRANCH  19  20
ENDBRANCH  18  19
ENDBRANCH  15  18
ENDBRANCH  12  14
BRANCH  13  26
HETATM   26  N   UNL     1     -43.053  61.683 -54.882  1.00  0.00    -0.286 NA
HETATM   27  H   UNL     1     -43.881  61.889 -54.318  1.00  0.00     0.125 HD
HETATM   28  H   UNL     1     -42.733  62.537 -55.349  1.00  0.00     0.125 HD
ENDBRANCH  13  26
BRANCH   1  29
HETATM   29  N   UNL     1     -44.568  61.685 -57.255  1.00  0.00    -0.176 NA
HETATM   30  C   UNL     1     -44.039  62.438 -58.172  1.00  0.00     0.153 C 
BRANCH  30  31
HETATM   31  C   UNL     1     -42.674  62.398 -58.712  1.00  0.00     0.016 A 
HETATM   32  C   UNL     1     -42.460  61.787 -59.948  1.00  0.00     0.016 A 
HETATM   33  C   UNL     1     -41.197  61.853 -60.538  1.00  0.00     0.001 A 
HETATM   34  C   UNL     1     -40.170  62.561 -59.911  1.00  0.00     0.003 A 
HETATM   35  C   UNL     1     -40.393  63.181 -58.679  1.00  0.00     0.037 A 
HETATM   36  C   UNL     1     -41.640  63.084 -58.069  1.00  0.00     0.077 A 
BRANCH  36  37
HETATM   37  O   UNL     1     -41.784  63.688 -56.852  1.00  0.00    -0.360 OA
HETATM   38  H   UNL     1     -41.876  63.002 -56.163  1.00  0.00     0.217 HD
ENDBRANCH  36  37
ENDBRANCH  30  31
ENDBRANCH   1  29
TORSDOF 8
ENDMDL
MODEL 6
REMARK VINA RESULT:      -8.2      2.987      5.824
REMARK  8 active torsions:
REMARK  status: ('A' for Active; 'I' for Inactive)
REMARK    1  A    between atoms: C_3  and  C_4 
REMARK    2  A    between atoms: N_5  and  N_6 
REMARK    3  A    between atoms: C_17  and  C_18 
REMARK       I    between atoms: C_18  and  N_19 
REMARK    4  A    between atoms: N_19  and  C_20 
REMARK    5  A    between atoms: C_20  and  C_21 
REMARK    6  A    between atoms: C_21  and  C_22 
REMARK    7  A    between atoms: C_29  and  N_30 
REMARK    8  A    between atoms: C_31  and  O_32 
ROOT
HETATM    1  N   UNL     1     -43.231  58.098 -57.012  1.00  0.00    -0.202 N 
HETATM    2  C   UNL     1     -43.758  58.244 -55.745  1.00  0.00     0.183 A 
HETATM    3  C   UNL     1     -43.600  57.034 -55.074  1.00  0.00     0.124 A 
HETATM    4  N   UNL     1     -44.039  56.881 -53.797  1.00  0.00    -0.242 NA
HETATM    5  C   UNL     1     -44.586  57.985 -53.253  1.00  0.00     0.086 A 
HETATM    6  C   UNL     1     -44.721  59.209 -53.959  1.00  0.00     0.088 A 
HETATM    7  N   UNL     1     -44.318  59.364 -55.230  1.00  0.00    -0.225 NA
HETATM    8  C   UNL     1     -45.039  57.929 -51.939  1.00  0.00     0.034 A 
HETATM    9  C   UNL     1     -45.612  59.039 -51.311  1.00  0.00     0.002 A 
HETATM   10  C   UNL     1     -45.740  60.231 -52.008  1.00  0.00     0.002 A 
HETATM   11  C   UNL     1     -45.293  60.303 -53.327  1.00  0.00     0.034 A 
HETATM   12  C   UNL     1     -42.949  56.131 -55.952  1.00  0.00     0.104 A 
HETATM   13  C   UNL     1     -42.700  56.824 -57.131  1.00  0.00     0.123 A 
ENDROOT
BRANCH  12  14
HETATM   14  C   UNL     1     -42.520  54.767 -55.726  1.00  0.00     0.257 C 
HETATM   15  N   UNL     1     -41.141  54.661 -55.629  1.00  0.00    -0.356 N 
HETATM   16  H   UNL     1     -40.635  55.488 -55.921  1.00  0.00     0.162 HD
HETATM   17  O   UNL     1     -43.299  53.856 -55.478  1.00  0.00    -0.267 OA
BRANCH  15  18
HETATM   18  C   UNL     1     -40.577  54.001 -54.468  1.00  0.00     0.127 C 
BRANCH  18  19
HETATM   19  C   UNL     1     -39.930  52.645 -54.751  1.00  0.00     0.053 C 
BRANCH  19  20
HETATM   20  C   UNL     1     -39.839  51.795 -53.505  1.00  0.00    -0.082 C 
HETATM   21  C   UNL     1     -39.529  50.333 -53.708  1.00  0.00     0.034 C 
HETATM   22  C   UNL     1     -39.824  49.473 -52.477  1.00  0.00     0.005 C 
HETATM   23  C   UNL     1     -39.341  50.147 -51.197  1.00  0.00     0.004 C 
HETATM   24  C   UNL     1     -39.990  51.518 -51.013  1.00  0.00     0.027 C 
HETATM   25  C   UNL     1     -40.047  52.317 -52.282  1.00  0.00    -0.024 C 
ENDBRANCH  19  20
ENDBRANCH  18  19
ENDBRANCH  15  18
ENDBRANCH  12  14
BRANCH  13  26
HETATM   26  N   UNL     1     -42.041  56.461 -58.272  1.00  0.00    -0.286 NA
HETATM   27  H   UNL     1     -41.108  56.062 -58.159  1.00  0.00     0.125 HD
HETATM   28  H   UNL     1     -42.026  57.172 -59.009  1.00  0.00     0.125 HD
ENDBRANCH  13  26
BRANCH   1  29
HETATM   29  N   UNL     1     -43.064  59.066 -57.966  1.00  0.00    -0.176 NA
HETATM   30  C   UNL     1     -43.939  59.078 -58.926  1.00  0.00     0.153 C 
BRANCH  30  31
HETATM   31  C   UNL     1     -44.972  58.081 -59.235  1.00  0.00     0.016 A 
HETATM   32  C   UNL     1     -46.242  58.238 -58.678  1.00  0.00     0.016 A 
HETATM   33  C   UNL     1     -47.271  57.377 -59.062  1.00  0.00     0.001 A 
HETATM   34  C   UNL     1     -47.037  56.393 -60.025  1.00  0.00     0.003 A 
HETATM   35  C   UNL     1     -45.766  56.248 -60.587  1.00  0.00     0.037 A 
HETATM   36  C   UNL     1     -44.728  57.080 -60.178  1.00  0.00     0.077 A 
BRANCH  36  37
HETATM   37  O   UNL     1     -43.503  56.867 -60.746  1.00  0.00    -0.360 OA
HETATM   38  H   UNL     1     -43.589  56.194 -61.448  1.00  0.00     0.217 HD
ENDBRANCH  36  37
ENDBRANCH  30  31
ENDBRANCH   1  29
TORSDOF 8
ENDMDL
MODEL 7
REMARK VINA RESULT:      -8.1      4.190      6.507
REMARK  8 active torsions:
REMARK  status: ('A' for Active; 'I' for Inactive)
REMARK    1  A    between atoms: C_3  and  C_4 
REMARK    2  A    between atoms: N_5  and  N_6 
REMARK    3  A    between atoms: C_17  and  C_18 
REMARK       I    between atoms: C_18  and  N_19 
REMARK    4  A    between atoms: N_19  and  C_20 
REMARK    5  A    between atoms: C_20  and  C_21 
REMARK    6  A    between atoms: C_21  and  C_22 
REMARK    7  A    between atoms: C_29  and  N_30 
REMARK    8  A    between atoms: C_31  and  O_32 
ROOT
HETATM    1  N   UNL     1     -43.179  57.430 -58.863  1.00  0.00    -0.202 N 
HETATM    2  C   UNL     1     -42.554  58.657 -58.952  1.00  0.00     0.183 A 
HETATM    3  C   UNL     1     -42.114  59.007 -57.678  1.00  0.00     0.124 A 
HETATM    4  N   UNL     1     -41.465  60.181 -57.462  1.00  0.00    -0.242 NA
HETATM    5  C   UNL     1     -41.263  60.926 -58.566  1.00  0.00     0.086 A 
HETATM    6  C   UNL     1     -41.713  60.534 -59.855  1.00  0.00     0.088 A 
HETATM    7  N   UNL     1     -42.381  59.391 -60.076  1.00  0.00    -0.225 NA
HETATM    8  C   UNL     1     -40.583  62.132 -58.445  1.00  0.00     0.034 A 
HETATM    9  C   UNL     1     -40.336  62.952 -59.549  1.00  0.00     0.002 A 
HETATM   10  C   UNL     1     -40.778  62.562 -60.805  1.00  0.00     0.002 A 
HETATM   11  C   UNL     1     -41.463  61.356 -60.944  1.00  0.00     0.034 A 
HETATM   12  C   UNL     1     -42.470  57.959 -56.791  1.00  0.00     0.104 A 
HETATM   13  C   UNL     1     -43.096  56.980 -57.555  1.00  0.00     0.123 A 
ENDROOT
BRANCH  12  14
HETATM   14  C   UNL     1     -42.208  57.816 -55.375  1.00  0.00     0.257 C 
HETATM   15  N   UNL     1     -42.451  56.528 -54.925  1.00  0.00    -0.356 N 
HETATM   16  H   UNL     1     -42.953  55.942 -55.581  1.00  0.00     0.162 HD
HETATM   17  O   UNL     1     -41.669  58.688 -54.706  1.00  0.00    -0.267 OA
BRANCH  15  18
HETATM   18  C   UNL     1     -41.404  55.838 -54.198  1.00  0.00     0.127 C 
BRANCH  18  19
HETATM   19  C   UNL     1     -40.880  54.571 -54.873  1.00  0.00     0.053 C 
BRANCH  19  20
HETATM   20  C   UNL     1     -40.467  53.526 -53.864  1.00  0.00    -0.082 C 
HETATM   21  C   UNL     1     -39.950  52.222 -54.416  1.00  0.00     0.034 C 
HETATM   22  C   UNL     1     -39.913  51.095 -53.381  1.00  0.00     0.005 C 
HETATM   23  C   UNL     1     -39.367  51.584 -52.043  1.00  0.00     0.004 C 
HETATM   24  C   UNL     1     -40.202  52.739 -51.492  1.00  0.00     0.027 C 
HETATM   25  C   UNL     1     -40.577  53.746 -52.540  1.00  0.00    -0.024 C 
ENDBRANCH  19  20
ENDBRANCH  18  19
ENDBRANCH  15  18
ENDBRANCH  12  14
BRANCH  13  26
HETATM   26  N   UNL     1     -43.570  55.742 -57.225  1.00  0.00    -0.286 NA
HETATM   27  H   UNL     1     -43.445  55.443 -56.256  1.00  0.00     0.125 HD
HETATM   28  H   UNL     1     -43.291  54.987 -57.858  1.00  0.00     0.125 HD
ENDBRANCH  13  26
BRANCH   1  29
HETATM   29  N   UNL     1     -43.652  56.654 -59.887  1.00  0.00    -0.176 NA
HETATM   30  C   UNL     1     -44.835  56.955 -60.332  1.00  0.00     0.153 C 
BRANCH  30  31
HETATM   31  C   UNL     1     -45.815  57.890 -59.763  1.00  0.00     0.016 A 
HETATM   32  C   UNL     1     -46.541  57.496 -58.638  1.00  0.00     0.016 A 
HETATM   33  C   UNL     1     -47.379  58.415 -58.006  1.00  0.00     0.001 A 
HETATM   34  C   UNL     1     -47.457  59.728 -58.475  1.00  0.00     0.003 A 
HETATM   35  C   UNL     1     -46.720  60.119 -59.595  1.00  0.00     0.037 A 
HETATM   36  C   UNL     1     -45.912  59.195 -60.251  1.00  0.00     0.077 A 
BRANCH  36  37
HETATM   37  O   UNL     1     -45.240  59.634 -61.357  1.00  0.00    -0.360 OA
HETATM   38  H   UNL     1     -45.348  58.983 -62.077  1.00  0.00     0.217 HD
ENDBRANCH  36  37
ENDBRANCH  30  31
ENDBRANCH   1  29
TORSDOF 8
ENDMDL
MODEL 8
REMARK VINA RESULT:      -8.1      2.498      6.608
REMARK  8 active torsions:
REMARK  status: ('A' for Active; 'I' for Inactive)
REMARK    1  A    between atoms: C_3  and  C_4 
REMARK    2  A    between atoms: N_5  and  N_6 
REMARK    3  A    between atoms: C_17  and  C_18 
REMARK       I    between atoms: C_18  and  N_19 
REMARK    4  A    between atoms: N_19  and  C_20 
REMARK    5  A    between atoms: C_20  and  C_21 
REMARK    6  A    between atoms: C_21  and  C_22 
REMARK    7  A    between atoms: C_29  and  N_30 
REMARK    8  A    between atoms: C_31  and  O_32 
ROOT
HETATM    1  N   UNL     1     -44.133  57.322 -53.645  1.00  0.00    -0.202 N 
HETATM    2  C   UNL     1     -43.203  56.329 -53.881  1.00  0.00     0.183 A 
HETATM    3  C   UNL     1     -42.551  56.628 -55.074  1.00  0.00     0.124 A 
HETATM    4  N   UNL     1     -41.581  55.812 -55.563  1.00  0.00    -0.242 NA
HETATM    5  C   UNL     1     -41.297  54.747 -54.789  1.00  0.00     0.086 A 
HETATM    6  C   UNL     1     -41.972  54.476 -53.570  1.00  0.00     0.088 A 
HETATM    7  N   UNL     1     -42.952  55.259 -53.091  1.00  0.00    -0.225 NA
HETATM    8  C   UNL     1     -40.299  53.870 -55.198  1.00  0.00     0.034 A 
HETATM    9  C   UNL     1     -39.950  52.748 -54.441  1.00  0.00     0.002 A 
HETATM   10  C   UNL     1     -40.614  52.491 -53.251  1.00  0.00     0.002 A 
HETATM   11  C   UNL     1     -41.619  53.359 -52.827  1.00  0.00     0.034 A 
HETATM   12  C   UNL     1     -43.090  57.842 -55.573  1.00  0.00     0.104 A 
HETATM   13  C   UNL     1     -44.041  58.268 -54.653  1.00  0.00     0.123 A 
ENDROOT
BRANCH  12  14
HETATM   14  C   UNL     1     -42.730  58.598 -56.753  1.00  0.00     0.257 C 
HETATM   15  N   UNL     1     -41.893  57.885 -57.598  1.00  0.00    -0.356 N 
HETATM   16  H   UNL     1     -41.503  57.045 -57.190  1.00  0.00     0.162 HD
HETATM   17  O   UNL     1     -43.249  59.668 -57.042  1.00  0.00    -0.267 OA
BRANCH  15  18
HETATM   18  C   UNL     1     -42.270  57.747 -58.991  1.00  0.00     0.127 C 
BRANCH  18  19
HETATM   19  C   UNL     1     -42.827  56.375 -59.372  1.00  0.00     0.053 C 
BRANCH  19  20
HETATM   20  C   UNL     1     -44.302  56.436 -59.690  1.00  0.00    -0.082 C 
HETATM   21  C   UNL     1     -44.821  55.422 -60.679  1.00  0.00     0.034 C 
HETATM   22  C   UNL     1     -46.203  55.771 -61.237  1.00  0.00     0.005 C 
HETATM   23  C   UNL     1     -47.142  56.260 -60.139  1.00  0.00     0.004 C 
HETATM   24  C   UNL     1     -46.570  57.485 -59.426  1.00  0.00     0.027 C 
HETATM   25  C   UNL     1     -45.103  57.364 -59.132  1.00  0.00    -0.024 C 
ENDBRANCH  19  20
ENDBRANCH  18  19
ENDBRANCH  15  18
ENDBRANCH  12  14
BRANCH  13  26
HETATM   26  N   UNL     1     -44.805  59.400 -54.601  1.00  0.00    -0.286 NA
HETATM   27  H   UNL     1     -44.551  60.158 -55.238  1.00  0.00     0.125 HD
HETATM   28  H   UNL     1     -44.959  59.777 -53.661  1.00  0.00     0.125 HD
ENDBRANCH  13  26
BRANCH   1  29
HETATM   29  N   UNL     1     -44.909  57.494 -52.531  1.00  0.00    -0.176 NA
HETATM   30  C   UNL     1     -44.331  58.054 -51.512  1.00  0.00     0.153 C 
BRANCH  30  31
HETATM   31  C   UNL     1     -42.906  58.356 -51.321  1.00  0.00     0.016 A 
HETATM   32  C   UNL     1     -42.436  59.620 -51.679  1.00  0.00     0.016 A 
HETATM   33  C   UNL     1     -41.117  59.970 -51.386  1.00  0.00     0.001 A 
HETATM   34  C   UNL     1     -40.292  59.075 -50.704  1.00  0.00     0.003 A 
HETATM   35  C   UNL     1     -40.771  57.815 -50.338  1.00  0.00     0.037 A 
HETATM   36  C   UNL     1     -42.074  57.447 -50.663  1.00  0.00     0.077 A 
BRANCH  36  37
HETATM   37  O   UNL     1     -42.472  56.191 -50.302  1.00  0.00    -0.360 OA
HETATM   38  H   UNL     1     -41.761  55.767 -49.784  1.00  0.00     0.217 HD
ENDBRANCH  36  37
ENDBRANCH  30  31
ENDBRANCH   1  29
TORSDOF 8
ENDMDL
MODEL 9
REMARK VINA RESULT:      -8.0      2.538      6.939
REMARK  8 active torsions:
REMARK  status: ('A' for Active; 'I' for Inactive)
REMARK    1  A    between atoms: C_3  and  C_4 
REMARK    2  A    between atoms: N_5  and  N_6 
REMARK    3  A    between atoms: C_17  and  C_18 
REMARK       I    between atoms: C_18  and  N_19 
REMARK    4  A    between atoms: N_19  and  C_20 
REMARK    5  A    between atoms: C_20  and  C_21 
REMARK    6  A    between atoms: C_21  and  C_22 
REMARK    7  A    between atoms: C_29  and  N_30 
REMARK    8  A    between atoms: C_31  and  O_32 
ROOT
HETATM    1  N   UNL     1     -43.909  56.290 -53.086  1.00  0.00    -0.202 N 
HETATM    2  C   UNL     1     -42.928  55.328 -53.218  1.00  0.00     0.183 A 
HETATM    3  C   UNL     1     -42.468  55.363 -54.532  1.00  0.00     0.124 A 
HETATM    4  N   UNL     1     -41.498  54.512 -54.955  1.00  0.00    -0.242 NA
HETATM    5  C   UNL     1     -41.016  53.688 -54.005  1.00  0.00     0.086 A 
HETATM    6  C   UNL     1     -41.497  53.685 -52.669  1.00  0.00     0.088 A 
HETATM    7  N   UNL     1     -42.476  54.501 -52.247  1.00  0.00    -0.225 NA
HETATM    8  C   UNL     1     -40.001  52.800 -54.341  1.00  0.00     0.034 A 
HETATM    9  C   UNL     1     -39.452  51.921 -53.403  1.00  0.00     0.002 A 
HETATM   10  C   UNL     1     -39.927  51.924 -52.100  1.00  0.00     0.002 A 
HETATM   11  C   UNL     1     -40.947  52.808 -51.747  1.00  0.00     0.034 A 
HETATM   12  C   UNL     1     -43.180  56.382 -55.215  1.00  0.00     0.104 A 
HETATM   13  C   UNL     1     -44.039  56.963 -54.289  1.00  0.00     0.123 A 
ENDROOT
BRANCH  12  14
HETATM   14  C   UNL     1     -43.050  56.847 -56.580  1.00  0.00     0.257 C 
HETATM   15  N   UNL     1     -42.735  55.819 -57.455  1.00  0.00    -0.356 N 
HETATM   16  H   UNL     1     -42.451  54.957 -57.006  1.00  0.00     0.162 HD
HETATM   17  O   UNL     1     -43.357  57.978 -56.931  1.00  0.00    -0.267 OA
BRANCH  15  18
HETATM   18  C   UNL     1     -43.566  55.628 -58.628  1.00  0.00     0.127 C 
BRANCH  18  19
HETATM   19  C   UNL     1     -42.907  56.014 -59.952  1.00  0.00     0.053 C 
BRANCH  19  20
HETATM   20  C   UNL     1     -43.006  57.498 -60.217  1.00  0.00    -0.082 C 
HETATM   21  C   UNL     1     -44.394  58.087 -60.240  1.00  0.00     0.034 C 
HETATM   22  C   UNL     1     -44.452  59.478 -60.878  1.00  0.00     0.005 C 
HETATM   23  C   UNL     1     -43.299  60.357 -60.406  1.00  0.00     0.004 C 
HETATM   24  C   UNL     1     -41.948  59.719 -60.728  1.00  0.00     0.027 C 
HETATM   25  C   UNL     1     -41.909  58.246 -60.440  1.00  0.00    -0.024 C 
ENDBRANCH  19  20
ENDBRANCH  18  19
ENDBRANCH  15  18
ENDBRANCH  12  14
BRANCH  13  26
HETATM   26  N   UNL     1     -44.893  58.026 -54.391  1.00  0.00    -0.286 NA
HETATM   27  H   UNL     1     -44.510  58.891 -54.777  1.00  0.00     0.125 HD
HETATM   28  H   UNL     1     -45.430  58.233 -53.544  1.00  0.00     0.125 HD
ENDBRANCH  13  26
BRANCH   1  29
HETATM   29  N   UNL     1     -44.547  56.683 -51.940  1.00  0.00    -0.176 NA
HETATM   30  C   UNL     1     -43.917  57.548 -51.203  1.00  0.00     0.153 C 
BRANCH  30  31
HETATM   31  C   UNL     1     -42.531  58.019 -51.329  1.00  0.00     0.016 A 
HETATM   32  C   UNL     1     -42.277  59.149 -52.108  1.00  0.00     0.016 A 
HETATM   33  C   UNL     1     -40.991  59.690 -52.135  1.00  0.00     0.001 A 
HETATM   34  C   UNL     1     -39.979  59.124 -51.357  1.00  0.00     0.003 A 
HETATM   35  C   UNL     1     -40.242  57.999 -50.571  1.00  0.00     0.037 A 
HETATM   36  C   UNL     1     -41.514  57.435 -50.571  1.00  0.00     0.077 A 
BRANCH  36  37
HETATM   37  O   UNL     1     -41.698  56.320 -49.803  1.00  0.00    -0.360 OA
HETATM   38  H   UNL     1     -40.896  55.764 -49.850  1.00  0.00     0.217 HD
ENDBRANCH  36  37
ENDBRANCH  30  31
ENDBRANCH   1  29
TORSDOF 8
ENDMDL
MODEL 10
REMARK VINA RESULT:      -8.0      3.399      6.414
REMARK  8 active torsions:
REMARK  status: ('A' for Active; 'I' for Inactive)
REMARK    1  A    between atoms: C_3  and  C_4 
REMARK    2  A    between atoms: N_5  and  N_6 
REMARK    3  A    between atoms: C_17  and  C_18 
REMARK       I    between atoms: C_18  and  N_19 
REMARK    4  A    between atoms: N_19  and  C_20 
REMARK    5  A    between atoms: C_20  and  C_21 
REMARK    6  A    between atoms: C_21  and  C_22 
REMARK    7  A    between atoms: C_29  and  N_30 
REMARK    8  A    between atoms: C_31  and  O_32 
ROOT
HETATM    1  N   UNL     1     -42.713  58.185 -57.568  1.00  0.00    -0.202 N 
HETATM    2  C   UNL     1     -43.691  59.135 -57.356  1.00  0.00     0.183 A 
HETATM    3  C   UNL     1     -44.337  58.824 -56.162  1.00  0.00     0.124 A 
HETATM    4  N   UNL     1     -45.360  59.591 -55.703  1.00  0.00    -0.242 NA
HETATM    5  C   UNL     1     -45.650  60.662 -56.466  1.00  0.00     0.086 A 
HETATM    6  C   UNL     1     -44.962  60.959 -57.673  1.00  0.00     0.088 A 
HETATM    7  N   UNL     1     -43.970  60.193 -58.152  1.00  0.00    -0.225 NA
HETATM    8  C   UNL     1     -46.666  61.519 -56.059  1.00  0.00     0.034 A 
HETATM    9  C   UNL     1     -47.015  62.651 -56.801  1.00  0.00     0.002 A 
HETATM   10  C   UNL     1     -46.339  62.934 -57.978  1.00  0.00     0.002 A 
HETATM   11  C   UNL     1     -45.319  62.084 -58.402  1.00  0.00     0.034 A 
HETATM   12  C   UNL     1     -43.729  57.660 -55.628  1.00  0.00     0.104 A 
HETATM   13  C   UNL     1     -42.704  57.305 -56.498  1.00  0.00     0.123 A 
ENDROOT
BRANCH  12  14
HETATM   14  C   UNL     1     -44.002  56.957 -54.392  1.00  0.00     0.257 C 
HETATM   15  N   UNL     1     -44.369  55.638 -54.610  1.00  0.00    -0.356 N 
HETATM   16  H   UNL     1     -44.585  55.416 -55.574  1.00  0.00     0.162 HD
HETATM   17  O   UNL     1     -43.762  57.430 -53.290  1.00  0.00    -0.267 OA
BRANCH  15  18
HETATM   18  C   UNL     1     -43.649  54.593 -53.909  1.00  0.00     0.127 C 
BRANCH  18  19
HETATM   19  C   UNL     1     -42.558  53.904 -54.730  1.00  0.00     0.053 C 
BRANCH  19  20
HETATM   20  C   UNL     1     -41.517  53.256 -53.847  1.00  0.00    -0.082 C 
HETATM   21  C   UNL     1     -41.416  53.772 -52.433  1.00  0.00     0.034 C 
HETATM   22  C   UNL     1     -40.123  53.358 -51.727  1.00  0.00     0.005 C 
HETATM   23  C   UNL     1     -39.788  51.893 -51.991  1.00  0.00     0.004 C 
HETATM   24  C   UNL     1     -39.647  51.618 -53.487  1.00  0.00     0.027 C 
HETATM   25  C   UNL     1     -40.711  52.283 -54.311  1.00  0.00    -0.024 C 
ENDBRANCH  19  20
ENDBRANCH  18  19
ENDBRANCH  15  18
ENDBRANCH  12  14
BRANCH  13  26
HETATM   26  N   UNL     1     -41.763  56.316 -56.431  1.00  0.00    -0.286 NA
HETATM   27  H   UNL     1     -40.836  56.582 -56.094  1.00  0.00     0.125 HD
HETATM   28  H   UNL     1     -41.672  55.747 -57.278  1.00  0.00     0.125 HD
ENDBRANCH  13  26
BRANCH   1  29
HETATM   29  N   UNL     1     -41.761  58.168 -58.552  1.00  0.00    -0.176 NA
HETATM   30  C   UNL     1     -42.095  57.578 -59.660  1.00  0.00     0.153 C 
BRANCH  30  31
HETATM   31  C   UNL     1     -43.282  56.760 -59.939  1.00  0.00     0.016 A 
HETATM   32  C   UNL     1     -43.265  55.412 -59.579  1.00  0.00     0.016 A 
HETATM   33  C   UNL     1     -44.427  54.650 -59.714  1.00  0.00     0.001 A 
HETATM   34  C   UNL     1     -45.604  55.246 -60.168  1.00  0.00     0.003 A 
HETATM   35  C   UNL     1     -45.618  56.599 -60.516  1.00  0.00     0.037 A 
HETATM   36  C   UNL     1     -44.452  57.352 -60.419  1.00  0.00     0.077 A 
BRANCH  36  37
HETATM   37  O   UNL     1     -44.526  58.662 -60.802  1.00  0.00    -0.360 OA
HETATM   38  H   UNL     1     -45.342  59.056 -60.437  1.00  0.00     0.217 HD
ENDBRANCH  36  37
ENDBRANCH  30  31
ENDBRANCH   1  29
TORSDOF 8
ENDMDL
