MODEL 1
REMARK VINA RESULT:      -7.9      0.000      0.000
REMARK  6 active torsions:
REMARK  status: ('A' for Active; 'I' for Inactive)
REMARK    1  A    between atoms: C_2  and  C_3 
REMARK    2  A    between atoms: C_7  and  C_8 
REMARK       I    between atoms: C_8  and  N_9 
REMARK    3  A    between atoms: N_9  and  C_10 
REMARK    4  A    between atoms: C_13  and  C_14 
REMARK       I    between atoms: C_14  and  N_15 
REMARK    5  A    between atoms: N_15  and  C_16 
REMARK    6  A    between atoms: C_16  and  C_17 
ROOT
HETATM    1  C   UNL     1     -43.763  58.212 -51.612  1.00  0.00     0.035 A 
HETATM    2  C   UNL     1     -42.827  57.328 -51.057  1.00  0.00     0.030 A 
HETATM    3  C   UNL     1     -42.376  56.215 -51.778  1.00  0.00     0.019 A 
HETATM    4  C   UNL     1     -42.878  55.968 -53.058  1.00  0.00     0.032 A 
HETATM    5  C   UNL     1     -43.848  56.816 -53.597  1.00  0.00     0.019 A 
HETATM    6  C   UNL     1     -44.281  57.937 -52.881  1.00  0.00     0.030 A 
ENDROOT
BRANCH   1   7
HETATM    7  N   UNL     1     -44.138  59.334 -50.844  1.00  0.00    -0.322 N 
HETATM    8  C   UNL     1     -45.335  59.522 -50.179  1.00  0.00     0.274 C 
HETATM    9  O   UNL     1     -46.293  58.757 -50.213  1.00  0.00    -0.266 OA
HETATM   10  H   UNL     1     -43.508  60.123 -50.866  1.00  0.00     0.169 HD
BRANCH   8  11
HETATM   11  C   UNL     1     -45.426  60.763 -49.447  1.00  0.00     0.120 A 
HETATM   12  N   UNL     1     -46.093  61.840 -49.968  1.00  0.00    -0.273 N 
HETATM   13  N   UNL     1     -46.082  62.926 -49.181  1.00  0.00    -0.179 NA
HETATM   14  H   UNL     1     -46.567  61.885 -50.866  1.00  0.00     0.189 HD
HETATM   15  C   UNL     1     -45.428  62.525 -48.086  1.00  0.00     0.056 A 
HETATM   16  C   UNL     1     -44.985  61.185 -48.207  1.00  0.00     0.065 A 
BRANCH  15  17
HETATM   17  C   UNL     1     -45.245  63.456 -46.935  1.00  0.00     0.056 C 
HETATM   18  C   UNL     1     -45.248  62.732 -45.596  1.00  0.00     0.011 C 
ENDBRANCH  15  17
ENDBRANCH   8  11
ENDBRANCH   1   7
BRANCH   4  19
HETATM   19  C   UNL     1     -42.407  54.832 -53.891  1.00  0.00     0.251 C 
HETATM   20  N   UNL     1     -41.108  54.433 -53.680  1.00  0.00    -0.353 N 
HETATM   21  H   UNL     1     -40.530  54.900 -52.995  1.00  0.00     0.163 HD
HETATM   22  O   UNL     1     -43.141  54.351 -54.744  1.00  0.00    -0.268 OA
BRANCH  20  23
HETATM   23  C   UNL     1     -40.480  53.447 -54.532  1.00  0.00     0.161 C 
BRANCH  23  24
HETATM   24  C   UNL     1     -40.187  52.169 -53.785  1.00  0.00    -0.041 A 
HETATM   25  C   UNL     1     -40.154  50.943 -54.466  1.00  0.00     0.009 A 
HETATM   26  C   UNL     1     -39.845  49.762 -53.788  1.00  0.00     0.001 A 
HETATM   27  C   UNL     1     -39.566  49.792 -52.423  1.00  0.00     0.000 A 
HETATM   28  C   UNL     1     -39.580  51.004 -51.737  1.00  0.00     0.001 A 
HETATM   29  C   UNL     1     -39.879  52.186 -52.415  1.00  0.00     0.009 A 
ENDBRANCH  23  24
ENDBRANCH  20  23
ENDBRANCH   4  19
TORSDOF 6
ENDMDL
MODEL 2
REMARK VINA RESULT:      -7.9      1.298      1.649
REMARK  6 active torsions:
REMARK  status: ('A' for Active; 'I' for Inactive)
REMARK    1  A    between atoms: C_2  and  C_3 
REMARK    2  A    between atoms: C_7  and  C_8 
REMARK       I    between atoms: C_8  and  N_9 
REMARK    3  A    between atoms: N_9  and  C_10 
REMARK    4  A    between atoms: C_13  and  C_14 
REMARK       I    between atoms: C_14  and  N_15 
REMARK    5  A    between atoms: N_15  and  C_16 
REMARK    6  A    between atoms: C_16  and  C_17 
ROOT
HETATM    1  C   UNL     1     -44.393  57.617 -51.564  1.00  0.00     0.035 A 
HETATM    2  C   UNL     1     -43.904  56.468 -50.925  1.00  0.00     0.030 A 
HETATM    3  C   UNL     1     -43.285  55.448 -51.659  1.00  0.00     0.019 A 
HETATM    4  C   UNL     1     -43.168  55.565 -53.047  1.00  0.00     0.032 A 
HETATM    5  C   UNL     1     -43.699  56.682 -53.694  1.00  0.00     0.019 A 
HETATM    6  C   UNL     1     -44.300  57.706 -52.955  1.00  0.00     0.030 A 
ENDROOT
BRANCH   1   7
HETATM    7  N   UNL     1     -44.966  58.620 -50.755  1.00  0.00    -0.322 N 
HETATM    8  C   UNL     1     -44.487  59.901 -50.556  1.00  0.00     0.274 C 
HETATM    9  O   UNL     1     -43.437  60.344 -51.010  1.00  0.00    -0.266 OA
HETATM   10  H   UNL     1     -45.751  58.341 -50.184  1.00  0.00     0.169 HD
BRANCH   8  11
HETATM   11  C   UNL     1     -45.304  60.720 -49.693  1.00  0.00     0.120 A 
HETATM   12  N   UNL     1     -45.490  60.388 -48.378  1.00  0.00    -0.273 N 
HETATM   13  N   UNL     1     -46.283  61.234 -47.705  1.00  0.00    -0.179 NA
HETATM   14  H   UNL     1     -45.102  59.584 -47.893  1.00  0.00     0.189 HD
HETATM   15  C   UNL     1     -46.583  62.180 -48.602  1.00  0.00     0.056 A 
HETATM   16  C   UNL     1     -46.007  61.898 -49.865  1.00  0.00     0.065 A 
BRANCH  15  17
HETATM   17  C   UNL     1     -47.427  63.345 -48.213  1.00  0.00     0.056 C 
HETATM   18  C   UNL     1     -47.349  63.649 -46.723  1.00  0.00     0.011 C 
ENDBRANCH  15  17
ENDBRANCH   8  11
ENDBRANCH   1   7
BRANCH   4  19
HETATM   19  C   UNL     1     -42.483  54.540 -53.875  1.00  0.00     0.251 C 
HETATM   20  N   UNL     1     -41.165  54.301 -53.562  1.00  0.00    -0.353 N 
HETATM   21  H   UNL     1     -40.715  54.804 -52.810  1.00  0.00     0.163 HD
HETATM   22  O   UNL     1     -43.072  54.011 -54.809  1.00  0.00    -0.268 OA
BRANCH  20  23
HETATM   23  C   UNL     1     -40.343  53.446 -54.390  1.00  0.00     0.161 C 
BRANCH  23  24
HETATM   24  C   UNL     1     -40.044  52.131 -53.712  1.00  0.00    -0.041 A 
HETATM   25  C   UNL     1     -39.799  52.086 -52.332  1.00  0.00     0.009 A 
HETATM   26  C   UNL     1     -39.560  50.868 -51.692  1.00  0.00     0.001 A 
HETATM   27  C   UNL     1     -39.564  49.681 -52.424  1.00  0.00     0.000 A 
HETATM   28  C   UNL     1     -39.821  49.710 -53.792  1.00  0.00     0.001 A 
HETATM   29  C   UNL     1     -40.069  50.925 -54.431  1.00  0.00     0.009 A 
ENDBRANCH  23  24
ENDBRANCH  20  23
ENDBRANCH   4  19
TORSDOF 6
ENDMDL
MODEL 3
REMARK VINA RESULT:      -7.4      1.736     10.626
REMARK  6 active torsions:
REMARK  status: ('A' for Active; 'I' for Inactive)
REMARK    1  A    between atoms: C_2  and  C_3 
REMARK    2  A    between atoms: C_7  and  C_8 
REMARK       I    between atoms: C_8  and  N_9 
REMARK    3  A    between atoms: N_9  and  C_10 
REMARK    4  A    between atoms: C_13  and  C_14 
REMARK       I    between atoms: C_14  and  N_15 
REMARK    5  A    between atoms: N_15  and  C_16 
REMARK    6  A    between atoms: C_16  and  C_17 
ROOT
HETATM    1  C   UNL     1     -42.067  56.664 -51.486  1.00  0.00     0.035 A 
HETATM    2  C   UNL     1     -43.460  56.808 -51.576  1.00  0.00     0.030 A 
HETATM    3  C   UNL     1     -44.062  58.063 -51.431  1.00  0.00     0.019 A 
HETATM    4  C   UNL     1     -43.271  59.186 -51.174  1.00  0.00     0.032 A 
HETATM    5  C   UNL     1     -41.890  59.042 -51.031  1.00  0.00     0.019 A 
HETATM    6  C   UNL     1     -41.291  57.789 -51.196  1.00  0.00     0.030 A 
ENDROOT
BRANCH   1   7
HETATM    7  N   UNL     1     -41.529  55.375 -51.685  1.00  0.00    -0.322 N 
HETATM    8  C   UNL     1     -40.987  54.873 -52.853  1.00  0.00     0.274 C 
HETATM    9  O   UNL     1     -40.954  55.460 -53.928  1.00  0.00    -0.266 OA
HETATM   10  H   UNL     1     -41.643  54.721 -50.924  1.00  0.00     0.169 HD
BRANCH   8  11
HETATM   11  C   UNL     1     -40.486  53.523 -52.749  1.00  0.00     0.120 A 
HETATM   12  N   UNL     1     -39.972  53.052 -51.571  1.00  0.00    -0.273 N 
HETATM   13  N   UNL     1     -39.532  51.787 -51.630  1.00  0.00    -0.179 NA
HETATM   14  H   UNL     1     -39.890  53.563 -50.696  1.00  0.00     0.189 HD
HETATM   15  C   UNL     1     -39.818  51.403 -52.879  1.00  0.00     0.056 A 
HETATM   16  C   UNL     1     -40.403  52.457 -53.624  1.00  0.00     0.065 A 
BRANCH  15  17
HETATM   17  C   UNL     1     -39.518  50.013 -53.326  1.00  0.00     0.056 C 
HETATM   18  C   UNL     1     -39.895  49.777 -54.782  1.00  0.00     0.011 C 
ENDBRANCH  15  17
ENDBRANCH   8  11
ENDBRANCH   1   7
BRANCH   4  19
HETATM   19  C   UNL     1     -43.845  60.551 -51.055  1.00  0.00     0.251 C 
HETATM   20  N   UNL     1     -43.784  61.120 -49.804  1.00  0.00    -0.353 N 
HETATM   21  H   UNL     1     -43.369  60.619 -49.030  1.00  0.00     0.163 HD
HETATM   22  O   UNL     1     -44.385  61.076 -52.020  1.00  0.00    -0.268 OA
BRANCH  20  23
HETATM   23  C   UNL     1     -44.445  62.374 -49.519  1.00  0.00     0.161 C 
BRANCH  23  24
HETATM   24  C   UNL     1     -44.724  62.537 -48.045  1.00  0.00    -0.041 A 
HETATM   25  C   UNL     1     -44.923  63.813 -47.499  1.00  0.00     0.009 A 
HETATM   26  C   UNL     1     -45.219  63.966 -46.143  1.00  0.00     0.001 A 
HETATM   27  C   UNL     1     -45.322  62.848 -45.318  1.00  0.00     0.000 A 
HETATM   28  C   UNL     1     -45.143  61.573 -45.850  1.00  0.00     0.001 A 
HETATM   29  C   UNL     1     -44.855  61.417 -47.207  1.00  0.00     0.009 A 
ENDBRANCH  23  24
ENDBRANCH  20  23
ENDBRANCH   4  19
TORSDOF 6
ENDMDL
MODEL 4
REMARK VINA RESULT:      -7.3     17.180     20.049
REMARK  6 active torsions:
REMARK  status: ('A' for Active; 'I' for Inactive)
REMARK    1  A    between atoms: C_2  and  C_3 
REMARK    2  A    between atoms: C_7  and  C_8 
REMARK       I    between atoms: C_8  and  N_9 
REMARK    3  A    between atoms: N_9  and  C_10 
REMARK    4  A    between atoms: C_13  and  C_14 
REMARK       I    between atoms: C_14  and  N_15 
REMARK    5  A    between atoms: N_15  and  C_16 
REMARK    6  A    between atoms: C_16  and  C_17 
ROOT
HETATM    1  C   UNL     1     -34.213  40.591 -51.238  1.00  0.00     0.035 A 
HETATM    2  C   UNL     1     -34.214  39.787 -52.388  1.00  0.00     0.030 A 
HETATM    3  C   UNL     1     -34.702  40.277 -53.605  1.00  0.00     0.019 A 
HETATM    4  C   UNL     1     -35.214  41.576 -53.675  1.00  0.00     0.032 A 
HETATM    5  C   UNL     1     -35.264  42.363 -52.522  1.00  0.00     0.019 A 
HETATM    6  C   UNL     1     -34.757  41.876 -51.313  1.00  0.00     0.030 A 
ENDROOT
BRANCH   1   7
HETATM    7  N   UNL     1     -33.667  40.044 -50.058  1.00  0.00    -0.322 N 
HETATM    8  C   UNL     1     -32.327  39.914 -49.746  1.00  0.00     0.274 C 
HETATM    9  O   UNL     1     -31.395  40.201 -50.490  1.00  0.00    -0.266 OA
HETATM   10  H   UNL     1     -34.320  39.611 -49.421  1.00  0.00     0.169 HD
BRANCH   8  11
HETATM   11  C   UNL     1     -32.066  39.340 -48.448  1.00  0.00     0.120 A 
HETATM   12  N   UNL     1     -32.820  38.300 -47.974  1.00  0.00    -0.273 N 
HETATM   13  N   UNL     1     -32.471  37.881 -46.749  1.00  0.00    -0.179 NA
HETATM   14  H   UNL     1     -33.596  37.846 -48.449  1.00  0.00     0.189 HD
HETATM   15  C   UNL     1     -31.417  38.642 -46.435  1.00  0.00     0.056 A 
HETATM   16  C   UNL     1     -31.132  39.580 -47.458  1.00  0.00     0.065 A 
BRANCH  15  17
HETATM   17  C   UNL     1     -30.703  38.443 -45.141  1.00  0.00     0.056 C 
HETATM   18  C   UNL     1     -30.526  39.742 -44.369  1.00  0.00     0.011 C 
ENDBRANCH  15  17
ENDBRANCH   8  11
ENDBRANCH   1   7
BRANCH   4  19
HETATM   19  C   UNL     1     -35.704  42.169 -54.945  1.00  0.00     0.251 C 
HETATM   20  N   UNL     1     -37.041  41.992 -55.212  1.00  0.00    -0.353 N 
HETATM   21  H   UNL     1     -37.633  41.486 -54.567  1.00  0.00     0.163 HD
HETATM   22  O   UNL     1     -34.920  42.719 -55.708  1.00  0.00    -0.268 OA
BRANCH  20  23
HETATM   23  C   UNL     1     -37.608  42.381 -56.484  1.00  0.00     0.161 C 
BRANCH  23  24
HETATM   24  C   UNL     1     -37.581  41.247 -57.479  1.00  0.00    -0.041 A 
HETATM   25  C   UNL     1     -37.992  39.961 -57.098  1.00  0.00     0.009 A 
HETATM   26  C   UNL     1     -38.005  38.916 -58.024  1.00  0.00     0.001 A 
HETATM   27  C   UNL     1     -37.611  39.144 -59.341  1.00  0.00     0.000 A 
HETATM   28  C   UNL     1     -37.215  40.419 -59.737  1.00  0.00     0.001 A 
HETATM   29  C   UNL     1     -37.209  41.466 -58.815  1.00  0.00     0.009 A 
ENDBRANCH  23  24
ENDBRANCH  20  23
ENDBRANCH   4  19
TORSDOF 6
ENDMDL
MODEL 5
REMARK VINA RESULT:      -7.3      2.741      3.501
REMARK  6 active torsions:
REMARK  status: ('A' for Active; 'I' for Inactive)
REMARK    1  A    between atoms: C_2  and  C_3 
REMARK    2  A    between atoms: C_7  and  C_8 
REMARK       I    between atoms: C_8  and  N_9 
REMARK    3  A    between atoms: N_9  and  C_10 
REMARK    4  A    between atoms: C_13  and  C_14 
REMARK       I    between atoms: C_14  and  N_15 
REMARK    5  A    between atoms: N_15  and  C_16 
REMARK    6  A    between atoms: C_16  and  C_17 
ROOT
HETATM    1  C   UNL     1     -43.528  57.943 -51.509  1.00  0.00     0.035 A 
HETATM    2  C   UNL     1     -42.264  58.300 -51.016  1.00  0.00     0.030 A 
HETATM    3  C   UNL     1     -41.326  57.319 -50.670  1.00  0.00     0.019 A 
HETATM    4  C   UNL     1     -41.657  55.968 -50.798  1.00  0.00     0.032 A 
HETATM    5  C   UNL     1     -42.931  55.605 -51.239  1.00  0.00     0.019 A 
HETATM    6  C   UNL     1     -43.858  56.588 -51.601  1.00  0.00     0.030 A 
ENDROOT
BRANCH   1   7
HETATM    7  N   UNL     1     -44.405  58.985 -51.877  1.00  0.00    -0.322 N 
HETATM    8  C   UNL     1     -45.488  59.452 -51.156  1.00  0.00     0.274 C 
HETATM    9  O   UNL     1     -45.894  58.978 -50.100  1.00  0.00    -0.266 OA
HETATM   10  H   UNL     1     -44.290  59.359 -52.808  1.00  0.00     0.169 HD
BRANCH   8  11
HETATM   11  C   UNL     1     -46.188  60.553 -51.771  1.00  0.00     0.120 A 
HETATM   12  N   UNL     1     -46.363  60.605 -53.128  1.00  0.00    -0.273 N 
HETATM   13  N   UNL     1     -47.020  61.693 -53.557  1.00  0.00    -0.179 NA
HETATM   14  H   UNL     1     -46.041  59.922 -53.809  1.00  0.00     0.189 HD
HETATM   15  C   UNL     1     -47.329  62.347 -52.432  1.00  0.00     0.056 A 
HETATM   16  C   UNL     1     -46.820  61.684 -51.289  1.00  0.00     0.065 A 
BRANCH  15  17
HETATM   17  C   UNL     1     -48.118  63.611 -52.490  1.00  0.00     0.056 C 
HETATM   18  C   UNL     1     -48.501  63.993 -53.912  1.00  0.00     0.011 C 
ENDBRANCH  15  17
ENDBRANCH   8  11
ENDBRANCH   1   7
BRANCH   4  19
HETATM   19  C   UNL     1     -40.691  54.882 -50.491  1.00  0.00     0.251 C 
HETATM   20  N   UNL     1     -40.928  53.677 -51.111  1.00  0.00    -0.353 N 
HETATM   21  H   UNL     1     -41.716  53.564 -51.733  1.00  0.00     0.163 HD
HETATM   22  O   UNL     1     -39.791  55.071 -49.683  1.00  0.00    -0.268 OA
BRANCH  20  23
HETATM   23  C   UNL     1     -40.158  52.499 -50.776  1.00  0.00     0.161 C 
BRANCH  23  24
HETATM   24  C   UNL     1     -39.962  51.601 -51.973  1.00  0.00    -0.041 A 
HETATM   25  C   UNL     1     -39.613  50.254 -51.798  1.00  0.00     0.009 A 
HETATM   26  C   UNL     1     -39.468  49.409 -52.900  1.00  0.00     0.001 A 
HETATM   27  C   UNL     1     -39.671  49.898 -54.189  1.00  0.00     0.000 A 
HETATM   28  C   UNL     1     -40.033  51.230 -54.377  1.00  0.00     0.001 A 
HETATM   29  C   UNL     1     -40.187  52.074 -53.276  1.00  0.00     0.009 A 
ENDBRANCH  23  24
ENDBRANCH  20  23
ENDBRANCH   4  19
TORSDOF 6
ENDMDL
MODEL 6
REMARK VINA RESULT:      -7.1      5.648     10.361
REMARK  6 active torsions:
REMARK  status: ('A' for Active; 'I' for Inactive)
REMARK    1  A    between atoms: C_2  and  C_3 
REMARK    2  A    between atoms: C_7  and  C_8 
REMARK       I    between atoms: C_8  and  N_9 
REMARK    3  A    between atoms: N_9  and  C_10 
REMARK    4  A    between atoms: C_13  and  C_14 
REMARK       I    between atoms: C_14  and  N_15 
REMARK    5  A    between atoms: N_15  and  C_16 
REMARK    6  A    between atoms: C_16  and  C_17 
ROOT
HETATM    1  C   UNL     1     -42.501  54.953 -55.458  1.00  0.00     0.035 A 
HETATM    2  C   UNL     1     -42.948  56.027 -54.673  1.00  0.00     0.030 A 
HETATM    3  C   UNL     1     -43.586  57.127 -55.260  1.00  0.00     0.019 A 
HETATM    4  C   UNL     1     -43.764  57.168 -56.645  1.00  0.00     0.032 A 
HETATM    5  C   UNL     1     -43.275  56.127 -57.437  1.00  0.00     0.019 A 
HETATM    6  C   UNL     1     -42.655  55.022 -56.845  1.00  0.00     0.030 A 
ENDROOT
BRANCH   1   7
HETATM    7  N   UNL     1     -41.905  53.861 -54.793  1.00  0.00    -0.322 N 
HETATM    8  C   UNL     1     -40.554  53.637 -54.611  1.00  0.00     0.274 C 
HETATM    9  O   UNL     1     -39.652  54.332 -55.066  1.00  0.00    -0.266 OA
HETATM   10  H   UNL     1     -42.527  53.117 -54.510  1.00  0.00     0.169 HD
BRANCH   8  11
HETATM   11  C   UNL     1     -40.240  52.443 -53.864  1.00  0.00     0.120 A 
HETATM   12  N   UNL     1     -40.007  51.254 -54.502  1.00  0.00    -0.273 N 
HETATM   13  N   UNL     1     -39.741  50.230 -53.677  1.00  0.00    -0.179 NA
HETATM   14  H   UNL     1     -40.027  51.088 -55.504  1.00  0.00     0.189 HD
HETATM   15  C   UNL     1     -39.751  50.785 -52.460  1.00  0.00     0.056 A 
HETATM   16  C   UNL     1     -40.071  52.163 -52.520  1.00  0.00     0.065 A 
BRANCH  15  17
HETATM   17  C   UNL     1     -39.446  49.961 -51.256  1.00  0.00     0.056 C 
HETATM   18  C   UNL     1     -40.175  50.454 -50.014  1.00  0.00     0.011 C 
ENDBRANCH  15  17
ENDBRANCH   8  11
ENDBRANCH   1   7
BRANCH   4  19
HETATM   19  C   UNL     1     -44.472  58.285 -57.322  1.00  0.00     0.251 C 
HETATM   20  N   UNL     1     -45.801  58.069 -57.600  1.00  0.00    -0.353 N 
HETATM   21  H   UNL     1     -46.246  57.197 -57.348  1.00  0.00     0.163 HD
HETATM   22  O   UNL     1     -43.858  59.292 -57.650  1.00  0.00    -0.268 OA
BRANCH  20  23
HETATM   23  C   UNL     1     -46.562  59.009 -58.394  1.00  0.00     0.161 C 
BRANCH  23  24
HETATM   24  C   UNL     1     -47.076  58.379 -59.665  1.00  0.00    -0.041 A 
HETATM   25  C   UNL     1     -46.946  56.999 -59.874  1.00  0.00     0.009 A 
HETATM   26  C   UNL     1     -47.453  56.404 -61.032  1.00  0.00     0.001 A 
HETATM   27  C   UNL     1     -48.098  57.182 -61.992  1.00  0.00     0.000 A 
HETATM   28  C   UNL     1     -48.248  58.552 -61.790  1.00  0.00     0.001 A 
HETATM   29  C   UNL     1     -47.749  59.146 -60.631  1.00  0.00     0.009 A 
ENDBRANCH  23  24
ENDBRANCH  20  23
ENDBRANCH   4  19
TORSDOF 6
ENDMDL
MODEL 7
REMARK VINA RESULT:      -7.1     17.757     20.372
REMARK  6 active torsions:
REMARK  status: ('A' for Active; 'I' for Inactive)
REMARK    1  A    between atoms: C_2  and  C_3 
REMARK    2  A    between atoms: C_7  and  C_8 
REMARK       I    between atoms: C_8  and  N_9 
REMARK    3  A    between atoms: N_9  and  C_10 
REMARK    4  A    between atoms: C_13  and  C_14 
REMARK       I    between atoms: C_14  and  N_15 
REMARK    5  A    between atoms: N_15  and  C_16 
REMARK    6  A    between atoms: C_16  and  C_17 
ROOT
HETATM    1  C   UNL     1     -35.463  39.833 -52.169  1.00  0.00     0.035 A 
HETATM    2  C   UNL     1     -34.076  39.661 -52.044  1.00  0.00     0.030 A 
HETATM    3  C   UNL     1     -33.511  39.245 -50.832  1.00  0.00     0.019 A 
HETATM    4  C   UNL     1     -34.334  39.017 -49.726  1.00  0.00     0.032 A 
HETATM    5  C   UNL     1     -35.709  39.237 -49.829  1.00  0.00     0.019 A 
HETATM    6  C   UNL     1     -36.271  39.634 -51.046  1.00  0.00     0.030 A 
ENDROOT
BRANCH   1   7
HETATM    7  N   UNL     1     -35.963  40.213 -53.432  1.00  0.00    -0.322 N 
HETATM    8  C   UNL     1     -36.121  41.500 -53.910  1.00  0.00     0.274 C 
HETATM    9  O   UNL     1     -35.906  42.525 -53.271  1.00  0.00    -0.266 OA
HETATM   10  H   UNL     1     -36.339  39.472 -54.006  1.00  0.00     0.169 HD
BRANCH   8  11
HETATM   11  C   UNL     1     -36.633  41.582 -55.257  1.00  0.00     0.120 A 
HETATM   12  N   UNL     1     -37.854  41.052 -55.579  1.00  0.00    -0.273 N 
HETATM   13  N   UNL     1     -38.190  41.191 -56.869  1.00  0.00    -0.179 NA
HETATM   14  H   UNL     1     -38.494  40.574 -54.950  1.00  0.00     0.189 HD
HETATM   15  C   UNL     1     -37.173  41.882 -57.396  1.00  0.00     0.056 A 
HETATM   16  C   UNL     1     -36.167  42.140 -56.433  1.00  0.00     0.065 A 
BRANCH  15  17
HETATM   17  C   UNL     1     -37.199  42.282 -58.832  1.00  0.00     0.056 C 
HETATM   18  C   UNL     1     -37.234  41.083 -59.769  1.00  0.00     0.011 C 
ENDBRANCH  15  17
ENDBRANCH   8  11
ENDBRANCH   1   7
BRANCH   4  19
HETATM   19  C   UNL     1     -33.802  38.531 -48.427  1.00  0.00     0.251 C 
HETATM   20  N   UNL     1     -32.432  38.471 -48.327  1.00  0.00    -0.353 N 
HETATM   21  H   UNL     1     -31.845  38.746 -49.102  1.00  0.00     0.163 HD
HETATM   22  O   UNL     1     -34.570  38.158 -47.550  1.00  0.00    -0.268 OA
BRANCH  20  23
HETATM   23  C   UNL     1     -31.791  37.870 -47.178  1.00  0.00     0.161 C 
BRANCH  23  24
HETATM   24  C   UNL     1     -31.148  38.907 -46.289  1.00  0.00    -0.041 A 
HETATM   25  C   UNL     1     -31.148  38.743 -44.897  1.00  0.00     0.009 A 
HETATM   26  C   UNL     1     -30.521  39.680 -44.072  1.00  0.00     0.001 A 
HETATM   27  C   UNL     1     -29.886  40.788 -44.629  1.00  0.00     0.000 A 
HETATM   28  C   UNL     1     -29.866  40.955 -46.011  1.00  0.00     0.001 A 
HETATM   29  C   UNL     1     -30.484  40.016 -46.837  1.00  0.00     0.009 A 
ENDBRANCH  23  24
ENDBRANCH  20  23
ENDBRANCH   4  19
TORSDOF 6
ENDMDL
MODEL 8
REMARK VINA RESULT:      -7.1      6.099     10.373
REMARK  6 active torsions:
REMARK  status: ('A' for Active; 'I' for Inactive)
REMARK    1  A    between atoms: C_2  and  C_3 
REMARK    2  A    between atoms: C_7  and  C_8 
REMARK       I    between atoms: C_8  and  N_9 
REMARK    3  A    between atoms: N_9  and  C_10 
REMARK    4  A    between atoms: C_13  and  C_14 
REMARK       I    between atoms: C_14  and  N_15 
REMARK    5  A    between atoms: N_15  and  C_16 
REMARK    6  A    between atoms: C_16  and  C_17 
ROOT
HETATM    1  C   UNL     1     -42.223  55.618 -55.744  1.00  0.00     0.035 A 
HETATM    2  C   UNL     1     -42.765  55.264 -56.988  1.00  0.00     0.030 A 
HETATM    3  C   UNL     1     -43.231  56.244 -57.873  1.00  0.00     0.019 A 
HETATM    4  C   UNL     1     -43.174  57.591 -57.508  1.00  0.00     0.032 A 
HETATM    5  C   UNL     1     -42.684  57.947 -56.250  1.00  0.00     0.019 A 
HETATM    6  C   UNL     1     -42.203  56.966 -55.377  1.00  0.00     0.030 A 
ENDROOT
BRANCH   1   7
HETATM    7  N   UNL     1     -41.736  54.580 -54.923  1.00  0.00    -0.322 N 
HETATM    8  C   UNL     1     -40.412  54.266 -54.679  1.00  0.00     0.274 C 
HETATM    9  O   UNL     1     -39.446  54.812 -55.200  1.00  0.00    -0.266 OA
HETATM   10  H   UNL     1     -42.425  53.938 -54.557  1.00  0.00     0.169 HD
BRANCH   8  11
HETATM   11  C   UNL     1     -40.216  53.163 -53.769  1.00  0.00     0.120 A 
HETATM   12  N   UNL     1     -40.332  53.337 -52.416  1.00  0.00    -0.273 N 
HETATM   13  N   UNL     1     -40.108  52.227 -51.697  1.00  0.00    -0.179 NA
HETATM   14  H   UNL     1     -40.554  54.203 -51.931  1.00  0.00     0.189 HD
HETATM   15  C   UNL     1     -39.889  51.284 -52.619  1.00  0.00     0.056 A 
HETATM   16  C   UNL     1     -39.932  51.819 -53.930  1.00  0.00     0.065 A 
BRANCH  15  17
HETATM   17  C   UNL     1     -39.643  49.872 -52.208  1.00  0.00     0.056 C 
HETATM   18  C   UNL     1     -39.684  49.691 -50.697  1.00  0.00     0.011 C 
ENDBRANCH  15  17
ENDBRANCH   8  11
ENDBRANCH   1   7
BRANCH   4  19
HETATM   19  C   UNL     1     -43.609  58.680 -58.419  1.00  0.00     0.251 C 
HETATM   20  N   UNL     1     -42.723  59.017 -59.415  1.00  0.00    -0.353 N 
HETATM   21  H   UNL     1     -41.837  58.539 -59.501  1.00  0.00     0.163 HD
HETATM   22  O   UNL     1     -44.671  59.258 -58.222  1.00  0.00    -0.268 OA
BRANCH  20  23
HETATM   23  C   UNL     1     -42.956  60.162 -60.268  1.00  0.00     0.161 C 
BRANCH  23  24
HETATM   24  C   UNL     1     -41.806  61.139 -60.218  1.00  0.00    -0.041 A 
HETATM   25  C   UNL     1     -41.345  61.750 -61.393  1.00  0.00     0.009 A 
HETATM   26  C   UNL     1     -40.307  62.683 -61.348  1.00  0.00     0.001 A 
HETATM   27  C   UNL     1     -39.721  63.019 -60.129  1.00  0.00     0.000 A 
HETATM   28  C   UNL     1     -40.179  62.432 -58.952  1.00  0.00     0.001 A 
HETATM   29  C   UNL     1     -41.222  61.505 -58.994  1.00  0.00     0.009 A 
ENDBRANCH  23  24
ENDBRANCH  20  23
ENDBRANCH   4  19
TORSDOF 6
ENDMDL
MODEL 9
REMARK VINA RESULT:      -6.9      6.255     10.689
REMARK  6 active torsions:
REMARK  status: ('A' for Active; 'I' for Inactive)
REMARK    1  A    between atoms: C_2  and  C_3 
REMARK    2  A    between atoms: C_7  and  C_8 
REMARK       I    between atoms: C_8  and  N_9 
REMARK    3  A    between atoms: N_9  and  C_10 
REMARK    4  A    between atoms: C_13  and  C_14 
REMARK       I    between atoms: C_14  and  N_15 
REMARK    5  A    between atoms: N_15  and  C_16 
REMARK    6  A    between atoms: C_16  and  C_17 
ROOT
HETATM    1  C   UNL     1     -42.575  56.085 -56.947  1.00  0.00     0.035 A 
HETATM    2  C   UNL     1     -42.539  57.456 -56.650  1.00  0.00     0.030 A 
HETATM    3  C   UNL     1     -43.186  58.386 -57.473  1.00  0.00     0.019 A 
HETATM    4  C   UNL     1     -43.859  57.949 -58.617  1.00  0.00     0.032 A 
HETATM    5  C   UNL     1     -43.855  56.592 -58.947  1.00  0.00     0.019 A 
HETATM    6  C   UNL     1     -43.225  55.665 -58.111  1.00  0.00     0.030 A 
ENDROOT
BRANCH   1   7
HETATM    7  N   UNL     1     -41.937  55.204 -56.049  1.00  0.00    -0.322 N 
HETATM    8  C   UNL     1     -42.511  54.558 -54.971  1.00  0.00     0.274 C 
HETATM    9  O   UNL     1     -43.667  54.708 -54.587  1.00  0.00    -0.266 OA
HETATM   10  H   UNL     1     -40.936  55.116 -56.145  1.00  0.00     0.169 HD
BRANCH   8  11
HETATM   11  C   UNL     1     -41.615  53.691 -54.245  1.00  0.00     0.120 A 
HETATM   12  N   UNL     1     -41.079  54.078 -53.046  1.00  0.00    -0.273 N 
HETATM   13  N   UNL     1     -40.254  53.176 -52.495  1.00  0.00    -0.179 NA
HETATM   14  H   UNL     1     -41.239  54.959 -52.564  1.00  0.00     0.189 HD
HETATM   15  C   UNL     1     -40.295  52.141 -53.342  1.00  0.00     0.056 A 
HETATM   16  C   UNL     1     -41.121  52.418 -54.459  1.00  0.00     0.065 A 
BRANCH  15  17
HETATM   17  C   UNL     1     -39.529  50.897 -53.048  1.00  0.00     0.056 C 
HETATM   18  C   UNL     1     -39.506  49.935 -54.227  1.00  0.00     0.011 C 
ENDBRANCH  15  17
ENDBRANCH   8  11
ENDBRANCH   1   7
BRANCH   4  19
HETATM   19  C   UNL     1     -44.602  58.879 -59.505  1.00  0.00     0.251 C 
HETATM   20  N   UNL     1     -45.940  59.031 -59.228  1.00  0.00    -0.353 N 
HETATM   21  H   UNL     1     -46.368  58.530 -58.462  1.00  0.00     0.163 HD
HETATM   22  O   UNL     1     -44.034  59.409 -60.451  1.00  0.00    -0.268 OA
BRANCH  20  23
HETATM   23  C   UNL     1     -46.807  59.782 -60.111  1.00  0.00     0.161 C 
BRANCH  23  24
HETATM   24  C   UNL     1     -47.604  58.875 -61.016  1.00  0.00    -0.041 A 
HETATM   25  C   UNL     1     -47.368  57.493 -61.019  1.00  0.00     0.009 A 
HETATM   26  C   UNL     1     -48.128  56.644 -61.827  1.00  0.00     0.001 A 
HETATM   27  C   UNL     1     -49.134  57.166 -62.638  1.00  0.00     0.000 A 
HETATM   28  C   UNL     1     -49.390  58.535 -62.633  1.00  0.00     0.001 A 
HETATM   29  C   UNL     1     -48.637  59.383 -61.820  1.00  0.00     0.009 A 
ENDBRANCH  23  24
ENDBRANCH  20  23
ENDBRANCH   4  19
TORSDOF 6
ENDMDL
MODEL 10
REMARK VINA RESULT:      -6.8      4.344      5.522
REMARK  6 active torsions:
REMARK  status: ('A' for Active; 'I' for Inactive)
REMARK    1  A    between atoms: C_2  and  C_3 
REMARK    2  A    between atoms: C_7  and  C_8 
REMARK       I    between atoms: C_8  and  N_9 
REMARK    3  A    between atoms: N_9  and  C_10 
REMARK    4  A    between atoms: C_13  and  C_14 
REMARK       I    between atoms: C_14  and  N_15 
REMARK    5  A    between atoms: N_15  and  C_16 
REMARK    6  A    between atoms: C_16  and  C_17 
ROOT
HETATM    1  C   UNL     1     -46.233  60.485 -52.167  1.00  0.00     0.035 A 
HETATM    2  C   UNL     1     -45.503  60.026 -53.274  1.00  0.00     0.030 A 
HETATM    3  C   UNL     1     -44.202  59.533 -53.120  1.00  0.00     0.019 A 
HETATM    4  C   UNL     1     -43.613  59.514 -51.853  1.00  0.00     0.032 A 
HETATM    5  C   UNL     1     -44.314  60.017 -50.756  1.00  0.00     0.019 A 
HETATM    6  C   UNL     1     -45.620  60.491 -50.911  1.00  0.00     0.030 A 
ENDROOT
BRANCH   1   7
HETATM    7  N   UNL     1     -47.553  60.929 -52.393  1.00  0.00    -0.322 N 
HETATM    8  C   UNL     1     -47.965  62.230 -52.613  1.00  0.00     0.274 C 
HETATM    9  O   UNL     1     -47.241  63.218 -52.579  1.00  0.00    -0.266 OA
HETATM   10  H   UNL     1     -48.282  60.239 -52.282  1.00  0.00     0.169 HD
BRANCH   8  11
HETATM   11  C   UNL     1     -49.383  62.379 -52.842  1.00  0.00     0.120 A 
HETATM   12  N   UNL     1     -50.019  61.651 -53.812  1.00  0.00    -0.273 N 
HETATM   13  N   UNL     1     -51.331  61.906 -53.918  1.00  0.00    -0.179 NA
HETATM   14  H   UNL     1     -49.595  60.971 -54.438  1.00  0.00     0.189 HD
HETATM   15  C   UNL     1     -51.568  62.794 -52.947  1.00  0.00     0.056 A 
HETATM   16  C   UNL     1     -50.380  63.133 -52.253  1.00  0.00     0.065 A 
BRANCH  15  17
HETATM   17  C   UNL     1     -52.950  63.298 -52.709  1.00  0.00     0.056 C 
HETATM   18  C   UNL     1     -53.347  63.234 -51.240  1.00  0.00     0.011 C 
ENDBRANCH  15  17
ENDBRANCH   8  11
ENDBRANCH   1   7
BRANCH   4  19
HETATM   19  C   UNL     1     -42.254  58.961 -51.618  1.00  0.00     0.251 C 
HETATM   20  N   UNL     1     -42.198  57.812 -50.864  1.00  0.00    -0.353 N 
HETATM   21  H   UNL     1     -43.042  57.390 -50.504  1.00  0.00     0.163 HD
HETATM   22  O   UNL     1     -41.269  59.557 -52.033  1.00  0.00    -0.268 OA
BRANCH  20  23
HETATM   23  C   UNL     1     -40.932  57.263 -50.430  1.00  0.00     0.161 C 
BRANCH  23  24
HETATM   24  C   UNL     1     -40.895  55.761 -50.576  1.00  0.00    -0.041 A 
HETATM   25  C   UNL     1     -41.218  55.161 -51.801  1.00  0.00     0.009 A 
HETATM   26  C   UNL     1     -41.149  53.774 -51.953  1.00  0.00     0.001 A 
HETATM   27  C   UNL     1     -40.753  52.973 -50.884  1.00  0.00     0.000 A 
HETATM   28  C   UNL     1     -40.414  53.557 -49.666  1.00  0.00     0.001 A 
HETATM   29  C   UNL     1     -40.475  54.943 -49.515  1.00  0.00     0.009 A 
ENDBRANCH  23  24
ENDBRANCH  20  23
ENDBRANCH   4  19
TORSDOF 6
ENDMDL
