MODEL 1
REMARK VINA RESULT:      -8.1      0.000      0.000
REMARK  4 active torsions:
REMARK  status: ('A' for Active; 'I' for Inactive)
REMARK    1  A    between atoms: C_6  and  C_7 
REMARK    2  A    between atoms: C_7  and  N_8 
REMARK    3  A    between atoms: C_12  and  C_13 
REMARK    4  A    between atoms: C_15  and  C_16 
ROOT
HETATM    1  N   UNL     1     -41.818  56.155 -53.780  1.00  0.00    -0.067 N 
HETATM    2  H   UNL     1     -41.567  56.031 -52.793  1.00  0.00     0.280 HD
HETATM    3  C   UNL     1     -41.552  57.602 -54.135  1.00  0.00     0.236 C 
HETATM    4  C   UNL     1     -42.438  58.516 -53.296  1.00  0.00     0.040 C 
HETATM    5  C   UNL     1     -43.929  58.180 -53.405  1.00  0.00     0.058 C 
HETATM    6  C   UNL     1     -44.158  56.692 -53.124  1.00  0.00     0.040 C 
HETATM    7  C   UNL     1     -43.268  55.779 -53.958  1.00  0.00     0.236 C 
ENDROOT
BRANCH   1   8
HETATM    8  C   UNL     1     -40.927  55.204 -54.562  1.00  0.00     0.273 C 
BRANCH   8   9
HETATM    9  C   UNL     1     -40.596  53.945 -53.808  1.00  0.00    -0.032 A 
HETATM   10  C   UNL     1     -40.341  52.754 -54.505  1.00  0.00     0.017 A 
HETATM   11  C   UNL     1     -39.979  51.629 -53.780  1.00  0.00    -0.035 A 
HETATM   12  C   UNL     1     -39.850  51.647 -52.389  1.00  0.00     0.016 A 
HETATM   13  C   UNL     1     -39.622  50.272 -54.292  1.00  0.00     0.055 C 
HETATM   14  N   UNL     1     -39.405  50.417 -51.883  1.00  0.00    -0.287 NA
HETATM   15  C   UNL     1     -40.104  52.816 -51.693  1.00  0.00     0.025 A 
HETATM   16  C   UNL     1     -39.806  50.026 -50.542  1.00  0.00     0.116 C 
HETATM   17  C   UNL     1     -39.653  49.465 -52.981  1.00  0.00     0.100 C 
HETATM   18  C   UNL     1     -40.487  53.962 -52.400  1.00  0.00     0.011 A 
ENDBRANCH   8   9
ENDBRANCH   1   8
BRANCH   5  19
HETATM   19  C   UNL     1     -44.463  58.565 -54.751  1.00  0.00     0.108 A 
HETATM   20  N   UNL     1     -45.428  57.948 -55.399  1.00  0.00    -0.229 NA
HETATM   21  C   UNL     1     -45.584  58.618 -56.609  1.00  0.00     0.157 A 
HETATM   22  C   UNL     1     -44.681  59.665 -56.658  1.00  0.00     0.126 A 
HETATM   23  N   UNL     1     -43.983  59.623 -55.483  1.00  0.00    -0.352 N 
HETATM   24  H   UNL     1     -43.240  60.256 -55.210  1.00  0.00     0.166 HD
BRANCH  21  25
HETATM   25  C   UNL     1     -46.592  58.202 -57.647  1.00  0.00     0.436 C 
HETATM   26  F   UNL     1     -47.110  59.268 -58.314  1.00  0.00    -0.165 F 
HETATM   27  F   UNL     1     -46.044  57.381 -58.578  1.00  0.00    -0.165 F 
HETATM   28  F   UNL     1     -47.639  57.536 -57.093  1.00  0.00    -0.165 F 
ENDBRANCH  21  25
ENDBRANCH   5  19
TORSDOF 4
ENDMDL
MODEL 2
REMARK VINA RESULT:      -8.1      2.207      3.347
REMARK  4 active torsions:
REMARK  status: ('A' for Active; 'I' for Inactive)
REMARK    1  A    between atoms: C_6  and  C_7 
REMARK    2  A    between atoms: C_7  and  N_8 
REMARK    3  A    between atoms: C_12  and  C_13 
REMARK    4  A    between atoms: C_15  and  C_16 
ROOT
HETATM    1  N   UNL     1     -42.106  56.220 -50.057  1.00  0.00    -0.067 N 
HETATM    2  H   UNL     1     -42.399  56.787 -49.254  1.00  0.00     0.280 HD
HETATM    3  C   UNL     1     -41.637  57.173 -51.135  1.00  0.00     0.236 C 
HETATM    4  C   UNL     1     -42.788  58.071 -51.574  1.00  0.00     0.040 C 
HETATM    5  C   UNL     1     -44.028  57.290 -52.021  1.00  0.00     0.058 C 
HETATM    6  C   UNL     1     -44.430  56.274 -50.948  1.00  0.00     0.040 C 
HETATM    7  C   UNL     1     -43.277  55.381 -50.505  1.00  0.00     0.236 C 
ENDROOT
BRANCH   1   8
HETATM    8  C   UNL     1     -40.982  55.329 -49.556  1.00  0.00     0.273 C 
BRANCH   8   9
HETATM    9  C   UNL     1     -40.684  54.175 -50.475  1.00  0.00    -0.032 A 
HETATM   10  C   UNL     1     -40.730  54.354 -51.865  1.00  0.00     0.017 A 
HETATM   11  C   UNL     1     -40.390  53.286 -52.681  1.00  0.00    -0.035 A 
HETATM   12  C   UNL     1     -39.994  52.049 -52.164  1.00  0.00     0.016 A 
HETATM   13  C   UNL     1     -40.323  53.241 -54.172  1.00  0.00     0.055 C 
HETATM   14  N   UNL     1     -39.630  51.146 -53.173  1.00  0.00    -0.287 NA
HETATM   15  C   UNL     1     -39.951  51.862 -50.794  1.00  0.00     0.025 A 
HETATM   16  C   UNL     1     -39.815  49.724 -52.939  1.00  0.00     0.116 C 
HETATM   17  C   UNL     1     -40.210  51.723 -54.400  1.00  0.00     0.100 C 
HETATM   18  C   UNL     1     -40.305  52.921 -49.949  1.00  0.00     0.011 A 
ENDBRANCH   8   9
ENDBRANCH   1   8
BRANCH   5  19
HETATM   19  C   UNL     1     -43.786  56.618 -53.339  1.00  0.00     0.108 A 
HETATM   20  N   UNL     1     -43.465  57.224 -54.461  1.00  0.00    -0.229 NA
HETATM   21  C   UNL     1     -43.362  56.231 -55.432  1.00  0.00     0.157 A 
HETATM   22  C   UNL     1     -43.626  55.006 -54.846  1.00  0.00     0.126 A 
HETATM   23  N   UNL     1     -43.889  55.262 -53.528  1.00  0.00    -0.352 N 
HETATM   24  H   UNL     1     -44.126  54.572 -52.825  1.00  0.00     0.166 HD
BRANCH  21  25
HETATM   25  C   UNL     1     -43.021  56.527 -56.868  1.00  0.00     0.436 C 
HETATM   26  F   UNL     1     -42.696  55.403 -57.559  1.00  0.00    -0.165 F 
HETATM   27  F   UNL     1     -44.059  57.108 -57.522  1.00  0.00    -0.165 F 
HETATM   28  F   UNL     1     -41.962  57.372 -56.970  1.00  0.00    -0.165 F 
ENDBRANCH  21  25
ENDBRANCH   5  19
TORSDOF 4
ENDMDL
MODEL 3
REMARK VINA RESULT:      -8.0      4.794      8.576
REMARK  4 active torsions:
REMARK  status: ('A' for Active; 'I' for Inactive)
REMARK    1  A    between atoms: C_6  and  C_7 
REMARK    2  A    between atoms: C_7  and  N_8 
REMARK    3  A    between atoms: C_12  and  C_13 
REMARK    4  A    between atoms: C_15  and  C_16 
ROOT
HETATM    1  N   UNL     1     -41.754  55.339 -55.801  1.00  0.00    -0.067 N 
HETATM    2  H   UNL     1     -41.514  54.867 -56.679  1.00  0.00     0.280 HD
HETATM    3  C   UNL     1     -40.509  55.348 -54.940  1.00  0.00     0.236 C 
HETATM    4  C   UNL     1     -40.088  53.918 -54.618  1.00  0.00     0.040 C 
HETATM    5  C   UNL     1     -41.204  53.089 -53.976  1.00  0.00     0.058 C 
HETATM    6  C   UNL     1     -42.477  53.167 -54.824  1.00  0.00     0.040 C 
HETATM    7  C   UNL     1     -42.894  54.596 -55.151  1.00  0.00     0.236 C 
ENDROOT
BRANCH   1   8
HETATM    8  C   UNL     1     -42.191  56.743 -56.183  1.00  0.00     0.273 C 
BRANCH   8   9
HETATM    9  C   UNL     1     -43.247  56.765 -57.255  1.00  0.00    -0.032 A 
HETATM   10  C   UNL     1     -43.248  55.787 -58.261  1.00  0.00     0.017 A 
HETATM   11  C   UNL     1     -44.271  55.801 -59.197  1.00  0.00    -0.035 A 
HETATM   12  C   UNL     1     -45.300  56.747 -59.163  1.00  0.00     0.016 A 
HETATM   13  C   UNL     1     -44.510  54.853 -60.325  1.00  0.00     0.055 C 
HETATM   14  N   UNL     1     -46.258  56.523 -60.162  1.00  0.00    -0.287 NA
HETATM   15  C   UNL     1     -45.304  57.719 -58.178  1.00  0.00     0.025 A 
HETATM   16  C   UNL     1     -46.988  57.659 -60.698  1.00  0.00     0.116 C 
HETATM   17  C   UNL     1     -45.579  55.627 -61.117  1.00  0.00     0.100 C 
HETATM   18  C   UNL     1     -44.273  57.735 -57.230  1.00  0.00     0.011 A 
ENDBRANCH   8   9
ENDBRANCH   1   8
BRANCH   5  19
HETATM   19  C   UNL     1     -41.461  53.541 -52.571  1.00  0.00     0.108 A 
HETATM   20  N   UNL     1     -40.569  53.592 -51.606  1.00  0.00    -0.229 NA
HETATM   21  C   UNL     1     -41.239  54.042 -50.471  1.00  0.00     0.157 A 
HETATM   22  C   UNL     1     -42.564  54.266 -50.795  1.00  0.00     0.126 A 
HETATM   23  N   UNL     1     -42.692  53.950 -52.120  1.00  0.00    -0.352 N 
HETATM   24  H   UNL     1     -43.546  54.001 -52.663  1.00  0.00     0.166 HD
BRANCH  21  25
HETATM   25  C   UNL     1     -40.557  54.222 -49.141  1.00  0.00     0.436 C 
HETATM   26  F   UNL     1     -39.231  54.491 -49.277  1.00  0.00    -0.165 F 
HETATM   27  F   UNL     1     -41.098  55.247 -48.434  1.00  0.00    -0.165 F 
HETATM   28  F   UNL     1     -40.657  53.109 -48.369  1.00  0.00    -0.165 F 
ENDBRANCH  21  25
ENDBRANCH   5  19
TORSDOF 4
ENDMDL
MODEL 4
REMARK VINA RESULT:      -8.0      3.214      3.637
REMARK  4 active torsions:
REMARK  status: ('A' for Active; 'I' for Inactive)
REMARK    1  A    between atoms: C_6  and  C_7 
REMARK    2  A    between atoms: C_7  and  N_8 
REMARK    3  A    between atoms: C_12  and  C_13 
REMARK    4  A    between atoms: C_15  and  C_16 
ROOT
HETATM    1  N   UNL     1     -41.048  56.601 -52.795  1.00  0.00    -0.067 N 
HETATM    2  H   UNL     1     -40.101  56.349 -52.492  1.00  0.00     0.280 HD
HETATM    3  C   UNL     1     -40.941  57.880 -53.597  1.00  0.00     0.236 C 
HETATM    4  C   UNL     1     -40.404  59.003 -52.717  1.00  0.00     0.040 C 
HETATM    5  C   UNL     1     -41.222  59.213 -51.438  1.00  0.00     0.058 C 
HETATM    6  C   UNL     1     -41.387  57.886 -50.691  1.00  0.00     0.040 C 
HETATM    7  C   UNL     1     -41.917  56.762 -51.573  1.00  0.00     0.236 C 
ENDROOT
BRANCH   1   8
HETATM    8  C   UNL     1     -41.541  55.438 -53.642  1.00  0.00     0.273 C 
BRANCH   8   9
HETATM    9  C   UNL     1     -41.008  54.106 -53.188  1.00  0.00    -0.032 A 
HETATM   10  C   UNL     1     -40.843  53.064 -54.113  1.00  0.00     0.017 A 
HETATM   11  C   UNL     1     -40.292  51.870 -53.672  1.00  0.00    -0.035 A 
HETATM   12  C   UNL     1     -39.890  51.678 -52.346  1.00  0.00     0.016 A 
HETATM   13  C   UNL     1     -39.982  50.643 -54.464  1.00  0.00     0.055 C 
HETATM   14  N   UNL     1     -39.298  50.422 -52.150  1.00  0.00    -0.287 NA
HETATM   15  C   UNL     1     -40.055  52.699 -51.427  1.00  0.00     0.025 A 
HETATM   16  C   UNL     1     -39.407  49.795 -50.844  1.00  0.00     0.116 C 
HETATM   17  C   UNL     1     -39.715  49.639 -53.328  1.00  0.00     0.100 C 
HETATM   18  C   UNL     1     -40.623  53.909 -51.844  1.00  0.00     0.011 A 
ENDBRANCH   8   9
ENDBRANCH   1   8
BRANCH   5  19
HETATM   19  C   UNL     1     -42.553  59.825 -51.754  1.00  0.00     0.108 A 
HETATM   20  N   UNL     1     -43.682  59.570 -51.129  1.00  0.00    -0.229 NA
HETATM   21  C   UNL     1     -44.663  60.331 -51.758  1.00  0.00     0.157 A 
HETATM   22  C   UNL     1     -44.078  61.058 -52.778  1.00  0.00     0.126 A 
HETATM   23  N   UNL     1     -42.749  60.733 -52.765  1.00  0.00    -0.352 N 
HETATM   24  H   UNL     1     -42.043  61.094 -53.395  1.00  0.00     0.166 HD
BRANCH  21  25
HETATM   25  C   UNL     1     -46.109  60.304 -51.338  1.00  0.00     0.436 C 
HETATM   26  F   UNL     1     -46.942  60.671 -52.348  1.00  0.00    -0.165 F 
HETATM   27  F   UNL     1     -46.494  59.065 -50.939  1.00  0.00    -0.165 F 
HETATM   28  F   UNL     1     -46.348  61.149 -50.302  1.00  0.00    -0.165 F 
ENDBRANCH  21  25
ENDBRANCH   5  19
TORSDOF 4
ENDMDL
MODEL 5
REMARK VINA RESULT:      -7.8      1.578      1.972
REMARK  4 active torsions:
REMARK  status: ('A' for Active; 'I' for Inactive)
REMARK    1  A    between atoms: C_6  and  C_7 
REMARK    2  A    between atoms: C_7  and  N_8 
REMARK    3  A    between atoms: C_12  and  C_13 
REMARK    4  A    between atoms: C_15  and  C_16 
ROOT
HETATM    1  N   UNL     1     -41.954  55.915 -54.337  1.00  0.00    -0.067 N 
HETATM    2  H   UNL     1     -41.954  55.770 -53.321  1.00  0.00     0.280 HD
HETATM    3  C   UNL     1     -41.684  57.384 -54.583  1.00  0.00     0.236 C 
HETATM    4  C   UNL     1     -42.801  58.227 -53.976  1.00  0.00     0.040 C 
HETATM    5  C   UNL     1     -44.196  57.826 -54.466  1.00  0.00     0.058 C 
HETATM    6  C   UNL     1     -44.409  56.321 -54.283  1.00  0.00     0.040 C 
HETATM    7  C   UNL     1     -43.290  55.478 -54.884  1.00  0.00     0.236 C 
ENDROOT
BRANCH   1   8
HETATM    8  C   UNL     1     -40.846  55.033 -54.888  1.00  0.00     0.273 C 
BRANCH   8   9
HETATM    9  C   UNL     1     -40.551  53.839 -54.021  1.00  0.00    -0.032 A 
HETATM   10  C   UNL     1     -40.245  52.602 -54.609  1.00  0.00     0.017 A 
HETATM   11  C   UNL     1     -39.919  51.539 -53.781  1.00  0.00    -0.035 A 
HETATM   12  C   UNL     1     -39.875  51.664 -52.389  1.00  0.00     0.016 A 
HETATM   13  C   UNL     1     -39.521  50.152 -54.164  1.00  0.00     0.055 C 
HETATM   14  N   UNL     1     -39.452  50.481 -51.765  1.00  0.00    -0.287 NA
HETATM   15  C   UNL     1     -40.180  52.878 -51.801  1.00  0.00     0.025 A 
HETATM   16  C   UNL     1     -39.931  50.188 -50.425  1.00  0.00     0.116 C 
HETATM   17  C   UNL     1     -39.626  49.446 -52.801  1.00  0.00     0.100 C 
HETATM   18  C   UNL     1     -40.528  53.963 -52.615  1.00  0.00     0.011 A 
ENDBRANCH   8   9
ENDBRANCH   1   8
BRANCH   5  19
HETATM   19  C   UNL     1     -44.394  58.231 -55.895  1.00  0.00     0.108 A 
HETATM   20  N   UNL     1     -43.782  59.225 -56.503  1.00  0.00    -0.229 NA
HETATM   21  C   UNL     1     -44.280  59.261 -57.802  1.00  0.00     0.157 A 
HETATM   22  C   UNL     1     -45.208  58.246 -57.952  1.00  0.00     0.126 A 
HETATM   23  N   UNL     1     -45.270  57.604 -56.746  1.00  0.00    -0.352 N 
HETATM   24  H   UNL     1     -45.863  56.813 -56.523  1.00  0.00     0.166 HD
BRANCH  21  25
HETATM   25  C   UNL     1     -43.833  60.278 -58.818  1.00  0.00     0.436 C 
HETATM   26  F   UNL     1     -44.095  61.550 -58.418  1.00  0.00    -0.165 F 
HETATM   27  F   UNL     1     -42.497  60.203 -59.050  1.00  0.00    -0.165 F 
HETATM   28  F   UNL     1     -44.455  60.104 -60.013  1.00  0.00    -0.165 F 
ENDBRANCH  21  25
ENDBRANCH   5  19
TORSDOF 4
ENDMDL
MODEL 6
REMARK VINA RESULT:      -7.8      3.580      4.231
REMARK  4 active torsions:
REMARK  status: ('A' for Active; 'I' for Inactive)
REMARK    1  A    between atoms: C_6  and  C_7 
REMARK    2  A    between atoms: C_7  and  N_8 
REMARK    3  A    between atoms: C_12  and  C_13 
REMARK    4  A    between atoms: C_15  and  C_16 
ROOT
HETATM    1  N   UNL     1     -42.289  55.802 -54.183  1.00  0.00    -0.067 N 
HETATM    2  H   UNL     1     -42.869  55.006 -54.472  1.00  0.00     0.280 HD
HETATM    3  C   UNL     1     -42.616  56.095 -52.734  1.00  0.00     0.236 C 
HETATM    4  C   UNL     1     -44.082  56.493 -52.601  1.00  0.00     0.040 C 
HETATM    5  C   UNL     1     -44.476  57.662 -53.509  1.00  0.00     0.058 C 
HETATM    6  C   UNL     1     -44.057  57.376 -54.954  1.00  0.00     0.040 C 
HETATM    7  C   UNL     1     -42.594  56.971 -55.086  1.00  0.00     0.236 C 
ENDROOT
BRANCH   1   8
HETATM    8  C   UNL     1     -40.847  55.359 -54.362  1.00  0.00     0.273 C 
BRANCH   8   9
HETATM    9  C   UNL     1     -40.536  54.055 -53.679  1.00  0.00    -0.032 A 
HETATM   10  C   UNL     1     -40.332  52.894 -54.440  1.00  0.00     0.017 A 
HETATM   11  C   UNL     1     -39.987  51.724 -53.780  1.00  0.00    -0.035 A 
HETATM   12  C   UNL     1     -39.828  51.668 -52.393  1.00  0.00     0.016 A 
HETATM   13  C   UNL     1     -39.681  50.385 -54.366  1.00  0.00     0.055 C 
HETATM   14  N   UNL     1     -39.409  50.402 -51.958  1.00  0.00    -0.287 NA
HETATM   15  C   UNL     1     -40.034  52.807 -51.634  1.00  0.00     0.025 A 
HETATM   16  C   UNL     1     -39.794  49.956 -50.630  1.00  0.00     0.116 C 
HETATM   17  C   UNL     1     -39.709  49.514 -53.097  1.00  0.00     0.100 C 
HETATM   18  C   UNL     1     -40.397  53.998 -52.275  1.00  0.00     0.011 A 
ENDBRANCH   8   9
ENDBRANCH   1   8
BRANCH   5  19
HETATM   19  C   UNL     1     -43.876  58.944 -53.016  1.00  0.00     0.108 A 
HETATM   20  N   UNL     1     -43.531  59.201 -51.773  1.00  0.00    -0.229 NA
HETATM   21  C   UNL     1     -43.044  60.505 -51.759  1.00  0.00     0.157 A 
HETATM   22  C   UNL     1     -43.103  61.017 -53.043  1.00  0.00     0.126 A 
HETATM   23  N   UNL     1     -43.626  60.025 -53.825  1.00  0.00    -0.352 N 
HETATM   24  H   UNL     1     -43.803  60.084 -54.821  1.00  0.00     0.166 HD
BRANCH  21  25
HETATM   25  C   UNL     1     -42.557  61.180 -50.504  1.00  0.00     0.436 C 
HETATM   26  F   UNL     1     -41.290  60.806 -50.181  1.00  0.00    -0.165 F 
HETATM   27  F   UNL     1     -42.551  62.531 -50.630  1.00  0.00    -0.165 F 
HETATM   28  F   UNL     1     -43.341  60.882 -49.436  1.00  0.00    -0.165 F 
ENDBRANCH  21  25
ENDBRANCH   5  19
TORSDOF 4
ENDMDL
MODEL 7
REMARK VINA RESULT:      -7.6      3.477      7.379
REMARK  4 active torsions:
REMARK  status: ('A' for Active; 'I' for Inactive)
REMARK    1  A    between atoms: C_6  and  C_7 
REMARK    2  A    between atoms: C_7  and  N_8 
REMARK    3  A    between atoms: C_12  and  C_13 
REMARK    4  A    between atoms: C_15  and  C_16 
ROOT
HETATM    1  N   UNL     1     -42.546  57.090 -50.586  1.00  0.00    -0.067 N 
HETATM    2  H   UNL     1     -43.078  57.364 -49.752  1.00  0.00     0.280 HD
HETATM    3  C   UNL     1     -43.322  55.985 -51.271  1.00  0.00     0.236 C 
HETATM    4  C   UNL     1     -43.431  54.776 -50.349  1.00  0.00     0.040 C 
HETATM    5  C   UNL     1     -42.074  54.274 -49.847  1.00  0.00     0.058 C 
HETATM    6  C   UNL     1     -41.276  55.430 -49.235  1.00  0.00     0.040 C 
HETATM    7  C   UNL     1     -41.173  56.641 -50.153  1.00  0.00     0.236 C 
ENDROOT
BRANCH   1   8
HETATM    8  C   UNL     1     -42.446  58.336 -51.450  1.00  0.00     0.273 C 
BRANCH   8   9
HETATM    9  C   UNL     1     -42.884  58.109 -52.871  1.00  0.00    -0.032 A 
HETATM   10  C   UNL     1     -42.156  57.243 -53.702  1.00  0.00     0.017 A 
HETATM   11  C   UNL     1     -42.624  57.011 -54.986  1.00  0.00    -0.035 A 
HETATM   12  C   UNL     1     -43.795  57.601 -55.472  1.00  0.00     0.016 A 
HETATM   13  C   UNL     1     -42.054  56.110 -56.032  1.00  0.00     0.055 C 
HETATM   14  N   UNL     1     -44.108  57.165 -56.768  1.00  0.00    -0.287 NA
HETATM   15  C   UNL     1     -44.515  58.460 -54.662  1.00  0.00     0.025 A 
HETATM   16  C   UNL     1     -44.833  58.062 -57.651  1.00  0.00     0.116 C 
HETATM   17  C   UNL     1     -42.849  56.578 -57.264  1.00  0.00     0.100 C 
HETATM   18  C   UNL     1     -44.056  58.723 -53.366  1.00  0.00     0.011 A 
ENDBRANCH   8   9
ENDBRANCH   1   8
BRANCH   5  19
HETATM   19  C   UNL     1     -41.308  53.614 -50.953  1.00  0.00     0.108 A 
HETATM   20  N   UNL     1     -41.590  53.694 -52.235  1.00  0.00    -0.229 NA
HETATM   21  C   UNL     1     -40.645  52.915 -52.898  1.00  0.00     0.157 A 
HETATM   22  C   UNL     1     -39.781  52.372 -51.964  1.00  0.00     0.126 A 
HETATM   23  N   UNL     1     -40.207  52.821 -50.744  1.00  0.00    -0.352 N 
HETATM   24  H   UNL     1     -39.787  52.597 -49.849  1.00  0.00     0.166 HD
BRANCH  21  25
HETATM   25  C   UNL     1     -40.639  52.739 -54.393  1.00  0.00     0.436 C 
HETATM   26  F   UNL     1     -40.195  51.507 -54.761  1.00  0.00    -0.165 F 
HETATM   27  F   UNL     1     -41.880  52.886 -54.922  1.00  0.00    -0.165 F 
HETATM   28  F   UNL     1     -39.834  53.647 -55.004  1.00  0.00    -0.165 F 
ENDBRANCH  21  25
ENDBRANCH   5  19
TORSDOF 4
ENDMDL
MODEL 8
REMARK VINA RESULT:      -7.6      4.460      8.645
REMARK  4 active torsions:
REMARK  status: ('A' for Active; 'I' for Inactive)
REMARK    1  A    between atoms: C_6  and  C_7 
REMARK    2  A    between atoms: C_7  and  N_8 
REMARK    3  A    between atoms: C_12  and  C_13 
REMARK    4  A    between atoms: C_15  and  C_16 
ROOT
HETATM    1  N   UNL     1     -42.238  55.811 -55.239  1.00  0.00    -0.067 N 
HETATM    2  H   UNL     1     -42.919  56.546 -55.024  1.00  0.00     0.280 HD
HETATM    3  C   UNL     1     -42.911  54.481 -54.978  1.00  0.00     0.236 C 
HETATM    4  C   UNL     1     -43.289  54.369 -53.505  1.00  0.00     0.040 C 
HETATM    5  C   UNL     1     -42.106  54.590 -52.558  1.00  0.00     0.058 C 
HETATM    6  C   UNL     1     -41.392  55.901 -52.900  1.00  0.00     0.040 C 
HETATM    7  C   UNL     1     -41.020  56.016 -54.374  1.00  0.00     0.236 C 
ENDROOT
BRANCH   1   8
HETATM    8  C   UNL     1     -41.878  55.988 -56.705  1.00  0.00     0.273 C 
BRANCH   8   9
HETATM    9  C   UNL     1     -43.065  56.303 -57.574  1.00  0.00    -0.032 A 
HETATM   10  C   UNL     1     -43.434  55.425 -58.604  1.00  0.00     0.017 A 
HETATM   11  C   UNL     1     -44.569  55.716 -59.346  1.00  0.00    -0.035 A 
HETATM   12  C   UNL     1     -45.357  56.843 -59.093  1.00  0.00     0.016 A 
HETATM   13  C   UNL     1     -45.182  54.924 -60.453  1.00  0.00     0.055 C 
HETATM   14  N   UNL     1     -46.490  56.892 -59.918  1.00  0.00    -0.287 NA
HETATM   15  C   UNL     1     -44.997  57.717 -58.083  1.00  0.00     0.025 A 
HETATM   16  C   UNL     1     -47.042  58.189 -60.271  1.00  0.00     0.116 C 
HETATM   17  C   UNL     1     -46.179  55.954 -61.013  1.00  0.00     0.100 C 
HETATM   18  C   UNL     1     -43.846  57.454 -57.330  1.00  0.00     0.011 A 
ENDBRANCH   8   9
ENDBRANCH   1   8
BRANCH   5  19
HETATM   19  C   UNL     1     -41.159  53.430 -52.610  1.00  0.00     0.108 A 
HETATM   20  N   UNL     1     -41.239  52.411 -53.439  1.00  0.00    -0.229 NA
HETATM   21  C   UNL     1     -40.182  51.561 -53.124  1.00  0.00     0.157 A 
HETATM   22  C   UNL     1     -39.462  52.113 -52.080  1.00  0.00     0.126 A 
HETATM   23  N   UNL     1     -40.085  53.290 -51.767  1.00  0.00    -0.352 N 
HETATM   24  H   UNL     1     -39.805  53.934 -51.037  1.00  0.00     0.166 HD
BRANCH  21  25
HETATM   25  C   UNL     1     -39.937  50.264 -53.847  1.00  0.00     0.436 C 
HETATM   26  F   UNL     1     -39.678  49.241 -52.990  1.00  0.00    -0.165 F 
HETATM   27  F   UNL     1     -41.010  49.893 -54.592  1.00  0.00    -0.165 F 
HETATM   28  F   UNL     1     -38.876  50.350 -54.690  1.00  0.00    -0.165 F 
ENDBRANCH  21  25
ENDBRANCH   5  19
TORSDOF 4
ENDMDL
MODEL 9
REMARK VINA RESULT:      -7.6      3.896      4.928
REMARK  4 active torsions:
REMARK  status: ('A' for Active; 'I' for Inactive)
REMARK    1  A    between atoms: C_6  and  C_7 
REMARK    2  A    between atoms: C_7  and  N_8 
REMARK    3  A    between atoms: C_12  and  C_13 
REMARK    4  A    between atoms: C_15  and  C_16 
ROOT
HETATM    1  N   UNL     1     -43.698  56.161 -55.497  1.00  0.00    -0.067 N 
HETATM    2  H   UNL     1     -43.975  56.287 -56.477  1.00  0.00     0.280 HD
HETATM    3  C   UNL     1     -44.706  56.901 -54.644  1.00  0.00     0.236 C 
HETATM    4  C   UNL     1     -44.667  58.390 -54.967  1.00  0.00     0.040 C 
HETATM    5  C   UNL     1     -43.269  59.002 -54.835  1.00  0.00     0.058 C 
HETATM    6  C   UNL     1     -42.254  58.183 -55.639  1.00  0.00     0.040 C 
HETATM    7  C   UNL     1     -42.298  56.693 -55.322  1.00  0.00     0.236 C 
ENDROOT
BRANCH   1   8
HETATM    8  C   UNL     1     -43.727  54.663 -55.242  1.00  0.00     0.273 C 
BRANCH   8   9
HETATM    9  C   UNL     1     -42.822  54.234 -54.119  1.00  0.00    -0.032 A 
HETATM   10  C   UNL     1     -41.791  53.314 -54.360  1.00  0.00     0.017 A 
HETATM   11  C   UNL     1     -40.938  52.988 -53.316  1.00  0.00    -0.035 A 
HETATM   12  C   UNL     1     -41.067  53.552 -52.043  1.00  0.00     0.016 A 
HETATM   13  C   UNL     1     -39.755  52.077 -53.334  1.00  0.00     0.055 C 
HETATM   14  N   UNL     1     -40.053  53.130 -51.172  1.00  0.00    -0.287 NA
HETATM   15  C   UNL     1     -42.085  54.456 -51.796  1.00  0.00     0.025 A 
HETATM   16  C   UNL     1     -40.338  53.058 -49.749  1.00  0.00     0.116 C 
HETATM   17  C   UNL     1     -39.495  51.930 -51.824  1.00  0.00     0.100 C 
HETATM   18  C   UNL     1     -42.969  54.790 -52.829  1.00  0.00     0.011 A 
ENDBRANCH   8   9
ENDBRANCH   1   8
BRANCH   5  19
HETATM   19  C   UNL     1     -42.865  59.099 -53.395  1.00  0.00     0.108 A 
HETATM   20  N   UNL     1     -41.670  58.832 -52.914  1.00  0.00    -0.229 NA
HETATM   21  C   UNL     1     -41.745  59.028 -51.537  1.00  0.00     0.157 A 
HETATM   22  C   UNL     1     -43.028  59.429 -51.213  1.00  0.00     0.126 A 
HETATM   23  N   UNL     1     -43.723  59.472 -52.390  1.00  0.00    -0.352 N 
HETATM   24  H   UNL     1     -44.699  59.726 -52.496  1.00  0.00     0.166 HD
BRANCH  21  25
HETATM   25  C   UNL     1     -40.573  58.808 -50.618  1.00  0.00     0.436 C 
HETATM   26  F   UNL     1     -39.443  59.409 -51.078  1.00  0.00    -0.165 F 
HETATM   27  F   UNL     1     -40.807  59.305 -49.377  1.00  0.00    -0.165 F 
HETATM   28  F   UNL     1     -40.287  57.489 -50.473  1.00  0.00    -0.165 F 
ENDBRANCH  21  25
ENDBRANCH   5  19
TORSDOF 4
ENDMDL
MODEL 10
REMARK VINA RESULT:      -7.5      4.381      8.920
REMARK  4 active torsions:
REMARK  status: ('A' for Active; 'I' for Inactive)
REMARK    1  A    between atoms: C_6  and  C_7 
REMARK    2  A    between atoms: C_7  and  N_8 
REMARK    3  A    between atoms: C_12  and  C_13 
REMARK    4  A    between atoms: C_15  and  C_16 
ROOT
HETATM    1  N   UNL     1     -42.528  55.279 -55.199  1.00  0.00    -0.067 N 
HETATM    2  H   UNL     1     -42.915  56.213 -55.021  1.00  0.00     0.280 HD
HETATM    3  C   UNL     1     -43.166  54.331 -54.206  1.00  0.00     0.236 C 
HETATM    4  C   UNL     1     -42.798  54.741 -52.784  1.00  0.00     0.040 C 
HETATM    5  C   UNL     1     -41.287  54.853 -52.559  1.00  0.00     0.058 C 
HETATM    6  C   UNL     1     -40.656  55.749 -53.628  1.00  0.00     0.040 C 
HETATM    7  C   UNL     1     -41.029  55.343 -55.049  1.00  0.00     0.236 C 
ENDROOT
BRANCH   1   8
HETATM    8  C   UNL     1     -42.900  54.936 -56.632  1.00  0.00     0.273 C 
BRANCH   8   9
HETATM    9  C   UNL     1     -43.131  56.149 -57.492  1.00  0.00    -0.032 A 
HETATM   10  C   UNL     1     -43.500  57.368 -56.904  1.00  0.00     0.017 A 
HETATM   11  C   UNL     1     -43.644  58.479 -57.720  1.00  0.00    -0.035 A 
HETATM   12  C   UNL     1     -43.425  58.425 -59.100  1.00  0.00     0.016 A 
HETATM   13  C   UNL     1     -43.986  59.880 -57.329  1.00  0.00     0.055 C 
HETATM   14  N   UNL     1     -43.560  59.683 -59.707  1.00  0.00    -0.287 NA
HETATM   15  C   UNL     1     -43.067  57.226 -59.689  1.00  0.00     0.025 A 
HETATM   16  C   UNL     1     -44.002  59.748 -61.089  1.00  0.00     0.116 C 
HETATM   17  C   UNL     1     -44.293  60.486 -58.710  1.00  0.00     0.100 C 
HETATM   18  C   UNL     1     -42.929  56.086 -58.888  1.00  0.00     0.011 A 
ENDBRANCH   8   9
ENDBRANCH   1   8
BRANCH   5  19
HETATM   19  C   UNL     1     -40.650  53.496 -52.546  1.00  0.00     0.108 A 
HETATM   20  N   UNL     1     -40.764  52.586 -53.489  1.00  0.00    -0.229 NA
HETATM   21  C   UNL     1     -40.038  51.478 -53.060  1.00  0.00     0.157 A 
HETATM   22  C   UNL     1     -39.479  51.762 -51.827  1.00  0.00     0.126 A 
HETATM   23  N   UNL     1     -39.868  53.035 -51.515  1.00  0.00    -0.352 N 
HETATM   24  H   UNL     1     -39.628  53.540 -50.670  1.00  0.00     0.166 HD
BRANCH  21  25
HETATM   25  C   UNL     1     -39.935  50.210 -53.865  1.00  0.00     0.436 C 
HETATM   26  F   UNL     1     -39.659  49.131 -53.086  1.00  0.00    -0.165 F 
HETATM   27  F   UNL     1     -41.091  49.937 -54.523  1.00  0.00    -0.165 F 
HETATM   28  F   UNL     1     -38.952  50.285 -54.799  1.00  0.00    -0.165 F 
ENDBRANCH  21  25
ENDBRANCH   5  19
TORSDOF 4
ENDMDL
