MODEL 1
REMARK VINA RESULT:      -8.1      0.000      0.000
REMARK  7 active torsions:
REMARK  status: ('A' for Active; 'I' for Inactive)
REMARK    1  A    between atoms: C_3  and  C_4 
REMARK    2  A    between atoms: C_4  and  N_5 
REMARK    3  A    between atoms: C_4  and  C_9 
REMARK       I    between atoms: N_5  and  C_6 
REMARK       I    between atoms: C_6  and  N_7 
REMARK    4  A    between atoms: C_9  and  C_10 
REMARK       I    between atoms: C_10  and  N_11 
REMARK    5  A    between atoms: N_11  and  C_12 
REMARK    6  A    between atoms: C_12  and  C_13 
REMARK    7  A    between atoms: C_13  and  N_14 
ROOT
HETATM    1  C   UNL     1     -43.233  54.638 -52.478  1.00  0.00     0.132 C 
ENDROOT
BRANCH   1   2
HETATM    2  C   UNL     1     -41.714  54.830 -52.359  1.00  0.00     0.128 C 
BRANCH   2   3
HETATM    3  C   UNL     1     -40.919  53.561 -52.664  1.00  0.00    -0.029 A 
HETATM    4  C   UNL     1     -40.159  52.890 -51.677  1.00  0.00    -0.054 A 
HETATM    5  C   UNL     1     -40.065  53.382 -50.257  1.00  0.00     0.049 C 
HETATM    6  C   UNL     1     -39.448  51.728 -52.025  1.00  0.00     0.007 A 
HETATM    7  C   UNL     1     -39.474  51.232 -53.326  1.00  0.00     0.001 A 
HETATM    8  C   UNL     1     -40.208  51.889 -54.303  1.00  0.00     0.001 A 
HETATM    9  C   UNL     1     -40.921  53.042 -53.975  1.00  0.00     0.010 A 
ENDBRANCH   2   3
BRANCH   2  10
HETATM   10  N   UNL     1     -41.187  55.958 -53.122  1.00  0.00    -0.334 N 
HETATM   11  C   UNL     1     -41.020  57.218 -52.642  1.00  0.00     0.314 C 
HETATM   12  N   UNL     1     -40.597  58.090 -53.589  1.00  0.00    -0.352 N 
HETATM   13  O   UNL     1     -41.172  57.565 -51.480  1.00  0.00    -0.248 OA
HETATM   14  H   UNL     1     -40.918  57.983 -54.538  1.00  0.00     0.160 HD
HETATM   15  H   UNL     1     -40.535  59.049 -53.267  1.00  0.00     0.160 HD
HETATM   16  H   UNL     1     -41.152  55.852 -54.125  1.00  0.00     0.165 HD
ENDBRANCH   2  10
ENDBRANCH   1   2
BRANCH   1  17
HETATM   17  C   UNL     1     -43.768  55.343 -53.702  1.00  0.00     0.219 C 
HETATM   18  N   UNL     1     -44.403  56.538 -53.464  1.00  0.00    -0.359 N 
HETATM   19  H   UNL     1     -44.277  56.921 -52.528  1.00  0.00     0.162 HD
HETATM   20  O   UNL     1     -43.706  54.855 -54.828  1.00  0.00    -0.274 OA
BRANCH  18  21
HETATM   21  C   UNL     1     -44.835  57.501 -54.475  1.00  0.00     0.150 C 
BRANCH  21  22
HETATM   22  C   UNL     1     -43.918  57.800 -55.682  1.00  0.00     0.254 C 
BRANCH  22  23
HETATM   23  N   UNL     1     -44.286  57.046 -56.934  1.00  0.00    -0.065 N 
HETATM   24  H   UNL     1     -44.644  56.139 -56.578  1.00  0.00     0.280 HD
HETATM   25  C   UNL     1     -45.391  57.668 -57.756  1.00  0.00     0.274 C 
HETATM   26  C   UNL     1     -45.610  56.930 -59.035  1.00  0.00    -0.019 A 
HETATM   27  C   UNL     1     -44.703  56.006 -59.518  1.00  0.00    -0.008 A 
HETATM   28  C   UNL     1     -46.724  57.065 -59.922  1.00  0.00     0.017 A 
HETATM   29  S   UNL     1     -45.180  55.311 -60.992  1.00  0.00    -0.106 SA
HETATM   30  C   UNL     1     -43.439  55.615 -58.822  1.00  0.00     0.074 C 
HETATM   31  C   UNL     1     -46.614  56.242 -61.023  1.00  0.00     0.051 A 
HETATM   32  C   UNL     1     -43.071  56.680 -57.775  1.00  0.00     0.240 C 
ENDBRANCH  22  23
ENDBRANCH  21  22
ENDBRANCH  18  21
ENDBRANCH   1  17
TORSDOF 7
ENDMDL
MODEL 2
REMARK VINA RESULT:      -8.0      2.548      3.683
REMARK  7 active torsions:
REMARK  status: ('A' for Active; 'I' for Inactive)
REMARK    1  A    between atoms: C_3  and  C_4 
REMARK    2  A    between atoms: C_4  and  N_5 
REMARK    3  A    between atoms: C_4  and  C_9 
REMARK       I    between atoms: N_5  and  C_6 
REMARK       I    between atoms: C_6  and  N_7 
REMARK    4  A    between atoms: C_9  and  C_10 
REMARK       I    between atoms: C_10  and  N_11 
REMARK    5  A    between atoms: N_11  and  C_12 
REMARK    6  A    between atoms: C_12  and  C_13 
REMARK    7  A    between atoms: C_13  and  N_14 
ROOT
HETATM    1  C   UNL     1     -42.837  54.191 -52.323  1.00  0.00     0.132 C 
ENDROOT
BRANCH   1   2
HETATM    2  C   UNL     1     -41.579  54.176 -53.204  1.00  0.00     0.128 C 
BRANCH   2   3
HETATM    3  C   UNL     1     -40.853  52.831 -53.198  1.00  0.00    -0.029 A 
HETATM    4  C   UNL     1     -40.031  52.421 -52.122  1.00  0.00    -0.054 A 
HETATM    5  C   UNL     1     -39.799  53.283 -50.909  1.00  0.00     0.049 C 
HETATM    6  C   UNL     1     -39.389  51.171 -52.180  1.00  0.00     0.007 A 
HETATM    7  C   UNL     1     -39.544  50.335 -53.284  1.00  0.00     0.001 A 
HETATM    8  C   UNL     1     -40.340  50.733 -54.348  1.00  0.00     0.001 A 
HETATM    9  C   UNL     1     -40.986  51.969 -54.306  1.00  0.00     0.010 A 
ENDBRANCH   2   3
BRANCH   2  10
HETATM   10  N   UNL     1     -41.798  54.632 -54.574  1.00  0.00    -0.334 N 
HETATM   11  C   UNL     1     -41.577  55.895 -55.023  1.00  0.00     0.314 C 
HETATM   12  N   UNL     1     -41.947  56.066 -56.315  1.00  0.00    -0.352 N 
HETATM   13  O   UNL     1     -41.056  56.798 -54.386  1.00  0.00    -0.248 OA
HETATM   14  H   UNL     1     -42.750  55.570 -56.670  1.00  0.00     0.160 HD
HETATM   15  H   UNL     1     -41.856  57.018 -56.647  1.00  0.00     0.160 HD
HETATM   16  H   UNL     1     -42.353  54.035 -55.168  1.00  0.00     0.165 HD
ENDBRANCH   2  10
ENDBRANCH   1   2
BRANCH   1  17
HETATM   17  C   UNL     1     -42.848  55.404 -51.425  1.00  0.00     0.219 C 
HETATM   18  N   UNL     1     -41.729  56.199 -51.493  1.00  0.00    -0.359 N 
HETATM   19  H   UNL     1     -41.102  56.005 -52.272  1.00  0.00     0.162 HD
HETATM   20  O   UNL     1     -43.760  55.636 -50.634  1.00  0.00    -0.274 OA
BRANCH  18  21
HETATM   21  C   UNL     1     -41.569  57.517 -50.881  1.00  0.00     0.150 C 
BRANCH  21  22
HETATM   22  C   UNL     1     -42.483  58.680 -51.329  1.00  0.00     0.254 C 
BRANCH  22  23
HETATM   23  N   UNL     1     -42.683  58.762 -52.821  1.00  0.00    -0.065 N 
HETATM   24  H   UNL     1     -41.999  58.078 -53.199  1.00  0.00     0.280 HD
HETATM   25  C   UNL     1     -44.049  58.340 -53.309  1.00  0.00     0.274 C 
HETATM   26  C   UNL     1     -44.206  58.567 -54.776  1.00  0.00    -0.019 A 
HETATM   27  C   UNL     1     -43.324  59.347 -55.500  1.00  0.00    -0.008 A 
HETATM   28  C   UNL     1     -45.242  58.053 -55.617  1.00  0.00     0.017 A 
HETATM   29  S   UNL     1     -43.723  59.453 -57.147  1.00  0.00    -0.106 SA
HETATM   30  C   UNL     1     -42.117  60.017 -54.927  1.00  0.00     0.074 C 
HETATM   31  C   UNL     1     -45.098  58.459 -56.927  1.00  0.00     0.051 A 
HETATM   32  C   UNL     1     -42.247  60.102 -53.396  1.00  0.00     0.240 C 
ENDBRANCH  22  23
ENDBRANCH  21  22
ENDBRANCH  18  21
ENDBRANCH   1  17
TORSDOF 7
ENDMDL
MODEL 3
REMARK VINA RESULT:      -8.0      1.664      2.798
REMARK  7 active torsions:
REMARK  status: ('A' for Active; 'I' for Inactive)
REMARK    1  A    between atoms: C_3  and  C_4 
REMARK    2  A    between atoms: C_4  and  N_5 
REMARK    3  A    between atoms: C_4  and  C_9 
REMARK       I    between atoms: N_5  and  C_6 
REMARK       I    between atoms: C_6  and  N_7 
REMARK    4  A    between atoms: C_9  and  C_10 
REMARK       I    between atoms: C_10  and  N_11 
REMARK    5  A    between atoms: N_11  and  C_12 
REMARK    6  A    between atoms: C_12  and  C_13 
REMARK    7  A    between atoms: C_13  and  N_14 
ROOT
HETATM    1  C   UNL     1     -40.758  57.165 -52.818  1.00  0.00     0.132 C 
ENDROOT
BRANCH   1   2
HETATM    2  C   UNL     1     -41.790  56.031 -52.914  1.00  0.00     0.128 C 
BRANCH   2   3
HETATM    3  C   UNL     1     -41.156  54.648 -53.058  1.00  0.00    -0.029 A 
HETATM    4  C   UNL     1     -41.002  54.015 -54.313  1.00  0.00    -0.054 A 
HETATM    5  C   UNL     1     -41.461  54.648 -55.600  1.00  0.00     0.049 C 
HETATM    6  C   UNL     1     -40.412  52.739 -54.375  1.00  0.00     0.007 A 
HETATM    7  C   UNL     1     -39.985  52.088 -53.220  1.00  0.00     0.001 A 
HETATM    8  C   UNL     1     -40.142  52.698 -51.984  1.00  0.00     0.001 A 
HETATM    9  C   UNL     1     -40.723  53.963 -51.903  1.00  0.00     0.010 A 
ENDBRANCH   2   3
BRANCH   2  10
HETATM   10  N   UNL     1     -42.784  56.029 -51.844  1.00  0.00    -0.334 N 
HETATM   11  C   UNL     1     -43.947  56.730 -51.855  1.00  0.00     0.314 C 
HETATM   12  N   UNL     1     -44.641  56.616 -50.697  1.00  0.00    -0.352 N 
HETATM   13  O   UNL     1     -44.388  57.367 -52.800  1.00  0.00    -0.248 OA
HETATM   14  H   UNL     1     -44.140  56.542 -49.825  1.00  0.00     0.160 HD
HETATM   15  H   UNL     1     -45.476  57.188 -50.659  1.00  0.00     0.160 HD
HETATM   16  H   UNL     1     -42.489  55.662 -50.952  1.00  0.00     0.165 HD
ENDBRANCH   2  10
ENDBRANCH   1   2
BRANCH   1  17
HETATM   17  C   UNL     1     -41.126  58.304 -53.739  1.00  0.00     0.219 C 
HETATM   18  N   UNL     1     -42.064  58.007 -54.699  1.00  0.00    -0.359 N 
HETATM   19  H   UNL     1     -42.556  57.125 -54.571  1.00  0.00     0.162 HD
HETATM   20  O   UNL     1     -40.578  59.403 -53.686  1.00  0.00    -0.274 OA
BRANCH  18  21
HETATM   21  C   UNL     1     -42.728  58.966 -55.580  1.00  0.00     0.150 C 
BRANCH  21  22
HETATM   22  C   UNL     1     -42.342  59.019 -57.076  1.00  0.00     0.254 C 
BRANCH  22  23
HETATM   23  N   UNL     1     -43.017  57.969 -57.920  1.00  0.00    -0.065 N 
HETATM   24  H   UNL     1     -42.990  57.119 -57.324  1.00  0.00     0.280 HD
HETATM   25  C   UNL     1     -44.469  58.240 -58.242  1.00  0.00     0.274 C 
HETATM   26  C   UNL     1     -45.026  57.220 -59.179  1.00  0.00    -0.019 A 
HETATM   27  C   UNL     1     -44.219  56.348 -59.885  1.00  0.00    -0.008 A 
HETATM   28  C   UNL     1     -46.406  57.005 -59.490  1.00  0.00     0.017 A 
HETATM   29  S   UNL     1     -45.094  55.292 -60.887  1.00  0.00    -0.106 SA
HETATM   30  C   UNL     1     -42.730  56.295 -59.777  1.00  0.00     0.074 C 
HETATM   31  C   UNL     1     -46.581  55.987 -60.403  1.00  0.00     0.051 A 
HETATM   32  C   UNL     1     -42.207  57.601 -59.155  1.00  0.00     0.240 C 
ENDBRANCH  22  23
ENDBRANCH  21  22
ENDBRANCH  18  21
ENDBRANCH   1  17
TORSDOF 7
ENDMDL
MODEL 4
REMARK VINA RESULT:      -7.7      1.534      2.323
REMARK  7 active torsions:
REMARK  status: ('A' for Active; 'I' for Inactive)
REMARK    1  A    between atoms: C_3  and  C_4 
REMARK    2  A    between atoms: C_4  and  N_5 
REMARK    3  A    between atoms: C_4  and  C_9 
REMARK       I    between atoms: N_5  and  C_6 
REMARK       I    between atoms: C_6  and  N_7 
REMARK    4  A    between atoms: C_9  and  C_10 
REMARK       I    between atoms: C_10  and  N_11 
REMARK    5  A    between atoms: N_11  and  C_12 
REMARK    6  A    between atoms: C_12  and  C_13 
REMARK    7  A    between atoms: C_13  and  N_14 
ROOT
HETATM    1  C   UNL     1     -43.392  54.655 -54.104  1.00  0.00     0.132 C 
ENDROOT
BRANCH   1   2
HETATM    2  C   UNL     1     -42.147  54.848 -53.224  1.00  0.00     0.128 C 
BRANCH   2   3
HETATM    3  C   UNL     1     -41.253  53.610 -53.164  1.00  0.00    -0.029 A 
HETATM    4  C   UNL     1     -40.595  53.211 -51.977  1.00  0.00    -0.054 A 
HETATM    5  C   UNL     1     -40.716  53.981 -50.688  1.00  0.00     0.049 C 
HETATM    6  C   UNL     1     -39.784  52.062 -51.989  1.00  0.00     0.007 A 
HETATM    7  C   UNL     1     -39.612  51.317 -53.154  1.00  0.00     0.001 A 
HETATM    8  C   UNL     1     -40.246  51.707 -54.325  1.00  0.00     0.001 A 
HETATM    9  C   UNL     1     -41.055  52.842 -54.330  1.00  0.00     0.010 A 
ENDBRANCH   2   3
BRANCH   2  10
HETATM   10  N   UNL     1     -41.357  56.033 -53.548  1.00  0.00    -0.334 N 
HETATM   11  C   UNL     1     -41.222  57.125 -52.751  1.00  0.00     0.314 C 
HETATM   12  N   UNL     1     -40.506  58.116 -53.334  1.00  0.00    -0.352 N 
HETATM   13  O   UNL     1     -41.638  57.229 -51.607  1.00  0.00    -0.248 OA
HETATM   14  H   UNL     1     -40.581  58.261 -54.329  1.00  0.00     0.160 HD
HETATM   15  H   UNL     1     -40.454  58.965 -52.784  1.00  0.00     0.160 HD
HETATM   16  H   UNL     1     -41.077  56.142 -54.511  1.00  0.00     0.165 HD
ENDBRANCH   2  10
ENDBRANCH   1   2
BRANCH   1  17
HETATM   17  C   UNL     1     -43.418  55.667 -55.224  1.00  0.00     0.219 C 
HETATM   18  N   UNL     1     -42.968  55.213 -56.441  1.00  0.00    -0.359 N 
HETATM   19  H   UNL     1     -42.853  54.203 -56.514  1.00  0.00     0.162 HD
HETATM   20  O   UNL     1     -43.752  56.838 -55.052  1.00  0.00    -0.274 OA
BRANCH  18  21
HETATM   21  C   UNL     1     -43.069  55.920 -57.716  1.00  0.00     0.150 C 
BRANCH  21  22
HETATM   22  C   UNL     1     -43.907  55.309 -58.861  1.00  0.00     0.254 C 
BRANCH  22  23
HETATM   23  N   UNL     1     -44.788  56.302 -59.574  1.00  0.00    -0.065 N 
HETATM   24  H   UNL     1     -44.174  56.689 -60.316  1.00  0.00     0.280 HD
HETATM   25  C   UNL     1     -45.997  55.710 -60.261  1.00  0.00     0.274 C 
HETATM   26  C   UNL     1     -46.880  56.769 -60.835  1.00  0.00    -0.019 A 
HETATM   27  C   UNL     1     -46.749  58.102 -60.495  1.00  0.00    -0.008 A 
HETATM   28  C   UNL     1     -47.949  56.581 -61.765  1.00  0.00     0.017 A 
HETATM   29  S   UNL     1     -47.875  59.104 -61.278  1.00  0.00    -0.106 SA
HETATM   30  C   UNL     1     -45.716  58.641 -59.560  1.00  0.00     0.074 C 
HETATM   31  C   UNL     1     -48.572  57.768 -62.088  1.00  0.00     0.051 A 
HETATM   32  C   UNL     1     -45.142  57.499 -58.703  1.00  0.00     0.240 C 
ENDBRANCH  22  23
ENDBRANCH  21  22
ENDBRANCH  18  21
ENDBRANCH   1  17
TORSDOF 7
ENDMDL
MODEL 5
REMARK VINA RESULT:      -7.7      1.728      3.021
REMARK  7 active torsions:
REMARK  status: ('A' for Active; 'I' for Inactive)
REMARK    1  A    between atoms: C_3  and  C_4 
REMARK    2  A    between atoms: C_4  and  N_5 
REMARK    3  A    between atoms: C_4  and  C_9 
REMARK       I    between atoms: N_5  and  C_6 
REMARK       I    between atoms: C_6  and  N_7 
REMARK    4  A    between atoms: C_9  and  C_10 
REMARK       I    between atoms: C_10  and  N_11 
REMARK    5  A    between atoms: N_11  and  C_12 
REMARK    6  A    between atoms: C_12  and  C_13 
REMARK    7  A    between atoms: C_13  and  N_14 
ROOT
HETATM    1  C   UNL     1     -40.823  57.887 -52.238  1.00  0.00     0.132 C 
ENDROOT
BRANCH   1   2
HETATM    2  C   UNL     1     -41.890  56.853 -51.851  1.00  0.00     0.128 C 
BRANCH   2   3
HETATM    3  C   UNL     1     -41.304  55.572 -51.260  1.00  0.00    -0.029 A 
HETATM    4  C   UNL     1     -41.178  54.381 -52.013  1.00  0.00    -0.054 A 
HETATM    5  C   UNL     1     -41.623  54.282 -53.448  1.00  0.00     0.049 C 
HETATM    6  C   UNL     1     -40.632  53.235 -51.408  1.00  0.00     0.007 A 
HETATM    7  C   UNL     1     -40.221  53.253 -50.077  1.00  0.00     0.001 A 
HETATM    8  C   UNL     1     -40.350  54.414 -49.328  1.00  0.00     0.001 A 
HETATM    9  C   UNL     1     -40.888  55.560 -49.912  1.00  0.00     0.010 A 
ENDBRANCH   2   3
BRANCH   2  10
HETATM   10  N   UNL     1     -42.950  57.374 -50.992  1.00  0.00    -0.334 N 
HETATM   11  C   UNL     1     -44.162  57.812 -51.422  1.00  0.00     0.314 C 
HETATM   12  N   UNL     1     -44.921  58.324 -50.424  1.00  0.00    -0.352 N 
HETATM   13  O   UNL     1     -44.588  57.726 -52.564  1.00  0.00    -0.248 OA
HETATM   14  H   UNL     1     -44.475  58.826 -49.671  1.00  0.00     0.160 HD
HETATM   15  H   UNL     1     -45.800  58.721 -50.736  1.00  0.00     0.160 HD
HETATM   16  H   UNL     1     -42.688  57.630 -50.052  1.00  0.00     0.165 HD
ENDBRANCH   2  10
ENDBRANCH   1   2
BRANCH   1  17
HETATM   17  C   UNL     1     -41.181  58.567 -53.538  1.00  0.00     0.219 C 
HETATM   18  N   UNL     1     -41.911  57.807 -54.420  1.00  0.00    -0.359 N 
HETATM   19  H   UNL     1     -42.303  56.949 -54.036  1.00  0.00     0.162 HD
HETATM   20  O   UNL     1     -40.792  59.698 -53.824  1.00  0.00    -0.274 OA
BRANCH  18  21
HETATM   21  C   UNL     1     -42.544  58.283 -55.649  1.00  0.00     0.150 C 
BRANCH  21  22
HETATM   22  C   UNL     1     -44.061  58.073 -55.855  1.00  0.00     0.254 C 
BRANCH  22  23
HETATM   23  N   UNL     1     -44.406  57.234 -57.058  1.00  0.00    -0.065 N 
HETATM   24  H   UNL     1     -44.767  56.351 -56.647  1.00  0.00     0.280 HD
HETATM   25  C   UNL     1     -45.499  57.793 -57.938  1.00  0.00     0.274 C 
HETATM   26  C   UNL     1     -45.694  56.969 -59.168  1.00  0.00    -0.019 A 
HETATM   27  C   UNL     1     -44.776  56.018 -59.571  1.00  0.00    -0.008 A 
HETATM   28  C   UNL     1     -46.793  57.038 -60.080  1.00  0.00     0.017 A 
HETATM   29  S   UNL     1     -45.225  55.222 -61.002  1.00  0.00    -0.106 SA
HETATM   30  C   UNL     1     -43.523  55.681 -58.830  1.00  0.00     0.074 C 
HETATM   31  C   UNL     1     -46.662  56.143 -61.121  1.00  0.00     0.051 A 
HETATM   32  C   UNL     1     -43.176  56.816 -57.851  1.00  0.00     0.240 C 
ENDBRANCH  22  23
ENDBRANCH  21  22
ENDBRANCH  18  21
ENDBRANCH   1  17
TORSDOF 7
ENDMDL
MODEL 6
REMARK VINA RESULT:      -7.6      4.191      6.168
REMARK  7 active torsions:
REMARK  status: ('A' for Active; 'I' for Inactive)
REMARK    1  A    between atoms: C_3  and  C_4 
REMARK    2  A    between atoms: C_4  and  N_5 
REMARK    3  A    between atoms: C_4  and  C_9 
REMARK       I    between atoms: N_5  and  C_6 
REMARK       I    between atoms: C_6  and  N_7 
REMARK    4  A    between atoms: C_9  and  C_10 
REMARK       I    between atoms: C_10  and  N_11 
REMARK    5  A    between atoms: N_11  and  C_12 
REMARK    6  A    between atoms: C_12  and  C_13 
REMARK    7  A    between atoms: C_13  and  N_14 
ROOT
HETATM    1  C   UNL     1     -42.680  54.288 -52.280  1.00  0.00     0.132 C 
ENDROOT
BRANCH   1   2
HETATM    2  C   UNL     1     -41.424  54.215 -53.161  1.00  0.00     0.128 C 
BRANCH   2   3
HETATM    3  C   UNL     1     -40.778  52.830 -53.178  1.00  0.00    -0.029 A 
HETATM    4  C   UNL     1     -40.005  52.344 -52.098  1.00  0.00    -0.054 A 
HETATM    5  C   UNL     1     -39.750  53.157 -50.857  1.00  0.00     0.049 C 
HETATM    6  C   UNL     1     -39.436  51.061 -52.178  1.00  0.00     0.007 A 
HETATM    7  C   UNL     1     -39.614  50.265 -53.308  1.00  0.00     0.001 A 
HETATM    8  C   UNL     1     -40.362  50.738 -54.376  1.00  0.00     0.001 A 
HETATM    9  C   UNL     1     -40.936  52.007 -54.313  1.00  0.00     0.010 A 
ENDBRANCH   2   3
BRANCH   2  10
HETATM   10  N   UNL     1     -41.614  54.707 -54.523  1.00  0.00    -0.334 N 
HETATM   11  C   UNL     1     -41.563  56.011 -54.899  1.00  0.00     0.314 C 
HETATM   12  N   UNL     1     -41.862  56.194 -56.207  1.00  0.00    -0.352 N 
HETATM   13  O   UNL     1     -41.237  56.947 -54.184  1.00  0.00    -0.248 OA
HETATM   14  H   UNL     1     -42.551  55.601 -56.645  1.00  0.00     0.160 HD
HETATM   15  H   UNL     1     -41.899  57.166 -56.489  1.00  0.00     0.160 HD
HETATM   16  H   UNL     1     -42.025  54.065 -55.184  1.00  0.00     0.165 HD
ENDBRANCH   2  10
ENDBRANCH   1   2
BRANCH   1  17
HETATM   17  C   UNL     1     -42.636  55.501 -51.383  1.00  0.00     0.219 C 
HETATM   18  N   UNL     1     -41.378  55.969 -51.085  1.00  0.00    -0.359 N 
HETATM   19  H   UNL     1     -40.623  55.582 -51.649  1.00  0.00     0.162 HD
HETATM   20  O   UNL     1     -43.646  56.000 -50.892  1.00  0.00    -0.274 OA
BRANCH  18  21
HETATM   21  C   UNL     1     -41.064  57.225 -50.406  1.00  0.00     0.150 C 
BRANCH  21  22
HETATM   22  C   UNL     1     -41.226  58.562 -51.165  1.00  0.00     0.254 C 
BRANCH  22  23
HETATM   23  N   UNL     1     -42.548  59.246 -50.927  1.00  0.00    -0.065 N 
HETATM   24  H   UNL     1     -43.033  58.618 -50.257  1.00  0.00     0.280 HD
HETATM   25  C   UNL     1     -42.457  60.606 -50.275  1.00  0.00     0.274 C 
HETATM   26  C   UNL     1     -43.794  61.266 -50.187  1.00  0.00    -0.019 A 
HETATM   27  C   UNL     1     -44.889  60.810 -50.896  1.00  0.00    -0.008 A 
HETATM   28  C   UNL     1     -44.131  62.418 -49.410  1.00  0.00     0.017 A 
HETATM   29  S   UNL     1     -46.288  61.735 -50.629  1.00  0.00    -0.106 SA
HETATM   30  C   UNL     1     -44.882  59.613 -51.790  1.00  0.00     0.074 C 
HETATM   31  C   UNL     1     -45.454  62.777 -49.560  1.00  0.00     0.051 A 
HETATM   32  C   UNL     1     -43.434  59.251 -52.164  1.00  0.00     0.240 C 
ENDBRANCH  22  23
ENDBRANCH  21  22
ENDBRANCH  18  21
ENDBRANCH   1  17
TORSDOF 7
ENDMDL
MODEL 7
REMARK VINA RESULT:      -7.6      2.212      3.885
REMARK  7 active torsions:
REMARK  status: ('A' for Active; 'I' for Inactive)
REMARK    1  A    between atoms: C_3  and  C_4 
REMARK    2  A    between atoms: C_4  and  N_5 
REMARK    3  A    between atoms: C_4  and  C_9 
REMARK       I    between atoms: N_5  and  C_6 
REMARK       I    between atoms: C_6  and  N_7 
REMARK    4  A    between atoms: C_9  and  C_10 
REMARK       I    between atoms: C_10  and  N_11 
REMARK    5  A    between atoms: N_11  and  C_12 
REMARK    6  A    between atoms: C_12  and  C_13 
REMARK    7  A    between atoms: C_13  and  N_14 
ROOT
HETATM    1  C   UNL     1     -41.231  56.129 -51.535  1.00  0.00     0.132 C 
ENDROOT
BRANCH   1   2
HETATM    2  C   UNL     1     -41.452  55.249 -52.775  1.00  0.00     0.128 C 
BRANCH   2   3
HETATM    3  C   UNL     1     -40.778  53.881 -52.672  1.00  0.00    -0.029 A 
HETATM    4  C   UNL     1     -40.255  53.210 -53.802  1.00  0.00    -0.054 A 
HETATM    5  C   UNL     1     -40.335  53.785 -55.191  1.00  0.00     0.049 C 
HETATM    6  C   UNL     1     -39.650  51.951 -53.638  1.00  0.00     0.007 A 
HETATM    7  C   UNL     1     -39.563  51.353 -52.383  1.00  0.00     0.001 A 
HETATM    8  C   UNL     1     -40.082  52.000 -51.271  1.00  0.00     0.001 A 
HETATM    9  C   UNL     1     -40.685  53.250 -51.414  1.00  0.00     0.010 A 
ENDBRANCH   2   3
BRANCH   2  10
HETATM   10  N   UNL     1     -42.850  55.101 -53.168  1.00  0.00    -0.334 N 
HETATM   11  C   UNL     1     -43.413  55.648 -54.277  1.00  0.00     0.314 C 
HETATM   12  N   UNL     1     -44.748  55.426 -54.353  1.00  0.00    -0.352 N 
HETATM   13  O   UNL     1     -42.815  56.238 -55.164  1.00  0.00    -0.248 OA
HETATM   14  H   UNL     1     -45.294  55.402 -53.507  1.00  0.00     0.160 HD
HETATM   15  H   UNL     1     -45.198  55.885 -55.136  1.00  0.00     0.160 HD
HETATM   16  H   UNL     1     -43.487  54.760 -52.464  1.00  0.00     0.165 HD
ENDBRANCH   2  10
ENDBRANCH   1   2
BRANCH   1  17
HETATM   17  C   UNL     1     -41.512  57.579 -51.850  1.00  0.00     0.219 C 
HETATM   18  N   UNL     1     -42.403  58.204 -51.011  1.00  0.00    -0.359 N 
HETATM   19  H   UNL     1     -42.628  57.696 -50.157  1.00  0.00     0.162 HD
HETATM   20  O   UNL     1     -41.035  58.149 -52.829  1.00  0.00    -0.274 OA
BRANCH  18  21
HETATM   21  C   UNL     1     -42.697  59.635 -50.978  1.00  0.00     0.150 C 
BRANCH  21  22
HETATM   22  C   UNL     1     -43.796  60.208 -51.902  1.00  0.00     0.254 C 
BRANCH  22  23
HETATM   23  N   UNL     1     -43.661  59.794 -53.344  1.00  0.00    -0.065 N 
HETATM   24  H   UNL     1     -43.029  58.971 -53.306  1.00  0.00     0.280 HD
HETATM   25  C   UNL     1     -44.942  59.340 -54.004  1.00  0.00     0.274 C 
HETATM   26  C   UNL     1     -44.747  59.066 -55.459  1.00  0.00    -0.019 A 
HETATM   27  C   UNL     1     -43.621  59.483 -56.143  1.00  0.00    -0.008 A 
HETATM   28  C   UNL     1     -45.650  58.380 -56.331  1.00  0.00     0.017 A 
HETATM   29  S   UNL     1     -43.641  59.054 -57.786  1.00  0.00    -0.106 SA
HETATM   30  C   UNL     1     -42.473  60.212 -55.523  1.00  0.00     0.074 C 
HETATM   31  C   UNL     1     -45.170  58.305 -57.621  1.00  0.00     0.051 A 
HETATM   32  C   UNL     1     -42.909  60.821 -54.179  1.00  0.00     0.240 C 
ENDBRANCH  22  23
ENDBRANCH  21  22
ENDBRANCH  18  21
ENDBRANCH   1  17
TORSDOF 7
ENDMDL
MODEL 8
REMARK VINA RESULT:      -7.5      2.942      3.582
REMARK  7 active torsions:
REMARK  status: ('A' for Active; 'I' for Inactive)
REMARK    1  A    between atoms: C_3  and  C_4 
REMARK    2  A    between atoms: C_4  and  N_5 
REMARK    3  A    between atoms: C_4  and  C_9 
REMARK       I    between atoms: N_5  and  C_6 
REMARK       I    between atoms: C_6  and  N_7 
REMARK    4  A    between atoms: C_9  and  C_10 
REMARK       I    between atoms: C_10  and  N_11 
REMARK    5  A    between atoms: N_11  and  C_12 
REMARK    6  A    between atoms: C_12  and  C_13 
REMARK    7  A    between atoms: C_13  and  N_14 
ROOT
HETATM    1  C   UNL     1     -43.406  54.673 -53.912  1.00  0.00     0.132 C 
ENDROOT
BRANCH   1   2
HETATM    2  C   UNL     1     -42.139  54.866 -53.065  1.00  0.00     0.128 C 
BRANCH   2   3
HETATM    3  C   UNL     1     -41.227  53.639 -53.054  1.00  0.00    -0.029 A 
HETATM    4  C   UNL     1     -40.547  53.214 -51.889  1.00  0.00    -0.054 A 
HETATM    5  C   UNL     1     -40.660  53.944 -50.576  1.00  0.00     0.049 C 
HETATM    6  C   UNL     1     -39.720  52.078 -51.948  1.00  0.00     0.007 A 
HETATM    7  C   UNL     1     -39.555  51.370 -53.136  1.00  0.00     0.001 A 
HETATM    8  C   UNL     1     -40.210  51.787 -54.286  1.00  0.00     0.001 A 
HETATM    9  C   UNL     1     -41.035  52.910 -54.246  1.00  0.00     0.010 A 
ENDBRANCH   2   3
BRANCH   2  10
HETATM   10  N   UNL     1     -41.375  56.067 -53.388  1.00  0.00    -0.334 N 
HETATM   11  C   UNL     1     -41.200  57.130 -52.560  1.00  0.00     0.314 C 
HETATM   12  N   UNL     1     -40.523  58.147 -53.145  1.00  0.00    -0.352 N 
HETATM   13  O   UNL     1     -41.551  57.189 -51.391  1.00  0.00    -0.248 OA
HETATM   14  H   UNL     1     -40.655  58.329 -54.128  1.00  0.00     0.160 HD
HETATM   15  H   UNL     1     -40.444  58.976 -52.567  1.00  0.00     0.160 HD
HETATM   16  H   UNL     1     -41.150  56.215 -54.360  1.00  0.00     0.165 HD
ENDBRANCH   2  10
ENDBRANCH   1   2
BRANCH   1  17
HETATM   17  C   UNL     1     -43.726  55.926 -54.691  1.00  0.00     0.219 C 
HETATM   18  N   UNL     1     -43.341  55.915 -56.011  1.00  0.00    -0.359 N 
HETATM   19  H   UNL     1     -43.065  55.006 -56.378  1.00  0.00     0.162 HD
HETATM   20  O   UNL     1     -44.232  56.918 -54.172  1.00  0.00    -0.274 OA
BRANCH  18  21
HETATM   21  C   UNL     1     -43.699  56.909 -57.021  1.00  0.00     0.150 C 
BRANCH  21  22
HETATM   22  C   UNL     1     -42.980  56.897 -58.389  1.00  0.00     0.254 C 
BRANCH  22  23
HETATM   23  N   UNL     1     -42.704  58.269 -58.948  1.00  0.00    -0.065 N 
HETATM   24  H   UNL     1     -43.650  58.652 -59.139  1.00  0.00     0.280 HD
HETATM   25  C   UNL     1     -42.022  59.225 -57.996  1.00  0.00     0.274 C 
HETATM   26  C   UNL     1     -41.675  60.515 -58.663  1.00  0.00    -0.019 A 
HETATM   27  C   UNL     1     -41.699  60.665 -60.037  1.00  0.00    -0.008 A 
HETATM   28  C   UNL     1     -41.271  61.728 -58.024  1.00  0.00     0.017 A 
HETATM   29  S   UNL     1     -41.258  62.223 -60.546  1.00  0.00    -0.106 SA
HETATM   30  C   UNL     1     -42.096  59.593 -61.000  1.00  0.00     0.074 C 
HETATM   31  C   UNL     1     -41.015  62.734 -58.931  1.00  0.00     0.051 A 
HETATM   32  C   UNL     1     -42.025  58.220 -60.309  1.00  0.00     0.240 C 
ENDBRANCH  22  23
ENDBRANCH  21  22
ENDBRANCH  18  21
ENDBRANCH   1  17
TORSDOF 7
ENDMDL
MODEL 9
REMARK VINA RESULT:      -7.2      3.157      4.855
REMARK  7 active torsions:
REMARK  status: ('A' for Active; 'I' for Inactive)
REMARK    1  A    between atoms: C_3  and  C_4 
REMARK    2  A    between atoms: C_4  and  N_5 
REMARK    3  A    between atoms: C_4  and  C_9 
REMARK       I    between atoms: N_5  and  C_6 
REMARK       I    between atoms: C_6  and  N_7 
REMARK    4  A    between atoms: C_9  and  C_10 
REMARK       I    between atoms: C_10  and  N_11 
REMARK    5  A    between atoms: N_11  and  C_12 
REMARK    6  A    between atoms: C_12  and  C_13 
REMARK    7  A    between atoms: C_13  and  N_14 
ROOT
HETATM    1  C   UNL     1     -43.207  54.723 -54.340  1.00  0.00     0.132 C 
ENDROOT
BRANCH   1   2
HETATM    2  C   UNL     1     -42.084  54.898 -53.307  1.00  0.00     0.128 C 
BRANCH   2   3
HETATM    3  C   UNL     1     -41.197  53.661 -53.163  1.00  0.00    -0.029 A 
HETATM    4  C   UNL     1     -40.603  53.298 -51.932  1.00  0.00    -0.054 A 
HETATM    5  C   UNL     1     -40.787  54.106 -50.675  1.00  0.00     0.049 C 
HETATM    6  C   UNL     1     -39.795  52.148 -51.869  1.00  0.00     0.007 A 
HETATM    7  C   UNL     1     -39.566  51.367 -53.000  1.00  0.00     0.001 A 
HETATM    8  C   UNL     1     -40.137  51.723 -54.213  1.00  0.00     0.001 A 
HETATM    9  C   UNL     1     -40.942  52.859 -54.294  1.00  0.00     0.010 A 
ENDBRANCH   2   3
BRANCH   2  10
HETATM   10  N   UNL     1     -41.267  56.092 -53.501  1.00  0.00    -0.334 N 
HETATM   11  C   UNL     1     -41.348  57.226 -52.756  1.00  0.00     0.314 C 
HETATM   12  N   UNL     1     -40.536  58.211 -53.208  1.00  0.00    -0.352 N 
HETATM   13  O   UNL     1     -42.024  57.371 -51.749  1.00  0.00    -0.248 OA
HETATM   14  H   UNL     1     -40.377  58.306 -54.200  1.00  0.00     0.160 HD
HETATM   15  H   UNL     1     -40.634  59.088 -52.709  1.00  0.00     0.160 HD
HETATM   16  H   UNL     1     -40.769  56.165 -54.375  1.00  0.00     0.165 HD
ENDBRANCH   2  10
ENDBRANCH   1   2
BRANCH   1  17
HETATM   17  C   UNL     1     -43.090  55.752 -55.438  1.00  0.00     0.219 C 
HETATM   18  N   UNL     1     -44.185  56.567 -55.601  1.00  0.00    -0.359 N 
HETATM   19  H   UNL     1     -44.873  56.531 -54.851  1.00  0.00     0.162 HD
HETATM   20  O   UNL     1     -42.116  55.818 -56.184  1.00  0.00    -0.274 OA
BRANCH  18  21
HETATM   21  C   UNL     1     -44.256  57.755 -56.451  1.00  0.00     0.150 C 
BRANCH  21  22
HETATM   22  C   UNL     1     -45.166  58.933 -56.038  1.00  0.00     0.254 C 
BRANCH  22  23
HETATM   23  N   UNL     1     -44.674  59.695 -54.834  1.00  0.00    -0.065 N 
HETATM   24  H   UNL     1     -45.095  60.637 -54.949  1.00  0.00     0.280 HD
HETATM   25  C   UNL     1     -45.143  59.159 -53.501  1.00  0.00     0.274 C 
HETATM   26  C   UNL     1     -44.516  59.890 -52.360  1.00  0.00    -0.019 A 
HETATM   27  C   UNL     1     -43.424  60.721 -52.528  1.00  0.00    -0.008 A 
HETATM   28  C   UNL     1     -44.913  59.839 -50.987  1.00  0.00     0.017 A 
HETATM   29  S   UNL     1     -42.895  61.429 -51.078  1.00  0.00    -0.106 SA
HETATM   30  C   UNL     1     -42.773  61.009 -53.841  1.00  0.00     0.074 C 
HETATM   31  C   UNL     1     -44.116  60.629 -50.185  1.00  0.00     0.051 A 
HETATM   32  C   UNL     1     -43.172  59.935 -54.868  1.00  0.00     0.240 C 
ENDBRANCH  22  23
ENDBRANCH  21  22
ENDBRANCH  18  21
ENDBRANCH   1  17
TORSDOF 7
ENDMDL
MODEL 10
REMARK VINA RESULT:      -7.2      3.493      5.212
REMARK  7 active torsions:
REMARK  status: ('A' for Active; 'I' for Inactive)
REMARK    1  A    between atoms: C_3  and  C_4 
REMARK    2  A    between atoms: C_4  and  N_5 
REMARK    3  A    between atoms: C_4  and  C_9 
REMARK       I    between atoms: N_5  and  C_6 
REMARK       I    between atoms: C_6  and  N_7 
REMARK    4  A    between atoms: C_9  and  C_10 
REMARK       I    between atoms: C_10  and  N_11 
REMARK    5  A    between atoms: N_11  and  C_12 
REMARK    6  A    between atoms: C_12  and  C_13 
REMARK    7  A    between atoms: C_13  and  N_14 
ROOT
HETATM    1  C   UNL     1     -40.278  54.507 -54.620  1.00  0.00     0.132 C 
ENDROOT
BRANCH   1   2
HETATM    2  C   UNL     1     -41.260  53.483 -54.033  1.00  0.00     0.128 C 
BRANCH   2   3
HETATM    3  C   UNL     1     -40.588  52.178 -53.607  1.00  0.00    -0.029 A 
HETATM    4  C   UNL     1     -39.964  52.026 -52.346  1.00  0.00    -0.054 A 
HETATM    5  C   UNL     1     -39.902  53.141 -51.336  1.00  0.00     0.049 C 
HETATM    6  C   UNL     1     -39.362  50.799 -52.017  1.00  0.00     0.007 A 
HETATM    7  C   UNL     1     -39.365  49.733 -52.915  1.00  0.00     0.001 A 
HETATM    8  C   UNL     1     -39.966  49.877 -54.157  1.00  0.00     0.001 A 
HETATM    9  C   UNL     1     -40.569  51.087 -54.500  1.00  0.00     0.010 A 
ENDBRANCH   2   3
BRANCH   2  10
HETATM   10  N   UNL     1     -42.099  54.001 -52.956  1.00  0.00    -0.334 N 
HETATM   11  C   UNL     1     -43.343  54.522 -53.115  1.00  0.00     0.314 C 
HETATM   12  N   UNL     1     -43.861  55.010 -51.962  1.00  0.00    -0.352 N 
HETATM   13  O   UNL     1     -43.988  54.527 -54.153  1.00  0.00    -0.248 OA
HETATM   14  H   UNL     1     -43.248  55.443 -51.288  1.00  0.00     0.160 HD
HETATM   15  H   UNL     1     -44.758  55.466 -52.073  1.00  0.00     0.160 HD
HETATM   16  H   UNL     1     -41.644  54.187 -52.075  1.00  0.00     0.165 HD
ENDBRANCH   2  10
ENDBRANCH   1   2
BRANCH   1  17
HETATM   17  C   UNL     1     -40.916  55.873 -54.708  1.00  0.00     0.219 C 
HETATM   18  N   UNL     1     -41.719  56.079 -55.804  1.00  0.00    -0.359 N 
HETATM   19  H   UNL     1     -41.961  55.242 -56.332  1.00  0.00     0.162 HD
HETATM   20  O   UNL     1     -40.683  56.767 -53.898  1.00  0.00    -0.274 OA
BRANCH  18  21
HETATM   21  C   UNL     1     -42.596  57.227 -56.025  1.00  0.00     0.150 C 
BRANCH  21  22
HETATM   22  C   UNL     1     -42.112  58.642 -55.634  1.00  0.00     0.254 C 
BRANCH  22  23
HETATM   23  N   UNL     1     -42.824  59.225 -54.440  1.00  0.00    -0.065 N 
HETATM   24  H   UNL     1     -43.473  59.920 -54.857  1.00  0.00     0.280 HD
HETATM   25  C   UNL     1     -43.665  58.247 -53.654  1.00  0.00     0.274 C 
HETATM   26  C   UNL     1     -44.236  58.872 -52.424  1.00  0.00    -0.019 A 
HETATM   27  C   UNL     1     -43.782  60.082 -51.935  1.00  0.00    -0.008 A 
HETATM   28  C   UNL     1     -45.274  58.342 -51.596  1.00  0.00     0.017 A 
HETATM   29  S   UNL     1     -44.586  60.574 -50.522  1.00  0.00    -0.106 SA
HETATM   30  C   UNL     1     -42.715  60.909 -52.575  1.00  0.00     0.074 C 
HETATM   31  C   UNL     1     -45.560  59.168 -50.529  1.00  0.00     0.051 A 
HETATM   32  C   UNL     1     -41.900  60.043 -53.551  1.00  0.00     0.240 C 
ENDBRANCH  22  23
ENDBRANCH  21  22
ENDBRANCH  18  21
ENDBRANCH   1  17
TORSDOF 7
ENDMDL
