MODEL 1
REMARK VINA RESULT:      -8.3      0.000      0.000
REMARK  10 active torsions:
REMARK  status: ('A' for Active; 'I' for Inactive)
REMARK    1  A    between atoms: C_2  and  C_3 
REMARK    2  A    between atoms: C_3  and  O_4 
REMARK    3  A    between atoms: O_4  and  C_5 
REMARK    4  A    between atoms: C_7  and  C_8 
REMARK       I    between atoms: C_8  and  N_9 
REMARK    5  A    between atoms: N_9  and  C_10 
REMARK    6  A    between atoms: C_10  and  N_11 
REMARK    7  A    between atoms: N_11  and  C_12 
REMARK    8  A    between atoms: C_15  and  N_16 
REMARK    9  A    between atoms: N_19  and  C_21 
REMARK   10  A    between atoms: C_21  and  C_22 
ROOT
HETATM    1  C   UNL     1     -45.814  59.744 -51.925  1.00  0.00     0.034 A 
HETATM    2  C   UNL     1     -45.614  58.662 -51.070  1.00  0.00     0.032 A 
HETATM    3  C   UNL     1     -44.773  57.605 -51.443  1.00  0.00     0.031 A 
HETATM    4  C   UNL     1     -44.130  57.575 -52.690  1.00  0.00     0.030 A 
HETATM    5  C   UNL     1     -44.384  58.652 -53.553  1.00  0.00     0.031 A 
HETATM    6  C   UNL     1     -45.217  59.719 -53.181  1.00  0.00     0.032 A 
ENDROOT
BRANCH   1   7
HETATM    7  N   UNL     1     -46.667  60.773 -51.482  1.00  0.00    -0.333 N 
HETATM    8  H   UNL     1     -47.656  60.544 -51.509  1.00  0.00     0.168 HD
BRANCH   7   9
HETATM    9  C   UNL     1     -46.422  62.088 -51.301  1.00  0.00     0.179 C 
HETATM   10  S   UNL     1     -46.547  63.121 -52.614  1.00  0.00    -0.040 SA
BRANCH   9  11
HETATM   11  N   UNL     1     -46.159  62.641 -50.083  1.00  0.00    -0.299 N 
HETATM   12  C   UNL     1     -45.640  62.028 -48.944  1.00  0.00     0.257 C 
HETATM   13  O   UNL     1     -44.873  61.076 -48.895  1.00  0.00    -0.267 OA
HETATM   14  H   UNL     1     -46.769  63.429 -49.905  1.00  0.00     0.171 HD
BRANCH  12  15
HETATM   15  C   UNL     1     -46.013  62.691 -47.668  1.00  0.00     0.035 A 
HETATM   16  C   UNL     1     -45.052  62.967 -46.686  1.00  0.00     0.053 A 
HETATM   17  C   UNL     1     -45.443  63.605 -45.509  1.00  0.00     0.069 A 
HETATM   18  C   UNL     1     -46.783  63.932 -45.297  1.00  0.00     0.037 A 
HETATM   19  C   UNL     1     -47.734  63.681 -46.285  1.00  0.00     0.004 A 
HETATM   20  C   UNL     1     -47.348  63.070 -47.478  1.00  0.00     0.017 A 
BRANCH  17  21
HETATM   21  O   UNL     1     -44.582  63.903 -44.490  1.00  0.00    -0.351 OA
BRANCH  21  22
HETATM   22  C   UNL     1     -45.229  64.150 -43.235  1.00  0.00     0.175 C 
BRANCH  22  23
HETATM   23  C   UNL     1     -44.350  63.558 -42.137  1.00  0.00     0.022 C 
HETATM   24  C   UNL     1     -43.131  62.855 -42.705  1.00  0.00     0.007 C 
ENDBRANCH  22  23
ENDBRANCH  21  22
ENDBRANCH  17  21
ENDBRANCH  12  15
ENDBRANCH   9  11
ENDBRANCH   7   9
ENDBRANCH   1   7
BRANCH   4  25
HETATM   25  N   UNL     1     -43.236  56.543 -52.992  1.00  0.00    -0.378 N 
HETATM   26  C   UNL     1     -42.178  56.279 -51.999  1.00  0.00     0.150 C 
HETATM   27  C   UNL     1     -40.993  55.556 -52.675  1.00  0.00     0.255 C 
HETATM   28  N   UNL     1     -41.457  54.294 -53.399  1.00  0.00    -0.064 N 
HETATM   29  H   UNL     1     -41.832  53.654 -52.685  1.00  0.00     0.280 HD
HETATM   30  C   UNL     1     -42.587  54.605 -54.378  1.00  0.00     0.255 C 
HETATM   31  C   UNL     1     -43.744  55.344 -53.677  1.00  0.00     0.150 C 
BRANCH  28  32
HETATM   32  C   UNL     1     -40.299  53.582 -54.056  1.00  0.00     0.276 C 
BRANCH  32  33
HETATM   33  C   UNL     1     -40.084  52.183 -53.562  1.00  0.00     0.006 A 
HETATM   34  C   UNL     1     -39.668  51.971 -52.244  1.00  0.00     0.124 A 
HETATM   35  F   UNL     1     -39.510  53.030 -51.437  1.00  0.00    -0.206 F 
HETATM   36  C   UNL     1     -39.452  50.693 -51.744  1.00  0.00     0.043 A 
HETATM   37  C   UNL     1     -39.655  49.592 -52.575  1.00  0.00     0.003 A 
HETATM   38  C   UNL     1     -40.070  49.781 -53.894  1.00  0.00     0.001 A 
HETATM   39  C   UNL     1     -40.281  51.070 -54.391  1.00  0.00     0.012 A 
ENDBRANCH  32  33
ENDBRANCH  28  32
ENDBRANCH   4  25
TORSDOF 10
ENDMDL
MODEL 2
REMARK VINA RESULT:      -8.2      1.537      1.887
REMARK  10 active torsions:
REMARK  status: ('A' for Active; 'I' for Inactive)
REMARK    1  A    between atoms: C_2  and  C_3 
REMARK    2  A    between atoms: C_3  and  O_4 
REMARK    3  A    between atoms: O_4  and  C_5 
REMARK    4  A    between atoms: C_7  and  C_8 
REMARK       I    between atoms: C_8  and  N_9 
REMARK    5  A    between atoms: N_9  and  C_10 
REMARK    6  A    between atoms: C_10  and  N_11 
REMARK    7  A    between atoms: N_11  and  C_12 
REMARK    8  A    between atoms: C_15  and  N_16 
REMARK    9  A    between atoms: N_19  and  C_21 
REMARK   10  A    between atoms: C_21  and  C_22 
ROOT
HETATM    1  C   UNL     1     -45.440  59.623 -53.151  1.00  0.00     0.034 A 
HETATM    2  C   UNL     1     -44.993  58.938 -52.023  1.00  0.00     0.032 A 
HETATM    3  C   UNL     1     -44.155  57.822 -52.154  1.00  0.00     0.031 A 
HETATM    4  C   UNL     1     -43.761  57.334 -53.410  1.00  0.00     0.030 A 
HETATM    5  C   UNL     1     -44.262  58.012 -54.531  1.00  0.00     0.031 A 
HETATM    6  C   UNL     1     -45.093  59.137 -54.408  1.00  0.00     0.032 A 
ENDROOT
BRANCH   1   7
HETATM    7  N   UNL     1     -46.274  60.739 -52.945  1.00  0.00    -0.333 N 
HETATM    8  H   UNL     1     -47.179  60.681 -53.401  1.00  0.00     0.168 HD
BRANCH   7   9
HETATM    9  C   UNL     1     -45.976  61.975 -52.490  1.00  0.00     0.179 C 
HETATM   10  S   UNL     1     -45.585  63.170 -53.597  1.00  0.00    -0.040 SA
BRANCH   9  11
HETATM   11  N   UNL     1     -46.059  62.331 -51.177  1.00  0.00    -0.299 N 
HETATM   12  C   UNL     1     -45.157  62.068 -50.146  1.00  0.00     0.257 C 
HETATM   13  O   UNL     1     -43.945  61.931 -50.235  1.00  0.00    -0.267 OA
HETATM   14  H   UNL     1     -47.024  62.423 -50.889  1.00  0.00     0.171 HD
BRANCH  12  15
HETATM   15  C   UNL     1     -45.766  62.047 -48.791  1.00  0.00     0.035 A 
HETATM   16  C   UNL     1     -45.217  61.271 -47.762  1.00  0.00     0.053 A 
HETATM   17  C   UNL     1     -45.811  61.293 -46.500  1.00  0.00     0.069 A 
HETATM   18  C   UNL     1     -46.961  62.051 -46.276  1.00  0.00     0.037 A 
HETATM   19  C   UNL     1     -47.491  62.843 -47.294  1.00  0.00     0.004 A 
HETATM   20  C   UNL     1     -46.887  62.852 -48.551  1.00  0.00     0.017 A 
BRANCH  17  21
HETATM   21  O   UNL     1     -45.357  60.560 -45.439  1.00  0.00    -0.351 OA
BRANCH  21  22
HETATM   22  C   UNL     1     -44.103  61.011 -44.915  1.00  0.00     0.175 C 
BRANCH  22  23
HETATM   23  C   UNL     1     -44.363  62.299 -44.138  1.00  0.00     0.022 C 
HETATM   24  C   UNL     1     -43.399  62.464 -42.977  1.00  0.00     0.007 C 
ENDBRANCH  22  23
ENDBRANCH  21  22
ENDBRANCH  17  21
ENDBRANCH  12  15
ENDBRANCH   9  11
ENDBRANCH   7   9
ENDBRANCH   1   7
BRANCH   4  25
HETATM   25  N   UNL     1     -42.860  56.268 -53.495  1.00  0.00    -0.378 N 
HETATM   26  C   UNL     1     -41.428  56.620 -53.530  1.00  0.00     0.150 C 
HETATM   27  C   UNL     1     -40.621  55.469 -54.166  1.00  0.00     0.255 C 
HETATM   28  N   UNL     1     -40.890  54.146 -53.454  1.00  0.00    -0.064 N 
HETATM   29  H   UNL     1     -40.555  54.248 -52.486  1.00  0.00     0.280 HD
HETATM   30  C   UNL     1     -42.387  53.846 -53.395  1.00  0.00     0.255 C 
HETATM   31  C   UNL     1     -43.166  55.022 -52.773  1.00  0.00     0.150 C 
BRANCH  28  32
HETATM   32  C   UNL     1     -40.097  53.018 -54.071  1.00  0.00     0.276 C 
BRANCH  32  33
HETATM   33  C   UNL     1     -39.910  51.838 -53.165  1.00  0.00     0.006 A 
HETATM   34  C   UNL     1     -39.772  50.559 -53.714  1.00  0.00     0.124 A 
HETATM   35  F   UNL     1     -39.768  50.425 -55.048  1.00  0.00    -0.206 F 
HETATM   36  C   UNL     1     -39.600  49.437 -52.913  1.00  0.00     0.043 A 
HETATM   37  C   UNL     1     -39.565  49.587 -51.528  1.00  0.00     0.003 A 
HETATM   38  C   UNL     1     -39.702  50.853 -50.959  1.00  0.00     0.001 A 
HETATM   39  C   UNL     1     -39.877  51.977 -51.771  1.00  0.00     0.012 A 
ENDBRANCH  32  33
ENDBRANCH  28  32
ENDBRANCH   4  25
TORSDOF 10
ENDMDL
MODEL 3
REMARK VINA RESULT:      -8.1      7.431      9.693
REMARK  10 active torsions:
REMARK  status: ('A' for Active; 'I' for Inactive)
REMARK    1  A    between atoms: C_2  and  C_3 
REMARK    2  A    between atoms: C_3  and  O_4 
REMARK    3  A    between atoms: O_4  and  C_5 
REMARK    4  A    between atoms: C_7  and  C_8 
REMARK       I    between atoms: C_8  and  N_9 
REMARK    5  A    between atoms: N_9  and  C_10 
REMARK    6  A    between atoms: C_10  and  N_11 
REMARK    7  A    between atoms: N_11  and  C_12 
REMARK    8  A    between atoms: C_15  and  N_16 
REMARK    9  A    between atoms: N_19  and  C_21 
REMARK   10  A    between atoms: C_21  and  C_22 
ROOT
HETATM    1  C   UNL     1     -44.255  59.748 -56.464  1.00  0.00     0.034 A 
HETATM    2  C   UNL     1     -42.868  59.654 -56.358  1.00  0.00     0.032 A 
HETATM    3  C   UNL     1     -42.265  58.455 -55.957  1.00  0.00     0.031 A 
HETATM    4  C   UNL     1     -43.021  57.323 -55.618  1.00  0.00     0.030 A 
HETATM    5  C   UNL     1     -44.416  57.455 -55.686  1.00  0.00     0.031 A 
HETATM    6  C   UNL     1     -45.027  58.651 -56.097  1.00  0.00     0.032 A 
ENDROOT
BRANCH   1   7
HETATM    7  N   UNL     1     -44.792  60.982 -56.878  1.00  0.00    -0.333 N 
HETATM    8  H   UNL     1     -45.175  61.550 -56.130  1.00  0.00     0.168 HD
BRANCH   7   9
HETATM    9  C   UNL     1     -45.140  61.408 -58.112  1.00  0.00     0.179 C 
HETATM   10  S   UNL     1     -44.756  62.975 -58.562  1.00  0.00    -0.040 SA
BRANCH   9  11
HETATM   11  N   UNL     1     -45.714  60.602 -59.050  1.00  0.00    -0.299 N 
HETATM   12  C   UNL     1     -46.994  60.051 -59.056  1.00  0.00     0.257 C 
HETATM   13  O   UNL     1     -48.007  60.515 -58.552  1.00  0.00    -0.267 OA
HETATM   14  H   UNL     1     -45.012  60.063 -59.539  1.00  0.00     0.171 HD
BRANCH  12  15
HETATM   15  C   UNL     1     -47.118  58.801 -59.850  1.00  0.00     0.035 A 
HETATM   16  C   UNL     1     -46.435  57.635 -59.478  1.00  0.00     0.053 A 
HETATM   17  C   UNL     1     -46.592  56.479 -60.242  1.00  0.00     0.069 A 
HETATM   18  C   UNL     1     -47.391  56.494 -61.386  1.00  0.00     0.037 A 
HETATM   19  C   UNL     1     -48.091  57.647 -61.740  1.00  0.00     0.004 A 
HETATM   20  C   UNL     1     -47.965  58.800 -60.965  1.00  0.00     0.017 A 
BRANCH  17  21
HETATM   21  O   UNL     1     -45.956  55.300 -59.967  1.00  0.00    -0.351 OA
BRANCH  21  22
HETATM   22  C   UNL     1     -44.592  55.260 -60.402  1.00  0.00     0.175 C 
BRANCH  22  23
HETATM   23  C   UNL     1     -43.708  55.416 -59.168  1.00  0.00     0.022 C 
HETATM   24  C   UNL     1     -42.748  56.584 -59.304  1.00  0.00     0.007 C 
ENDBRANCH  22  23
ENDBRANCH  21  22
ENDBRANCH  17  21
ENDBRANCH  12  15
ENDBRANCH   9  11
ENDBRANCH   7   9
ENDBRANCH   1   7
BRANCH   4  25
HETATM   25  N   UNL     1     -42.378  56.121 -55.301  1.00  0.00    -0.378 N 
HETATM   26  C   UNL     1     -41.136  56.229 -54.513  1.00  0.00     0.150 C 
HETATM   27  C   UNL     1     -40.277  54.962 -54.714  1.00  0.00     0.255 C 
HETATM   28  N   UNL     1     -41.073  53.699 -54.397  1.00  0.00    -0.064 N 
HETATM   29  H   UNL     1     -41.322  53.738 -53.399  1.00  0.00     0.280 HD
HETATM   30  C   UNL     1     -42.375  53.654 -55.195  1.00  0.00     0.255 C 
HETATM   31  C   UNL     1     -43.199  54.940 -54.988  1.00  0.00     0.150 C 
BRANCH  28  32
HETATM   32  C   UNL     1     -40.233  52.458 -54.588  1.00  0.00     0.276 C 
BRANCH  32  33
HETATM   33  C   UNL     1     -40.024  51.665 -53.332  1.00  0.00     0.006 A 
HETATM   34  C   UNL     1     -39.753  50.296 -53.416  1.00  0.00     0.124 A 
HETATM   35  F   UNL     1     -39.644  49.730 -54.627  1.00  0.00    -0.206 F 
HETATM   36  C   UNL     1     -39.556  49.521 -52.279  1.00  0.00     0.043 A 
HETATM   37  C   UNL     1     -39.631  50.122 -51.023  1.00  0.00     0.003 A 
HETATM   38  C   UNL     1     -39.902  51.486 -50.918  1.00  0.00     0.001 A 
HETATM   39  C   UNL     1     -40.102  52.258 -52.065  1.00  0.00     0.012 A 
ENDBRANCH  32  33
ENDBRANCH  28  32
ENDBRANCH   4  25
TORSDOF 10
ENDMDL
MODEL 4
REMARK VINA RESULT:      -8.0      5.796      8.476
REMARK  10 active torsions:
REMARK  status: ('A' for Active; 'I' for Inactive)
REMARK    1  A    between atoms: C_2  and  C_3 
REMARK    2  A    between atoms: C_3  and  O_4 
REMARK    3  A    between atoms: O_4  and  C_5 
REMARK    4  A    between atoms: C_7  and  C_8 
REMARK       I    between atoms: C_8  and  N_9 
REMARK    5  A    between atoms: N_9  and  C_10 
REMARK    6  A    between atoms: C_10  and  N_11 
REMARK    7  A    between atoms: N_11  and  C_12 
REMARK    8  A    between atoms: C_15  and  N_16 
REMARK    9  A    between atoms: N_19  and  C_21 
REMARK   10  A    between atoms: C_21  and  C_22 
ROOT
HETATM    1  C   UNL     1     -44.778  59.139 -53.837  1.00  0.00     0.034 A 
HETATM    2  C   UNL     1     -44.985  57.796 -54.148  1.00  0.00     0.032 A 
HETATM    3  C   UNL     1     -44.241  56.796 -53.508  1.00  0.00     0.031 A 
HETATM    4  C   UNL     1     -43.248  57.099 -52.564  1.00  0.00     0.030 A 
HETATM    5  C   UNL     1     -43.025  58.459 -52.303  1.00  0.00     0.031 A 
HETATM    6  C   UNL     1     -43.774  59.467 -52.932  1.00  0.00     0.032 A 
ENDROOT
BRANCH   1   7
HETATM    7  N   UNL     1     -45.565  60.090 -54.514  1.00  0.00    -0.333 N 
HETATM    8  H   UNL     1     -46.442  60.318 -54.057  1.00  0.00     0.168 HD
BRANCH   7   9
HETATM    9  C   UNL     1     -45.490  60.532 -55.788  1.00  0.00     0.179 C 
HETATM   10  S   UNL     1     -46.012  62.085 -56.136  1.00  0.00    -0.040 SA
BRANCH   9  11
HETATM   11  N   UNL     1     -44.930  59.811 -56.800  1.00  0.00    -0.299 N 
HETATM   12  C   UNL     1     -45.565  59.051 -57.781  1.00  0.00     0.257 C 
HETATM   13  O   UNL     1     -46.673  59.236 -58.265  1.00  0.00    -0.267 OA
HETATM   14  H   UNL     1     -44.002  59.495 -56.547  1.00  0.00     0.171 HD
BRANCH  12  15
HETATM   15  C   UNL     1     -44.733  57.954 -58.340  1.00  0.00     0.035 A 
HETATM   16  C   UNL     1     -43.935  57.155 -57.510  1.00  0.00     0.053 A 
HETATM   17  C   UNL     1     -43.181  56.126 -58.074  1.00  0.00     0.069 A 
HETATM   18  C   UNL     1     -43.194  55.918 -59.454  1.00  0.00     0.037 A 
HETATM   19  C   UNL     1     -44.009  56.696 -60.275  1.00  0.00     0.004 A 
HETATM   20  C   UNL     1     -44.789  57.709 -59.718  1.00  0.00     0.017 A 
BRANCH  17  21
HETATM   21  O   UNL     1     -42.363  55.305 -57.349  1.00  0.00    -0.351 OA
BRANCH  21  22
HETATM   22  C   UNL     1     -42.772  55.132 -55.986  1.00  0.00     0.175 C 
BRANCH  22  23
HETATM   23  C   UNL     1     -41.642  54.417 -55.251  1.00  0.00     0.022 C 
HETATM   24  C   UNL     1     -40.623  55.393 -54.693  1.00  0.00     0.007 C 
ENDBRANCH  22  23
ENDBRANCH  21  22
ENDBRANCH  17  21
ENDBRANCH  12  15
ENDBRANCH   9  11
ENDBRANCH   7   9
ENDBRANCH   1   7
BRANCH   4  25
HETATM   25  N   UNL     1     -42.585  56.069 -51.890  1.00  0.00    -0.378 N 
HETATM   26  C   UNL     1     -41.732  56.469 -50.754  1.00  0.00     0.150 C 
HETATM   27  C   UNL     1     -40.676  55.376 -50.482  1.00  0.00     0.255 C 
HETATM   28  N   UNL     1     -41.332  54.012 -50.280  1.00  0.00    -0.064 N 
HETATM   29  H   UNL     1     -41.920  54.079 -49.438  1.00  0.00     0.280 HD
HETATM   30  C   UNL     1     -42.246  53.662 -51.453  1.00  0.00     0.255 C 
HETATM   31  C   UNL     1     -43.274  54.780 -51.712  1.00  0.00     0.150 C 
BRANCH  28  32
HETATM   32  C   UNL     1     -40.302  52.942 -50.007  1.00  0.00     0.276 C 
BRANCH  32  33
HETATM   33  C   UNL     1     -40.051  52.028 -51.169  1.00  0.00     0.006 A 
HETATM   34  C   UNL     1     -39.953  50.650 -50.956  1.00  0.00     0.124 A 
HETATM   35  F   UNL     1     -40.129  50.172 -49.715  1.00  0.00    -0.206 F 
HETATM   36  C   UNL     1     -39.717  49.766 -52.001  1.00  0.00     0.043 A 
HETATM   37  C   UNL     1     -39.573  50.263 -53.296  1.00  0.00     0.003 A 
HETATM   38  C   UNL     1     -39.666  51.635 -53.530  1.00  0.00     0.001 A 
HETATM   39  C   UNL     1     -39.901  52.518 -52.473  1.00  0.00     0.012 A 
ENDBRANCH  32  33
ENDBRANCH  28  32
ENDBRANCH   4  25
TORSDOF 10
ENDMDL
MODEL 5
REMARK VINA RESULT:      -8.0      1.629      2.285
REMARK  10 active torsions:
REMARK  status: ('A' for Active; 'I' for Inactive)
REMARK    1  A    between atoms: C_2  and  C_3 
REMARK    2  A    between atoms: C_3  and  O_4 
REMARK    3  A    between atoms: O_4  and  C_5 
REMARK    4  A    between atoms: C_7  and  C_8 
REMARK       I    between atoms: C_8  and  N_9 
REMARK    5  A    between atoms: N_9  and  C_10 
REMARK    6  A    between atoms: C_10  and  N_11 
REMARK    7  A    between atoms: N_11  and  C_12 
REMARK    8  A    between atoms: C_15  and  N_16 
REMARK    9  A    between atoms: N_19  and  C_21 
REMARK   10  A    between atoms: C_21  and  C_22 
ROOT
HETATM    1  C   UNL     1     -45.699  61.685 -52.093  1.00  0.00     0.034 A 
HETATM    2  C   UNL     1     -44.409  61.768 -52.614  1.00  0.00     0.032 A 
HETATM    3  C   UNL     1     -43.639  60.611 -52.795  1.00  0.00     0.031 A 
HETATM    4  C   UNL     1     -44.113  59.341 -52.434  1.00  0.00     0.030 A 
HETATM    5  C   UNL     1     -45.396  59.288 -51.868  1.00  0.00     0.031 A 
HETATM    6  C   UNL     1     -46.177  60.441 -51.694  1.00  0.00     0.032 A 
ENDROOT
BRANCH   1   7
HETATM    7  N   UNL     1     -46.417  62.887 -51.945  1.00  0.00    -0.333 N 
HETATM    8  H   UNL     1     -46.138  63.629 -52.578  1.00  0.00     0.168 HD
BRANCH   7   9
HETATM    9  C   UNL     1     -47.205  63.309 -50.932  1.00  0.00     0.179 C 
HETATM   10  S   UNL     1     -48.767  63.806 -51.278  1.00  0.00    -0.040 SA
BRANCH   9  11
HETATM   11  N   UNL     1     -46.827  63.273 -49.623  1.00  0.00    -0.299 N 
HETATM   12  C   UNL     1     -45.559  63.472 -49.078  1.00  0.00     0.257 C 
HETATM   13  O   UNL     1     -44.661  64.174 -49.521  1.00  0.00    -0.267 OA
HETATM   14  H   UNL     1     -47.431  62.661 -49.090  1.00  0.00     0.171 HD
BRANCH  12  15
HETATM   15  C   UNL     1     -45.346  62.809 -47.766  1.00  0.00     0.035 A 
HETATM   16  C   UNL     1     -45.159  63.559 -46.597  1.00  0.00     0.053 A 
HETATM   17  C   UNL     1     -44.978  62.896 -45.383  1.00  0.00     0.069 A 
HETATM   18  C   UNL     1     -44.947  61.501 -45.340  1.00  0.00     0.037 A 
HETATM   19  C   UNL     1     -45.159  60.757 -46.500  1.00  0.00     0.004 A 
HETATM   20  C   UNL     1     -45.371  61.409 -47.714  1.00  0.00     0.017 A 
BRANCH  17  21
HETATM   21  O   UNL     1     -44.775  63.540 -44.195  1.00  0.00    -0.351 OA
BRANCH  21  22
HETATM   22  C   UNL     1     -44.168  62.723 -43.187  1.00  0.00     0.175 C 
BRANCH  22  23
HETATM   23  C   UNL     1     -43.130  63.575 -42.462  1.00  0.00     0.022 C 
HETATM   24  C   UNL     1     -43.535  63.863 -41.028  1.00  0.00     0.007 C 
ENDBRANCH  22  23
ENDBRANCH  21  22
ENDBRANCH  17  21
ENDBRANCH  12  15
ENDBRANCH   9  11
ENDBRANCH   7   9
ENDBRANCH   1   7
BRANCH   4  25
HETATM   25  N   UNL     1     -43.346  58.204 -52.705  1.00  0.00    -0.378 N 
HETATM   26  C   UNL     1     -41.887  58.338 -52.530  1.00  0.00     0.150 C 
HETATM   27  C   UNL     1     -41.158  57.261 -53.363  1.00  0.00     0.255 C 
HETATM   28  N   UNL     1     -41.670  55.863 -53.026  1.00  0.00    -0.064 N 
HETATM   29  H   UNL     1     -41.442  55.685 -52.038  1.00  0.00     0.280 HD
HETATM   30  C   UNL     1     -43.189  55.783 -53.169  1.00  0.00     0.255 C 
HETATM   31  C   UNL     1     -43.885  56.883 -52.343  1.00  0.00     0.150 C 
BRANCH  28  32
HETATM   32  C   UNL     1     -40.955  54.807 -53.834  1.00  0.00     0.276 C 
BRANCH  32  33
HETATM   33  C   UNL     1     -40.512  53.621 -53.031  1.00  0.00     0.006 A 
HETATM   34  C   UNL     1     -40.102  52.456 -53.686  1.00  0.00     0.124 A 
HETATM   35  F   UNL     1     -40.075  52.442 -55.027  1.00  0.00    -0.206 F 
HETATM   36  C   UNL     1     -39.687  51.331 -52.983  1.00  0.00     0.043 A 
HETATM   37  C   UNL     1     -39.679  51.363 -51.590  1.00  0.00     0.003 A 
HETATM   38  C   UNL     1     -40.085  52.516 -50.916  1.00  0.00     0.001 A 
HETATM   39  C   UNL     1     -40.504  53.641 -51.630  1.00  0.00     0.012 A 
ENDBRANCH  32  33
ENDBRANCH  28  32
ENDBRANCH   4  25
TORSDOF 10
ENDMDL
MODEL 6
REMARK VINA RESULT:      -8.0      6.494      9.193
REMARK  10 active torsions:
REMARK  status: ('A' for Active; 'I' for Inactive)
REMARK    1  A    between atoms: C_2  and  C_3 
REMARK    2  A    between atoms: C_3  and  O_4 
REMARK    3  A    between atoms: O_4  and  C_5 
REMARK    4  A    between atoms: C_7  and  C_8 
REMARK       I    between atoms: C_8  and  N_9 
REMARK    5  A    between atoms: N_9  and  C_10 
REMARK    6  A    between atoms: C_10  and  N_11 
REMARK    7  A    between atoms: N_11  and  C_12 
REMARK    8  A    between atoms: C_15  and  N_16 
REMARK    9  A    between atoms: N_19  and  C_21 
REMARK   10  A    between atoms: C_21  and  C_22 
ROOT
HETATM    1  C   UNL     1     -45.284  59.449 -55.303  1.00  0.00     0.034 A 
HETATM    2  C   UNL     1     -44.169  59.783 -54.537  1.00  0.00     0.032 A 
HETATM    3  C   UNL     1     -43.415  58.785 -53.905  1.00  0.00     0.031 A 
HETATM    4  C   UNL     1     -43.764  57.429 -53.987  1.00  0.00     0.030 A 
HETATM    5  C   UNL     1     -44.918  57.121 -54.724  1.00  0.00     0.031 A 
HETATM    6  C   UNL     1     -45.672  58.114 -55.369  1.00  0.00     0.032 A 
ENDROOT
BRANCH   1   7
HETATM    7  N   UNL     1     -45.990  60.502 -55.915  1.00  0.00    -0.333 N 
HETATM    8  H   UNL     1     -46.717  60.915 -55.340  1.00  0.00     0.168 HD
BRANCH   7   9
HETATM    9  C   UNL     1     -46.060  60.863 -57.215  1.00  0.00     0.179 C 
HETATM   10  S   UNL     1     -46.147  62.491 -57.597  1.00  0.00    -0.040 SA
BRANCH   9  11
HETATM   11  N   UNL     1     -45.977  59.974 -58.245  1.00  0.00    -0.299 N 
HETATM   12  C   UNL     1     -47.010  59.397 -58.981  1.00  0.00     0.257 C 
HETATM   13  O   UNL     1     -48.107  59.878 -59.227  1.00  0.00    -0.267 OA
HETATM   14  H   UNL     1     -45.139  59.412 -58.169  1.00  0.00     0.171 HD
BRANCH  12  15
HETATM   15  C   UNL     1     -46.669  58.086 -59.592  1.00  0.00     0.035 A 
HETATM   16  C   UNL     1     -45.599  57.319 -59.111  1.00  0.00     0.053 A 
HETATM   17  C   UNL     1     -45.323  56.087 -59.703  1.00  0.00     0.069 A 
HETATM   18  C   UNL     1     -46.081  55.640 -60.786  1.00  0.00     0.037 A 
HETATM   19  C   UNL     1     -47.161  56.392 -61.247  1.00  0.00     0.004 A 
HETATM   20  C   UNL     1     -47.465  57.612 -60.642  1.00  0.00     0.017 A 
BRANCH  17  21
HETATM   21  O   UNL     1     -44.293  55.276 -59.313  1.00  0.00    -0.351 OA
BRANCH  21  22
HETATM   22  C   UNL     1     -43.047  55.962 -59.138  1.00  0.00     0.175 C 
BRANCH  22  23
HETATM   23  C   UNL     1     -42.836  56.160 -57.639  1.00  0.00     0.022 C 
HETATM   24  C   UNL     1     -42.340  57.558 -57.318  1.00  0.00     0.007 C 
ENDBRANCH  22  23
ENDBRANCH  21  22
ENDBRANCH  17  21
ENDBRANCH  12  15
ENDBRANCH   9  11
ENDBRANCH   7   9
ENDBRANCH   1   7
BRANCH   4  25
HETATM   25  N   UNL     1     -42.940  56.457 -53.409  1.00  0.00    -0.378 N 
HETATM   26  C   UNL     1     -43.260  55.052 -53.724  1.00  0.00     0.150 C 
HETATM   27  C   UNL     1     -42.676  54.125 -52.636  1.00  0.00     0.255 C 
HETATM   28  N   UNL     1     -41.181  54.366 -52.449  1.00  0.00    -0.064 N 
HETATM   29  H   UNL     1     -40.719  54.118 -53.335  1.00  0.00     0.280 HD
HETATM   30  C   UNL     1     -40.890  55.842 -52.177  1.00  0.00     0.255 C 
HETATM   31  C   UNL     1     -41.502  56.740 -53.269  1.00  0.00     0.150 C 
BRANCH  28  32
HETATM   32  C   UNL     1     -40.606  53.457 -51.389  1.00  0.00     0.276 C 
BRANCH  32  33
HETATM   33  C   UNL     1     -40.191  52.111 -51.902  1.00  0.00     0.006 A 
HETATM   34  C   UNL     1     -40.044  51.045 -51.008  1.00  0.00     0.124 A 
HETATM   35  F   UNL     1     -40.321  51.245 -49.711  1.00  0.00    -0.206 F 
HETATM   36  C   UNL     1     -39.657  49.781 -51.437  1.00  0.00     0.043 A 
HETATM   37  C   UNL     1     -39.408  49.568 -52.792  1.00  0.00     0.003 A 
HETATM   38  C   UNL     1     -39.547  50.618 -53.701  1.00  0.00     0.001 A 
HETATM   39  C   UNL     1     -39.933  51.887 -53.261  1.00  0.00     0.012 A 
ENDBRANCH  32  33
ENDBRANCH  28  32
ENDBRANCH   4  25
TORSDOF 10
ENDMDL
MODEL 7
REMARK VINA RESULT:      -8.0      4.088      6.663
REMARK  10 active torsions:
REMARK  status: ('A' for Active; 'I' for Inactive)
REMARK    1  A    between atoms: C_2  and  C_3 
REMARK    2  A    between atoms: C_3  and  O_4 
REMARK    3  A    between atoms: O_4  and  C_5 
REMARK    4  A    between atoms: C_7  and  C_8 
REMARK       I    between atoms: C_8  and  N_9 
REMARK    5  A    between atoms: N_9  and  C_10 
REMARK    6  A    between atoms: C_10  and  N_11 
REMARK    7  A    between atoms: N_11  and  C_12 
REMARK    8  A    between atoms: C_15  and  N_16 
REMARK    9  A    between atoms: N_19  and  C_21 
REMARK   10  A    between atoms: C_21  and  C_22 
ROOT
HETATM    1  C   UNL     1     -45.752  61.648 -51.383  1.00  0.00     0.034 A 
HETATM    2  C   UNL     1     -44.404  61.694 -51.032  1.00  0.00     0.032 A 
HETATM    3  C   UNL     1     -43.645  60.519 -50.966  1.00  0.00     0.031 A 
HETATM    4  C   UNL     1     -44.208  59.258 -51.216  1.00  0.00     0.030 A 
HETATM    5  C   UNL     1     -45.577  59.231 -51.520  1.00  0.00     0.031 A 
HETATM    6  C   UNL     1     -46.342  60.406 -51.599  1.00  0.00     0.032 A 
ENDROOT
BRANCH   1   7
HETATM    7  N   UNL     1     -46.451  62.868 -51.436  1.00  0.00    -0.333 N 
HETATM    8  H   UNL     1     -46.793  63.199 -50.539  1.00  0.00     0.168 HD
BRANCH   7   9
HETATM    9  C   UNL     1     -46.985  63.520 -52.491  1.00  0.00     0.179 C 
HETATM   10  S   UNL     1     -45.972  64.015 -53.730  1.00  0.00    -0.040 SA
BRANCH   9  11
HETATM   11  N   UNL     1     -48.324  63.725 -52.647  1.00  0.00    -0.299 N 
HETATM   12  C   UNL     1     -49.326  63.697 -51.679  1.00  0.00     0.257 C 
HETATM   13  O   UNL     1     -49.223  63.977 -50.492  1.00  0.00    -0.267 OA
HETATM   14  H   UNL     1     -48.621  63.470 -53.580  1.00  0.00     0.171 HD
BRANCH  12  15
HETATM   15  C   UNL     1     -50.676  63.371 -52.205  1.00  0.00     0.035 A 
HETATM   16  C   UNL     1     -50.881  63.116 -53.568  1.00  0.00     0.053 A 
HETATM   17  C   UNL     1     -52.162  62.798 -54.017  1.00  0.00     0.069 A 
HETATM   18  C   UNL     1     -53.235  62.769 -53.125  1.00  0.00     0.037 A 
HETATM   19  C   UNL     1     -53.025  62.996 -51.765  1.00  0.00     0.004 A 
HETATM   20  C   UNL     1     -51.743  63.287 -51.300  1.00  0.00     0.017 A 
BRANCH  17  21
HETATM   21  O   UNL     1     -52.462  62.548 -55.327  1.00  0.00    -0.351 OA
BRANCH  21  22
HETATM   22  C   UNL     1     -53.389  61.472 -55.517  1.00  0.00     0.175 C 
BRANCH  22  23
HETATM   23  C   UNL     1     -52.582  60.182 -55.633  1.00  0.00     0.022 C 
HETATM   24  C   UNL     1     -51.483  60.293 -56.674  1.00  0.00     0.007 C 
ENDBRANCH  22  23
ENDBRANCH  21  22
ENDBRANCH  17  21
ENDBRANCH  12  15
ENDBRANCH   9  11
ENDBRANCH   7   9
ENDBRANCH   1   7
BRANCH   4  25
HETATM   25  N   UNL     1     -43.398  58.117 -51.219  1.00  0.00    -0.378 N 
HETATM   26  C   UNL     1     -44.020  56.871 -51.703  1.00  0.00     0.150 C 
HETATM   27  C   UNL     1     -43.253  55.652 -51.147  1.00  0.00     0.255 C 
HETATM   28  N   UNL     1     -41.765  55.739 -51.477  1.00  0.00    -0.064 N 
HETATM   29  H   UNL     1     -41.678  55.708 -52.503  1.00  0.00     0.280 HD
HETATM   30  C   UNL     1     -41.173  57.067 -51.006  1.00  0.00     0.255 C 
HETATM   31  C   UNL     1     -41.973  58.262 -51.561  1.00  0.00     0.150 C 
BRANCH  28  32
HETATM   32  C   UNL     1     -41.012  54.546 -50.940  1.00  0.00     0.276 C 
BRANCH  32  33
HETATM   33  C   UNL     1     -40.575  53.575 -51.996  1.00  0.00     0.006 A 
HETATM   34  C   UNL     1     -40.052  52.334 -51.622  1.00  0.00     0.124 A 
HETATM   35  F   UNL     1     -39.992  52.023 -50.319  1.00  0.00    -0.206 F 
HETATM   36  C   UNL     1     -39.631  51.405 -52.566  1.00  0.00     0.043 A 
HETATM   37  C   UNL     1     -39.732  51.716 -53.921  1.00  0.00     0.003 A 
HETATM   38  C   UNL     1     -40.250  52.950 -54.316  1.00  0.00     0.001 A 
HETATM   39  C   UNL     1     -40.668  53.880 -53.361  1.00  0.00     0.012 A 
ENDBRANCH  32  33
ENDBRANCH  28  32
ENDBRANCH   4  25
TORSDOF 10
ENDMDL
MODEL 8
REMARK VINA RESULT:      -8.0      1.719      2.335
REMARK  10 active torsions:
REMARK  status: ('A' for Active; 'I' for Inactive)
REMARK    1  A    between atoms: C_2  and  C_3 
REMARK    2  A    between atoms: C_3  and  O_4 
REMARK    3  A    between atoms: O_4  and  C_5 
REMARK    4  A    between atoms: C_7  and  C_8 
REMARK       I    between atoms: C_8  and  N_9 
REMARK    5  A    between atoms: N_9  and  C_10 
REMARK    6  A    between atoms: C_10  and  N_11 
REMARK    7  A    between atoms: N_11  and  C_12 
REMARK    8  A    between atoms: C_15  and  N_16 
REMARK    9  A    between atoms: N_19  and  C_21 
REMARK   10  A    between atoms: C_21  and  C_22 
ROOT
HETATM    1  C   UNL     1     -44.616  60.475 -52.189  1.00  0.00     0.034 A 
HETATM    2  C   UNL     1     -43.223  60.430 -52.147  1.00  0.00     0.032 A 
HETATM    3  C   UNL     1     -42.560  59.247 -51.792  1.00  0.00     0.031 A 
HETATM    4  C   UNL     1     -43.259  58.084 -51.437  1.00  0.00     0.030 A 
HETATM    5  C   UNL     1     -44.659  58.167 -51.440  1.00  0.00     0.031 A 
HETATM    6  C   UNL     1     -45.331  59.345 -51.805  1.00  0.00     0.032 A 
ENDROOT
BRANCH   1   7
HETATM    7  N   UNL     1     -45.215  61.694 -52.560  1.00  0.00    -0.333 N 
HETATM    8  H   UNL     1     -45.357  61.810 -53.558  1.00  0.00     0.168 HD
BRANCH   7   9
HETATM    9  C   UNL     1     -45.369  62.836 -51.856  1.00  0.00     0.179 C 
HETATM   10  S   UNL     1     -45.488  64.286 -52.687  1.00  0.00    -0.040 SA
BRANCH   9  11
HETATM   11  N   UNL     1     -45.519  62.867 -50.502  1.00  0.00    -0.299 N 
HETATM   12  C   UNL     1     -44.533  62.904 -49.518  1.00  0.00     0.257 C 
HETATM   13  O   UNL     1     -43.417  63.396 -49.601  1.00  0.00    -0.267 OA
HETATM   14  H   UNL     1     -46.385  62.422 -50.225  1.00  0.00     0.171 HD
BRANCH  12  15
HETATM   15  C   UNL     1     -44.956  62.348 -48.206  1.00  0.00     0.035 A 
HETATM   16  C   UNL     1     -44.973  63.145 -47.053  1.00  0.00     0.053 A 
HETATM   17  C   UNL     1     -45.393  62.588 -45.846  1.00  0.00     0.069 A 
HETATM   18  C   UNL     1     -45.756  61.242 -45.779  1.00  0.00     0.037 A 
HETATM   19  C   UNL     1     -45.763  60.457 -46.932  1.00  0.00     0.004 A 
HETATM   20  C   UNL     1     -45.374  61.012 -48.151  1.00  0.00     0.017 A 
BRANCH  17  21
HETATM   21  O   UNL     1     -45.430  63.280 -44.668  1.00  0.00    -0.351 OA
BRANCH  21  22
HETATM   22  C   UNL     1     -44.315  63.022 -43.806  1.00  0.00     0.175 C 
BRANCH  22  23
HETATM   23  C   UNL     1     -44.394  64.004 -42.640  1.00  0.00     0.022 C 
HETATM   24  C   UNL     1     -43.353  63.705 -41.577  1.00  0.00     0.007 C 
ENDBRANCH  22  23
ENDBRANCH  21  22
ENDBRANCH  17  21
ENDBRANCH  12  15
ENDBRANCH   9  11
ENDBRANCH   7   9
ENDBRANCH   1   7
BRANCH   4  25
HETATM   25  N   UNL     1     -42.560  56.902 -51.167  1.00  0.00    -0.378 N 
HETATM   26  C   UNL     1     -43.001  55.698 -51.896  1.00  0.00     0.150 C 
HETATM   27  C   UNL     1     -42.560  54.432 -51.130  1.00  0.00     0.255 C 
HETATM   28  N   UNL     1     -41.058  54.445 -50.859  1.00  0.00    -0.064 N 
HETATM   29  H   UNL     1     -40.583  54.425 -51.773  1.00  0.00     0.280 HD
HETATM   30  C   UNL     1     -40.637  55.732 -50.151  1.00  0.00     0.255 C 
HETATM   31  C   UNL     1     -41.109  56.976 -50.930  1.00  0.00     0.150 C 
BRANCH  28  32
HETATM   32  C   UNL     1     -40.622  53.205 -50.115  1.00  0.00     0.276 C 
BRANCH  32  33
HETATM   33  C   UNL     1     -40.232  52.065 -51.007  1.00  0.00     0.006 A 
HETATM   34  C   UNL     1     -40.165  50.770 -50.485  1.00  0.00     0.124 A 
HETATM   35  F   UNL     1     -40.495  50.572 -49.200  1.00  0.00    -0.206 F 
HETATM   36  C   UNL     1     -39.804  49.684 -51.273  1.00  0.00     0.043 A 
HETATM   37  C   UNL     1     -39.500  49.888 -52.617  1.00  0.00     0.003 A 
HETATM   38  C   UNL     1     -39.559  51.173 -53.158  1.00  0.00     0.001 A 
HETATM   39  C   UNL     1     -39.920  52.261 -52.359  1.00  0.00     0.012 A 
ENDBRANCH  32  33
ENDBRANCH  28  32
ENDBRANCH   4  25
TORSDOF 10
ENDMDL
MODEL 9
REMARK VINA RESULT:      -7.9      4.038     11.799
REMARK  10 active torsions:
REMARK  status: ('A' for Active; 'I' for Inactive)
REMARK    1  A    between atoms: C_2  and  C_3 
REMARK    2  A    between atoms: C_3  and  O_4 
REMARK    3  A    between atoms: O_4  and  C_5 
REMARK    4  A    between atoms: C_7  and  C_8 
REMARK       I    between atoms: C_8  and  N_9 
REMARK    5  A    between atoms: N_9  and  C_10 
REMARK    6  A    between atoms: C_10  and  N_11 
REMARK    7  A    between atoms: N_11  and  C_12 
REMARK    8  A    between atoms: C_15  and  N_16 
REMARK    9  A    between atoms: N_19  and  C_21 
REMARK   10  A    between atoms: C_21  and  C_22 
ROOT
HETATM    1  C   UNL     1     -44.361  60.001 -52.069  1.00  0.00     0.034 A 
HETATM    2  C   UNL     1     -43.877  61.296 -51.898  1.00  0.00     0.032 A 
HETATM    3  C   UNL     1     -44.111  61.991 -50.704  1.00  0.00     0.031 A 
HETATM    4  C   UNL     1     -44.861  61.434 -49.657  1.00  0.00     0.030 A 
HETATM    5  C   UNL     1     -45.379  60.148 -49.871  1.00  0.00     0.031 A 
HETATM    6  C   UNL     1     -45.139  59.441 -51.061  1.00  0.00     0.032 A 
ENDROOT
BRANCH   1   7
HETATM    7  N   UNL     1     -44.083  59.360 -53.292  1.00  0.00    -0.333 N 
HETATM    8  H   UNL     1     -44.897  58.995 -53.774  1.00  0.00     0.168 HD
BRANCH   7   9
HETATM    9  C   UNL     1     -42.912  58.904 -53.788  1.00  0.00     0.179 C 
HETATM   10  S   UNL     1     -42.119  59.813 -54.949  1.00  0.00    -0.040 SA
BRANCH   9  11
HETATM   11  N   UNL     1     -42.292  57.780 -53.330  1.00  0.00    -0.299 N 
HETATM   12  C   UNL     1     -42.865  56.583 -52.904  1.00  0.00     0.257 C 
HETATM   13  O   UNL     1     -43.917  56.085 -53.282  1.00  0.00    -0.267 OA
HETATM   14  H   UNL     1     -41.404  58.007 -52.900  1.00  0.00     0.171 HD
BRANCH  12  15
HETATM   15  C   UNL     1     -42.031  55.811 -51.947  1.00  0.00     0.035 A 
HETATM   16  C   UNL     1     -41.810  54.438 -52.121  1.00  0.00     0.053 A 
HETATM   17  C   UNL     1     -41.007  53.756 -51.208  1.00  0.00     0.069 A 
HETATM   18  C   UNL     1     -40.461  54.425 -50.112  1.00  0.00     0.037 A 
HETATM   19  C   UNL     1     -40.660  55.796 -49.954  1.00  0.00     0.004 A 
HETATM   20  C   UNL     1     -41.437  56.495 -50.879  1.00  0.00     0.017 A 
BRANCH  17  21
HETATM   21  O   UNL     1     -40.746  52.416 -51.287  1.00  0.00    -0.351 OA
BRANCH  21  22
HETATM   22  C   UNL     1     -39.450  52.106 -51.813  1.00  0.00     0.175 C 
BRANCH  22  23
HETATM   23  C   UNL     1     -39.642  51.131 -52.972  1.00  0.00     0.022 C 
HETATM   24  C   UNL     1     -40.203  51.819 -54.203  1.00  0.00     0.007 C 
ENDBRANCH  22  23
ENDBRANCH  21  22
ENDBRANCH  17  21
ENDBRANCH  12  15
ENDBRANCH   9  11
ENDBRANCH   7   9
ENDBRANCH   1   7
BRANCH   4  25
HETATM   25  N   UNL     1     -45.004  62.128 -48.451  1.00  0.00    -0.378 N 
HETATM   26  C   UNL     1     -44.922  61.325 -47.217  1.00  0.00     0.150 C 
HETATM   27  C   UNL     1     -45.626  62.067 -46.061  1.00  0.00     0.255 C 
HETATM   28  N   UNL     1     -45.068  63.478 -45.889  1.00  0.00    -0.064 N 
HETATM   29  H   UNL     1     -44.077  63.384 -45.627  1.00  0.00     0.280 HD
HETATM   30  C   UNL     1     -45.124  64.256 -47.203  1.00  0.00     0.255 C 
HETATM   31  C   UNL     1     -44.431  63.480 -48.340  1.00  0.00     0.150 C 
BRANCH  28  32
HETATM   32  C   UNL     1     -45.751  64.205 -44.755  1.00  0.00     0.276 C 
BRANCH  32  33
HETATM   33  C   UNL     1     -45.048  64.075 -43.437  1.00  0.00     0.006 A 
HETATM   34  C   UNL     1     -45.770  64.226 -42.250  1.00  0.00     0.124 A 
HETATM   35  F   UNL     1     -47.092  64.443 -42.319  1.00  0.00    -0.206 F 
HETATM   36  C   UNL     1     -45.160  64.118 -41.006  1.00  0.00     0.043 A 
HETATM   37  C   UNL     1     -43.793  63.854 -40.938  1.00  0.00     0.003 A 
HETATM   38  C   UNL     1     -43.053  63.701 -42.111  1.00  0.00     0.001 A 
HETATM   39  C   UNL     1     -43.674  63.814 -43.358  1.00  0.00     0.012 A 
ENDBRANCH  32  33
ENDBRANCH  28  32
ENDBRANCH   4  25
TORSDOF 10
ENDMDL
MODEL 10
REMARK VINA RESULT:      -7.8      4.146      6.594
REMARK  10 active torsions:
REMARK  status: ('A' for Active; 'I' for Inactive)
REMARK    1  A    between atoms: C_2  and  C_3 
REMARK    2  A    between atoms: C_3  and  O_4 
REMARK    3  A    between atoms: O_4  and  C_5 
REMARK    4  A    between atoms: C_7  and  C_8 
REMARK       I    between atoms: C_8  and  N_9 
REMARK    5  A    between atoms: N_9  and  C_10 
REMARK    6  A    between atoms: C_10  and  N_11 
REMARK    7  A    between atoms: N_11  and  C_12 
REMARK    8  A    between atoms: C_15  and  N_16 
REMARK    9  A    between atoms: N_19  and  C_21 
REMARK   10  A    between atoms: C_21  and  C_22 
ROOT
HETATM    1  C   UNL     1     -45.881  59.830 -52.018  1.00  0.00     0.034 A 
HETATM    2  C   UNL     1     -45.477  58.900 -51.061  1.00  0.00     0.032 A 
HETATM    3  C   UNL     1     -44.626  57.844 -51.412  1.00  0.00     0.031 A 
HETATM    4  C   UNL     1     -44.177  57.659 -52.728  1.00  0.00     0.030 A 
HETATM    5  C   UNL     1     -44.636  58.579 -53.683  1.00  0.00     0.031 A 
HETATM    6  C   UNL     1     -45.480  59.647 -53.337  1.00  0.00     0.032 A 
ENDROOT
BRANCH   1   7
HETATM    7  N   UNL     1     -46.732  60.869 -51.594  1.00  0.00    -0.333 N 
HETATM    8  H   UNL     1     -47.397  60.606 -50.874  1.00  0.00     0.168 HD
BRANCH   7   9
HETATM    9  C   UNL     1     -47.004  62.060 -52.171  1.00  0.00     0.179 C 
HETATM   10  S   UNL     1     -45.770  63.181 -52.330  1.00  0.00    -0.040 SA
BRANCH   9  11
HETATM   11  N   UNL     1     -48.216  62.370 -52.713  1.00  0.00    -0.299 N 
HETATM   12  C   UNL     1     -49.285  63.043 -52.124  1.00  0.00     0.257 C 
HETATM   13  O   UNL     1     -49.235  63.901 -51.253  1.00  0.00    -0.267 OA
HETATM   14  H   UNL     1     -48.471  61.703 -53.430  1.00  0.00     0.171 HD
BRANCH  12  15
HETATM   15  C   UNL     1     -50.611  62.717 -52.709  1.00  0.00     0.035 A 
HETATM   16  C   UNL     1     -50.735  61.782 -53.746  1.00  0.00     0.053 A 
HETATM   17  C   UNL     1     -52.001  61.494 -54.256  1.00  0.00     0.069 A 
HETATM   18  C   UNL     1     -53.126  62.157 -53.764  1.00  0.00     0.037 A 
HETATM   19  C   UNL     1     -53.004  63.068 -52.715  1.00  0.00     0.004 A 
HETATM   20  C   UNL     1     -51.747  63.341 -52.178  1.00  0.00     0.017 A 
BRANCH  17  21
HETATM   21  O   UNL     1     -52.220  60.609 -55.274  1.00  0.00    -0.351 OA
BRANCH  21  22
HETATM   22  C   UNL     1     -51.229  60.653 -56.307  1.00  0.00     0.175 C 
BRANCH  22  23
HETATM   23  C   UNL     1     -51.929  61.056 -57.603  1.00  0.00     0.022 C 
HETATM   24  C   UNL     1     -51.611  62.487 -57.996  1.00  0.00     0.007 C 
ENDBRANCH  22  23
ENDBRANCH  21  22
ENDBRANCH  17  21
ENDBRANCH  12  15
ENDBRANCH   9  11
ENDBRANCH   7   9
ENDBRANCH   1   7
BRANCH   4  25
HETATM   25  N   UNL     1     -43.265  56.639 -53.020  1.00  0.00    -0.378 N 
HETATM   26  C   UNL     1     -42.560  56.040 -51.871  1.00  0.00     0.150 C 
HETATM   27  C   UNL     1     -41.250  55.377 -52.349  1.00  0.00     0.255 C 
HETATM   28  N   UNL     1     -41.514  54.377 -53.471  1.00  0.00    -0.064 N 
HETATM   29  H   UNL     1     -42.104  53.629 -53.081  1.00  0.00     0.280 HD
HETATM   30  C   UNL     1     -42.291  55.026 -54.616  1.00  0.00     0.255 C 
HETATM   31  C   UNL     1     -43.582  55.695 -54.104  1.00  0.00     0.150 C 
BRANCH  28  32
HETATM   32  C   UNL     1     -40.235  53.723 -53.937  1.00  0.00     0.276 C 
BRANCH  32  33
HETATM   33  C   UNL     1     -40.077  52.302 -53.484  1.00  0.00     0.006 A 
HETATM   34  C   UNL     1     -39.648  52.035 -52.180  1.00  0.00     0.124 A 
HETATM   35  F   UNL     1     -39.428  53.063 -51.348  1.00  0.00    -0.206 F 
HETATM   36  C   UNL     1     -39.484  50.735 -51.718  1.00  0.00     0.043 A 
HETATM   37  C   UNL     1     -39.753  49.668 -52.575  1.00  0.00     0.003 A 
HETATM   38  C   UNL     1     -40.180  49.913 -53.880  1.00  0.00     0.001 A 
HETATM   39  C   UNL     1     -40.340  51.223 -54.338  1.00  0.00     0.012 A 
ENDBRANCH  32  33
ENDBRANCH  28  32
ENDBRANCH   4  25
TORSDOF 10
ENDMDL
