MODEL 1
REMARK VINA RESULT:      -7.5      0.000      0.000
REMARK  9 active torsions:
REMARK  status: ('A' for Active; 'I' for Inactive)
REMARK    1  A    between atoms: C_2  and  N_3 
REMARK    2  A    between atoms: N_3  and  C_5 
REMARK    3  A    between atoms: N_3  and  C_29 
REMARK    4  A    between atoms: C_5  and  C_6 
REMARK    5  A    between atoms: C_6  and  O_7 
REMARK    6  A    between atoms: O_7  and  C_8 
REMARK    7  A    between atoms: C_9  and  C_10 
REMARK    8  A    between atoms: C_10  and  N_11 
REMARK       I    between atoms: N_11  and  C_12 
REMARK    9  A    between atoms: C_12  and  C_13 
ROOT
HETATM    1  N   UNL     1     -41.094  53.610 -54.220  1.00  0.00    -0.352 N 
HETATM    2  C   UNL     1     -40.950  54.914 -54.667  1.00  0.00     0.254 C 
HETATM    3  O   UNL     1     -39.885  55.410 -55.010  1.00  0.00    -0.268 OA
HETATM    4  H   UNL     1     -42.009  53.211 -54.384  1.00  0.00     0.163 HD
ENDROOT
BRANCH   1   5
HETATM    5  C   UNL     1     -39.993  52.666 -54.295  1.00  0.00     0.164 C 
BRANCH   5   6
HETATM    6  C   UNL     1     -39.884  51.715 -53.129  1.00  0.00    -0.007 A 
HETATM    7  C   UNL     1     -39.963  52.126 -51.786  1.00  0.00     0.076 A 
HETATM    8  C   UNL     1     -39.893  51.161 -50.768  1.00  0.00     0.037 A 
HETATM    9  C   UNL     1     -39.727  49.808 -51.072  1.00  0.00     0.003 A 
HETATM   10  C   UNL     1     -39.625  49.400 -52.394  1.00  0.00     0.001 A 
HETATM   11  C   UNL     1     -39.705  50.346 -53.412  1.00  0.00     0.011 A 
BRANCH   7  12
HETATM   12  O   UNL     1     -40.131  53.473 -51.554  1.00  0.00    -0.349 OA
BRANCH  12  13
HETATM   13  C   UNL     1     -39.637  53.959 -50.302  1.00  0.00     0.203 C 
BRANCH  13  14
HETATM   14  C   UNL     1     -40.772  54.611 -49.503  1.00  0.00     0.261 C 
BRANCH  14  15
HETATM   15  N   UNL     1     -41.829  55.321 -50.353  1.00  0.00    -0.070 N 
HETATM   16  H   UNL     1     -41.558  55.130 -51.327  1.00  0.00     0.279 HD
BRANCH  15  17
HETATM   17  C   UNL     1     -41.855  56.836 -50.227  1.00  0.00     0.230 C 
HETATM   18  C   UNL     1     -40.687  57.483 -50.950  1.00  0.00     0.034 C 
ENDBRANCH  15  17
BRANCH  15  19
HETATM   19  C   UNL     1     -43.241  54.770 -50.218  1.00  0.00     0.230 C 
HETATM   20  C   UNL     1     -43.582  53.818 -51.349  1.00  0.00     0.034 C 
ENDBRANCH  15  19
ENDBRANCH  14  15
ENDBRANCH  13  14
ENDBRANCH  12  13
ENDBRANCH   7  12
ENDBRANCH   5   6
ENDBRANCH   1   5
BRANCH   2  21
HETATM   21  C   UNL     1     -42.201  55.704 -54.794  1.00  0.00     0.064 A 
HETATM   22  C   UNL     1     -42.742  56.093 -56.005  1.00  0.00     0.077 A 
HETATM   23  C   UNL     1     -43.875  56.909 -56.079  1.00  0.00     0.065 A 
HETATM   24  N   UNL     1     -42.358  55.789 -57.315  1.00  0.00    -0.330 N 
HETATM   25  N   UNL     1     -44.161  57.133 -57.427  1.00  0.00    -0.331 N 
HETATM   26  C   UNL     1     -44.538  57.348 -54.959  1.00  0.00     0.074 A 
HETATM   27  C   UNL     1     -43.235  56.424 -58.198  1.00  0.00     0.176 A 
HETATM   28  H   UNL     1     -44.932  57.678 -57.791  1.00  0.00     0.168 HD
HETATM   29  S   UNL     1     -43.167  56.321 -59.841  1.00  0.00    -0.041 SA
HETATM   30  C   UNL     1     -44.025  56.925 -53.733  1.00  0.00     0.119 A 
HETATM   31  F   UNL     1     -44.643  57.306 -52.607  1.00  0.00    -0.206 F 
HETATM   32  C   UNL     1     -42.878  56.118 -53.638  1.00  0.00     0.061 A 
HETATM   33  H   UNL     1     -41.643  55.127 -57.573  1.00  0.00     0.168 HD
ENDBRANCH   2  21
TORSDOF 9
ENDMDL
MODEL 2
REMARK VINA RESULT:      -7.4      3.352      6.902
REMARK  9 active torsions:
REMARK  status: ('A' for Active; 'I' for Inactive)
REMARK    1  A    between atoms: C_2  and  N_3 
REMARK    2  A    between atoms: N_3  and  C_5 
REMARK    3  A    between atoms: N_3  and  C_29 
REMARK    4  A    between atoms: C_5  and  C_6 
REMARK    5  A    between atoms: C_6  and  O_7 
REMARK    6  A    between atoms: O_7  and  C_8 
REMARK    7  A    between atoms: C_9  and  C_10 
REMARK    8  A    between atoms: C_10  and  N_11 
REMARK       I    between atoms: N_11  and  C_12 
REMARK    9  A    between atoms: C_12  and  C_13 
ROOT
HETATM    1  N   UNL     1     -42.244  54.398 -55.706  1.00  0.00    -0.352 N 
HETATM    2  C   UNL     1     -42.458  54.121 -54.364  1.00  0.00     0.254 C 
HETATM    3  O   UNL     1     -43.424  54.515 -53.727  1.00  0.00    -0.268 OA
HETATM    4  H   UNL     1     -41.697  53.701 -56.194  1.00  0.00     0.163 HD
ENDROOT
BRANCH   1   5
HETATM    5  C   UNL     1     -43.265  55.045 -56.509  1.00  0.00     0.164 C 
BRANCH   5   6
HETATM    6  C   UNL     1     -42.839  56.332 -57.172  1.00  0.00    -0.007 A 
HETATM    7  C   UNL     1     -42.552  57.511 -56.459  1.00  0.00     0.076 A 
HETATM    8  C   UNL     1     -42.121  58.648 -57.160  1.00  0.00     0.037 A 
HETATM    9  C   UNL     1     -41.993  58.630 -58.550  1.00  0.00     0.003 A 
HETATM   10  C   UNL     1     -42.297  57.477 -59.260  1.00  0.00     0.001 A 
HETATM   11  C   UNL     1     -42.714  56.339 -58.575  1.00  0.00     0.011 A 
BRANCH   7  12
HETATM   12  O   UNL     1     -42.693  57.462 -55.090  1.00  0.00    -0.349 OA
BRANCH  12  13
HETATM   13  C   UNL     1     -41.804  58.295 -54.340  1.00  0.00     0.203 C 
BRANCH  13  14
HETATM   14  C   UNL     1     -41.044  57.459 -53.302  1.00  0.00     0.261 C 
BRANCH  14  15
HETATM   15  N   UNL     1     -41.630  57.505 -51.888  1.00  0.00    -0.070 N 
HETATM   16  H   UNL     1     -41.796  56.520 -51.639  1.00  0.00     0.279 HD
BRANCH  15  17
HETATM   17  C   UNL     1     -42.983  58.189 -51.767  1.00  0.00     0.230 C 
HETATM   18  C   UNL     1     -44.090  57.200 -51.452  1.00  0.00     0.034 C 
ENDBRANCH  15  17
BRANCH  15  19
HETATM   19  C   UNL     1     -40.688  58.033 -50.818  1.00  0.00     0.230 C 
HETATM   20  C   UNL     1     -40.914  59.510 -50.550  1.00  0.00     0.034 C 
ENDBRANCH  15  19
ENDBRANCH  14  15
ENDBRANCH  13  14
ENDBRANCH  12  13
ENDBRANCH   7  12
ENDBRANCH   5   6
ENDBRANCH   1   5
BRANCH   2  21
HETATM   21  C   UNL     1     -41.468  53.224 -53.716  1.00  0.00     0.064 A 
HETATM   22  C   UNL     1     -41.055  53.359 -52.405  1.00  0.00     0.077 A 
HETATM   23  C   UNL     1     -40.057  52.547 -51.858  1.00  0.00     0.065 A 
HETATM   24  N   UNL     1     -41.490  54.224 -51.395  1.00  0.00    -0.330 N 
HETATM   25  N   UNL     1     -39.858  52.937 -50.532  1.00  0.00    -0.331 N 
HETATM   26  C   UNL     1     -39.449  51.546 -52.576  1.00  0.00     0.074 A 
HETATM   27  C   UNL     1     -40.759  53.964 -50.234  1.00  0.00     0.176 A 
HETATM   28  H   UNL     1     -39.206  52.521 -49.879  1.00  0.00     0.168 HD
HETATM   29  S   UNL     1     -40.960  54.736 -48.793  1.00  0.00    -0.041 SA
HETATM   30  C   UNL     1     -39.890  51.373 -53.888  1.00  0.00     0.119 A 
HETATM   31  F   UNL     1     -39.347  50.399 -54.630  1.00  0.00    -0.206 F 
HETATM   32  C   UNL     1     -40.881  52.190 -54.460  1.00  0.00     0.061 A 
HETATM   33  H   UNL     1     -42.281  54.846 -51.464  1.00  0.00     0.168 HD
ENDBRANCH   2  21
TORSDOF 9
ENDMDL
MODEL 3
REMARK VINA RESULT:      -7.3      2.658      3.660
REMARK  9 active torsions:
REMARK  status: ('A' for Active; 'I' for Inactive)
REMARK    1  A    between atoms: C_2  and  N_3 
REMARK    2  A    between atoms: N_3  and  C_5 
REMARK    3  A    between atoms: N_3  and  C_29 
REMARK    4  A    between atoms: C_5  and  C_6 
REMARK    5  A    between atoms: C_6  and  O_7 
REMARK    6  A    between atoms: O_7  and  C_8 
REMARK    7  A    between atoms: C_9  and  C_10 
REMARK    8  A    between atoms: C_10  and  N_11 
REMARK       I    between atoms: N_11  and  C_12 
REMARK    9  A    between atoms: C_12  and  C_13 
ROOT
HETATM    1  N   UNL     1     -43.456  55.256 -55.070  1.00  0.00    -0.352 N 
HETATM    2  C   UNL     1     -42.799  56.369 -55.573  1.00  0.00     0.254 C 
HETATM    3  O   UNL     1     -42.149  57.149 -54.892  1.00  0.00    -0.268 OA
HETATM    4  H   UNL     1     -43.570  54.503 -55.735  1.00  0.00     0.163 HD
ENDROOT
BRANCH   1   5
HETATM    5  C   UNL     1     -43.267  54.834 -53.694  1.00  0.00     0.164 C 
BRANCH   5   6
HETATM    6  C   UNL     1     -42.098  53.908 -53.463  1.00  0.00    -0.007 A 
HETATM    7  C   UNL     1     -41.441  53.787 -52.224  1.00  0.00     0.076 A 
HETATM    8  C   UNL     1     -40.389  52.867 -52.093  1.00  0.00     0.037 A 
HETATM    9  C   UNL     1     -39.976  52.089 -53.177  1.00  0.00     0.003 A 
HETATM   10  C   UNL     1     -40.605  52.221 -54.407  1.00  0.00     0.001 A 
HETATM   11  C   UNL     1     -41.657  53.122 -54.546  1.00  0.00     0.011 A 
BRANCH   7  12
HETATM   12  O   UNL     1     -41.899  54.578 -51.194  1.00  0.00    -0.349 OA
BRANCH  12  13
HETATM   13  C   UNL     1     -40.986  55.568 -50.712  1.00  0.00     0.203 C 
BRANCH  13  14
HETATM   14  C   UNL     1     -41.723  56.890 -50.461  1.00  0.00     0.261 C 
BRANCH  14  15
HETATM   15  N   UNL     1     -41.982  57.728 -51.716  1.00  0.00    -0.070 N 
HETATM   16  H   UNL     1     -41.919  57.061 -52.497  1.00  0.00     0.279 HD
BRANCH  15  17
HETATM   17  C   UNL     1     -40.943  58.798 -52.010  1.00  0.00     0.230 C 
HETATM   18  C   UNL     1     -40.310  59.335 -50.739  1.00  0.00     0.034 C 
ENDBRANCH  15  17
BRANCH  15  19
HETATM   19  C   UNL     1     -43.377  58.325 -51.815  1.00  0.00     0.230 C 
HETATM   20  C   UNL     1     -44.431  57.386 -51.256  1.00  0.00     0.034 C 
ENDBRANCH  15  19
ENDBRANCH  14  15
ENDBRANCH  13  14
ENDBRANCH  12  13
ENDBRANCH   7  12
ENDBRANCH   5   6
ENDBRANCH   1   5
BRANCH   2  21
HETATM   21  C   UNL     1     -42.852  56.548 -57.046  1.00  0.00     0.064 A 
HETATM   22  C   UNL     1     -42.553  57.736 -57.684  1.00  0.00     0.077 A 
HETATM   23  C   UNL     1     -42.698  57.889 -59.067  1.00  0.00     0.065 A 
HETATM   24  N   UNL     1     -42.064  58.946 -57.179  1.00  0.00    -0.330 N 
HETATM   25  N   UNL     1     -42.333  59.195 -59.400  1.00  0.00    -0.331 N 
HETATM   26  C   UNL     1     -43.112  56.862 -59.879  1.00  0.00     0.074 A 
HETATM   27  C   UNL     1     -41.920  59.848 -58.235  1.00  0.00     0.176 A 
HETATM   28  H   UNL     1     -42.324  59.592 -60.330  1.00  0.00     0.168 HD
HETATM   29  S   UNL     1     -41.351  61.388 -58.097  1.00  0.00    -0.041 SA
HETATM   30  C   UNL     1     -43.376  55.645 -59.249  1.00  0.00     0.119 A 
HETATM   31  F   UNL     1     -43.766  54.602 -59.994  1.00  0.00    -0.206 F 
HETATM   32  C   UNL     1     -43.252  55.478 -57.859  1.00  0.00     0.061 A 
HETATM   33  H   UNL     1     -41.755  59.098 -56.231  1.00  0.00     0.168 HD
ENDBRANCH   2  21
TORSDOF 9
ENDMDL
MODEL 4
REMARK VINA RESULT:      -7.2      2.383      3.348
REMARK  9 active torsions:
REMARK  status: ('A' for Active; 'I' for Inactive)
REMARK    1  A    between atoms: C_2  and  N_3 
REMARK    2  A    between atoms: N_3  and  C_5 
REMARK    3  A    between atoms: N_3  and  C_29 
REMARK    4  A    between atoms: C_5  and  C_6 
REMARK    5  A    between atoms: C_6  and  O_7 
REMARK    6  A    between atoms: O_7  and  C_8 
REMARK    7  A    between atoms: C_9  and  C_10 
REMARK    8  A    between atoms: C_10  and  N_11 
REMARK       I    between atoms: N_11  and  C_12 
REMARK    9  A    between atoms: C_12  and  C_13 
ROOT
HETATM    1  N   UNL     1     -41.736  55.215 -55.002  1.00  0.00    -0.352 N 
HETATM    2  C   UNL     1     -42.108  56.477 -55.440  1.00  0.00     0.254 C 
HETATM    3  O   UNL     1     -42.064  57.485 -54.749  1.00  0.00    -0.268 OA
HETATM    4  H   UNL     1     -41.413  54.598 -55.735  1.00  0.00     0.163 HD
ENDROOT
BRANCH   1   5
HETATM    5  C   UNL     1     -41.088  55.030 -53.716  1.00  0.00     0.164 C 
BRANCH   5   6
HETATM    6  C   UNL     1     -40.590  53.631 -53.445  1.00  0.00    -0.007 A 
HETATM    7  C   UNL     1     -40.133  53.204 -52.185  1.00  0.00     0.076 A 
HETATM    8  C   UNL     1     -39.729  51.870 -52.018  1.00  0.00     0.037 A 
HETATM    9  C   UNL     1     -39.756  50.972 -53.088  1.00  0.00     0.003 A 
HETATM   10  C   UNL     1     -40.183  51.395 -54.338  1.00  0.00     0.001 A 
HETATM   11  C   UNL     1     -40.598  52.712 -54.513  1.00  0.00     0.011 A 
BRANCH   7  12
HETATM   12  O   UNL     1     -40.137  54.136 -51.171  1.00  0.00    -0.349 OA
BRANCH  12  13
HETATM   13  C   UNL     1     -41.243  54.071 -50.265  1.00  0.00     0.203 C 
BRANCH  13  14
HETATM   14  C   UNL     1     -41.346  55.374 -49.462  1.00  0.00     0.261 C 
BRANCH  14  15
HETATM   15  N   UNL     1     -42.126  56.494 -50.156  1.00  0.00    -0.070 N 
HETATM   16  H   UNL     1     -42.487  57.079 -49.390  1.00  0.00     0.279 HD
BRANCH  15  17
HETATM   17  C   UNL     1     -43.350  56.047 -50.939  1.00  0.00     0.230 C 
HETATM   18  C   UNL     1     -44.290  57.203 -51.228  1.00  0.00     0.034 C 
ENDBRANCH  15  17
BRANCH  15  19
HETATM   19  C   UNL     1     -41.284  57.432 -51.009  1.00  0.00     0.230 C 
HETATM   20  C   UNL     1     -40.991  58.734 -50.288  1.00  0.00     0.034 C 
ENDBRANCH  15  19
ENDBRANCH  14  15
ENDBRANCH  13  14
ENDBRANCH  12  13
ENDBRANCH   7  12
ENDBRANCH   5   6
ENDBRANCH   1   5
BRANCH   2  21
HETATM   21  C   UNL     1     -42.508  56.582 -56.866  1.00  0.00     0.064 A 
HETATM   22  C   UNL     1     -42.400  57.742 -57.609  1.00  0.00     0.077 A 
HETATM   23  C   UNL     1     -42.868  57.824 -58.924  1.00  0.00     0.065 A 
HETATM   24  N   UNL     1     -41.838  58.982 -57.287  1.00  0.00    -0.330 N 
HETATM   25  N   UNL     1     -42.627  59.117 -59.392  1.00  0.00    -0.331 N 
HETATM   26  C   UNL     1     -43.434  56.751 -59.569  1.00  0.00     0.074 A 
HETATM   27  C   UNL     1     -41.970  59.834 -58.387  1.00  0.00     0.176 A 
HETATM   28  H   UNL     1     -42.847  59.468 -60.314  1.00  0.00     0.168 HD
HETATM   29  S   UNL     1     -41.426  61.387 -58.455  1.00  0.00    -0.041 SA
HETATM   30  C   UNL     1     -43.510  55.563 -58.842  1.00  0.00     0.119 A 
HETATM   31  F   UNL     1     -44.035  54.479 -59.427  1.00  0.00    -0.206 F 
HETATM   32  C   UNL     1     -43.059  55.467 -57.514  1.00  0.00     0.061 A 
HETATM   33  H   UNL     1     -41.320  59.186 -56.447  1.00  0.00     0.168 HD
ENDBRANCH   2  21
TORSDOF 9
ENDMDL
MODEL 5
REMARK VINA RESULT:      -7.2      2.605      3.832
REMARK  9 active torsions:
REMARK  status: ('A' for Active; 'I' for Inactive)
REMARK    1  A    between atoms: C_2  and  N_3 
REMARK    2  A    between atoms: N_3  and  C_5 
REMARK    3  A    between atoms: N_3  and  C_29 
REMARK    4  A    between atoms: C_5  and  C_6 
REMARK    5  A    between atoms: C_6  and  O_7 
REMARK    6  A    between atoms: O_7  and  C_8 
REMARK    7  A    between atoms: C_9  and  C_10 
REMARK    8  A    between atoms: C_10  and  N_11 
REMARK       I    between atoms: N_11  and  C_12 
REMARK    9  A    between atoms: C_12  and  C_13 
ROOT
HETATM    1  N   UNL     1     -43.495  55.489 -55.564  1.00  0.00    -0.352 N 
HETATM    2  C   UNL     1     -43.770  56.846 -55.642  1.00  0.00     0.254 C 
HETATM    3  O   UNL     1     -44.333  57.486 -54.764  1.00  0.00    -0.268 OA
HETATM    4  H   UNL     1     -42.693  55.194 -56.104  1.00  0.00     0.163 HD
ENDROOT
BRANCH   1   5
HETATM    5  C   UNL     1     -43.705  54.753 -54.330  1.00  0.00     0.164 C 
BRANCH   5   6
HETATM    6  C   UNL     1     -42.469  54.113 -53.747  1.00  0.00    -0.007 A 
HETATM    7  C   UNL     1     -42.279  53.913 -52.368  1.00  0.00     0.076 A 
HETATM    8  C   UNL     1     -41.114  53.269 -51.922  1.00  0.00     0.037 A 
HETATM    9  C   UNL     1     -40.137  52.845 -52.826  1.00  0.00     0.003 A 
HETATM   10  C   UNL     1     -40.308  53.062 -54.186  1.00  0.00     0.001 A 
HETATM   11  C   UNL     1     -41.465  53.688 -54.641  1.00  0.00     0.011 A 
BRANCH   7  12
HETATM   12  O   UNL     1     -43.281  54.348 -51.530  1.00  0.00    -0.349 OA
BRANCH  12  13
HETATM   13  C   UNL     1     -42.971  55.487 -50.721  1.00  0.00     0.203 C 
BRANCH  13  14
HETATM   14  C   UNL     1     -43.776  56.705 -51.190  1.00  0.00     0.261 C 
BRANCH  14  15
HETATM   15  N   UNL     1     -42.967  57.748 -51.967  1.00  0.00    -0.070 N 
HETATM   16  H   UNL     1     -43.279  57.653 -52.943  1.00  0.00     0.279 HD
BRANCH  15  17
HETATM   17  C   UNL     1     -41.465  57.517 -51.995  1.00  0.00     0.230 C 
HETATM   18  C   UNL     1     -40.934  57.422 -53.413  1.00  0.00     0.034 C 
ENDBRANCH  15  17
BRANCH  15  19
HETATM   19  C   UNL     1     -43.259  59.195 -51.597  1.00  0.00     0.230 C 
HETATM   20  C   UNL     1     -44.677  59.592 -51.962  1.00  0.00     0.034 C 
ENDBRANCH  15  19
ENDBRANCH  14  15
ENDBRANCH  13  14
ENDBRANCH  12  13
ENDBRANCH   7  12
ENDBRANCH   5   6
ENDBRANCH   1   5
BRANCH   2  21
HETATM   21  C   UNL     1     -43.268  57.545 -56.852  1.00  0.00     0.064 A 
HETATM   22  C   UNL     1     -43.522  57.123 -58.143  1.00  0.00     0.077 A 
HETATM   23  C   UNL     1     -42.959  57.760 -59.253  1.00  0.00     0.065 A 
HETATM   24  N   UNL     1     -44.332  56.087 -58.621  1.00  0.00    -0.330 N 
HETATM   25  N   UNL     1     -43.394  57.095 -60.402  1.00  0.00    -0.331 N 
HETATM   26  C   UNL     1     -42.147  58.861 -59.134  1.00  0.00     0.074 A 
HETATM   27  C   UNL     1     -44.261  56.069 -60.016  1.00  0.00     0.176 A 
HETATM   28  H   UNL     1     -43.159  57.338 -61.355  1.00  0.00     0.168 HD
HETATM   29  S   UNL     1     -45.077  55.024 -60.994  1.00  0.00    -0.041 SA
HETATM   30  C   UNL     1     -41.918  59.322 -57.837  1.00  0.00     0.119 A 
HETATM   31  F   UNL     1     -41.149  60.404 -57.661  1.00  0.00    -0.206 F 
HETATM   32  C   UNL     1     -42.463  58.684 -56.708  1.00  0.00     0.061 A 
HETATM   33  H   UNL     1     -44.953  55.527 -58.058  1.00  0.00     0.168 HD
ENDBRANCH   2  21
TORSDOF 9
ENDMDL
MODEL 6
REMARK VINA RESULT:      -7.1      3.114      5.452
REMARK  9 active torsions:
REMARK  status: ('A' for Active; 'I' for Inactive)
REMARK    1  A    between atoms: C_2  and  N_3 
REMARK    2  A    between atoms: N_3  and  C_5 
REMARK    3  A    between atoms: N_3  and  C_29 
REMARK    4  A    between atoms: C_5  and  C_6 
REMARK    5  A    between atoms: C_6  and  O_7 
REMARK    6  A    between atoms: O_7  and  C_8 
REMARK    7  A    between atoms: C_9  and  C_10 
REMARK    8  A    between atoms: C_10  and  N_11 
REMARK       I    between atoms: N_11  and  C_12 
REMARK    9  A    between atoms: C_12  and  C_13 
ROOT
HETATM    1  N   UNL     1     -41.069  55.373 -50.915  1.00  0.00    -0.352 N 
HETATM    2  C   UNL     1     -42.151  56.230 -50.785  1.00  0.00     0.254 C 
HETATM    3  O   UNL     1     -43.309  55.860 -50.654  1.00  0.00    -0.268 OA
HETATM    4  H   UNL     1     -40.192  55.756 -50.588  1.00  0.00     0.163 HD
ENDROOT
BRANCH   1   5
HETATM    5  C   UNL     1     -41.220  53.942 -50.722  1.00  0.00     0.164 C 
BRANCH   5   6
HETATM    6  C   UNL     1     -40.639  53.083 -51.819  1.00  0.00    -0.007 A 
HETATM    7  C   UNL     1     -40.814  53.354 -53.188  1.00  0.00     0.076 A 
HETATM    8  C   UNL     1     -40.199  52.522 -54.136  1.00  0.00     0.037 A 
HETATM    9  C   UNL     1     -39.436  51.421 -53.738  1.00  0.00     0.003 A 
HETATM   10  C   UNL     1     -39.280  51.136 -52.390  1.00  0.00     0.001 A 
HETATM   11  C   UNL     1     -39.875  51.961 -51.440  1.00  0.00     0.011 A 
BRANCH   7  12
HETATM   12  O   UNL     1     -41.573  54.456 -53.514  1.00  0.00    -0.349 OA
BRANCH  12  13
HETATM   13  C   UNL     1     -42.917  54.191 -53.926  1.00  0.00     0.203 C 
BRANCH  13  14
HETATM   14  C   UNL     1     -43.103  54.567 -55.401  1.00  0.00     0.261 C 
BRANCH  14  15
HETATM   15  N   UNL     1     -43.793  55.913 -55.638  1.00  0.00    -0.070 N 
HETATM   16  H   UNL     1     -44.769  55.674 -55.864  1.00  0.00     0.279 HD
BRANCH  15  17
HETATM   17  C   UNL     1     -43.282  56.706 -56.829  1.00  0.00     0.230 C 
HETATM   18  C   UNL     1     -43.122  55.835 -58.061  1.00  0.00     0.034 C 
ENDBRANCH  15  17
BRANCH  15  19
HETATM   19  C   UNL     1     -43.878  56.816 -54.416  1.00  0.00     0.230 C 
HETATM   20  C   UNL     1     -43.067  58.085 -54.599  1.00  0.00     0.034 C 
ENDBRANCH  15  19
ENDBRANCH  14  15
ENDBRANCH  13  14
ENDBRANCH  12  13
ENDBRANCH   7  12
ENDBRANCH   5   6
ENDBRANCH   1   5
BRANCH   2  21
HETATM   21  C   UNL     1     -41.834  57.679 -50.734  1.00  0.00     0.064 A 
HETATM   22  C   UNL     1     -42.767  58.676 -50.945  1.00  0.00     0.077 A 
HETATM   23  C   UNL     1     -42.411  60.028 -50.973  1.00  0.00     0.065 A 
HETATM   24  N   UNL     1     -44.151  58.605 -51.138  1.00  0.00    -0.330 N 
HETATM   25  N   UNL     1     -43.564  60.776 -51.217  1.00  0.00    -0.331 N 
HETATM   26  C   UNL     1     -41.121  60.452 -50.761  1.00  0.00     0.074 A 
HETATM   27  C   UNL     1     -44.649  59.899 -51.301  1.00  0.00     0.176 A 
HETATM   28  H   UNL     1     -43.618  61.785 -51.280  1.00  0.00     0.168 HD
HETATM   29  S   UNL     1     -46.234  60.284 -51.532  1.00  0.00    -0.041 SA
HETATM   30  C   UNL     1     -40.179  59.456 -50.505  1.00  0.00     0.119 A 
HETATM   31  F   UNL     1     -38.909  59.811 -50.273  1.00  0.00    -0.206 F 
HETATM   32  C   UNL     1     -40.516  58.091 -50.489  1.00  0.00     0.061 A 
HETATM   33  H   UNL     1     -44.707  57.768 -51.053  1.00  0.00     0.168 HD
ENDBRANCH   2  21
TORSDOF 9
ENDMDL
MODEL 7
REMARK VINA RESULT:      -6.9      3.341      7.724
REMARK  9 active torsions:
REMARK  status: ('A' for Active; 'I' for Inactive)
REMARK    1  A    between atoms: C_2  and  N_3 
REMARK    2  A    between atoms: N_3  and  C_5 
REMARK    3  A    between atoms: N_3  and  C_29 
REMARK    4  A    between atoms: C_5  and  C_6 
REMARK    5  A    between atoms: C_6  and  O_7 
REMARK    6  A    between atoms: O_7  and  C_8 
REMARK    7  A    between atoms: C_9  and  C_10 
REMARK    8  A    between atoms: C_10  and  N_11 
REMARK       I    between atoms: N_11  and  C_12 
REMARK    9  A    between atoms: C_12  and  C_13 
ROOT
HETATM    1  N   UNL     1     -42.786  54.409 -54.356  1.00  0.00    -0.352 N 
HETATM    2  C   UNL     1     -41.427  54.204 -54.541  1.00  0.00     0.254 C 
HETATM    3  O   UNL     1     -40.713  54.916 -55.235  1.00  0.00    -0.268 OA
HETATM    4  H   UNL     1     -43.145  54.057 -53.479  1.00  0.00     0.163 HD
ENDROOT
BRANCH   1   5
HETATM    5  C   UNL     1     -43.435  55.612 -54.844  1.00  0.00     0.164 C 
BRANCH   5   6
HETATM    6  C   UNL     1     -43.115  56.870 -54.074  1.00  0.00    -0.007 A 
HETATM    7  C   UNL     1     -42.476  57.985 -54.647  1.00  0.00     0.076 A 
HETATM    8  C   UNL     1     -42.258  59.129 -53.863  1.00  0.00     0.037 A 
HETATM    9  C   UNL     1     -42.648  59.164 -52.522  1.00  0.00     0.003 A 
HETATM   10  C   UNL     1     -43.256  58.059 -51.945  1.00  0.00     0.001 A 
HETATM   11  C   UNL     1     -43.489  56.924 -52.717  1.00  0.00     0.011 A 
BRANCH   7  12
HETATM   12  O   UNL     1     -42.123  57.889 -55.974  1.00  0.00    -0.349 OA
BRANCH  12  13
HETATM   13  C   UNL     1     -42.672  58.884 -56.843  1.00  0.00     0.203 C 
BRANCH  13  14
HETATM   14  C   UNL     1     -43.293  58.223 -58.080  1.00  0.00     0.261 C 
BRANCH  14  15
HETATM   15  N   UNL     1     -42.474  57.073 -58.671  1.00  0.00    -0.070 N 
HETATM   16  H   UNL     1     -41.628  57.022 -58.087  1.00  0.00     0.279 HD
BRANCH  15  17
HETATM   17  C   UNL     1     -41.975  57.292 -60.091  1.00  0.00     0.230 C 
HETATM   18  C   UNL     1     -42.005  58.758 -60.480  1.00  0.00     0.034 C 
ENDBRANCH  15  17
BRANCH  15  19
HETATM   19  C   UNL     1     -43.118  55.700 -58.558  1.00  0.00     0.230 C 
HETATM   20  C   UNL     1     -43.829  55.306 -59.840  1.00  0.00     0.034 C 
ENDBRANCH  15  19
ENDBRANCH  14  15
ENDBRANCH  13  14
ENDBRANCH  12  13
ENDBRANCH   7  12
ENDBRANCH   5   6
ENDBRANCH   1   5
BRANCH   2  21
HETATM   21  C   UNL     1     -40.824  53.085 -53.774  1.00  0.00     0.064 A 
HETATM   22  C   UNL     1     -40.631  53.110 -52.406  1.00  0.00     0.077 A 
HETATM   23  C   UNL     1     -39.981  52.072 -51.733  1.00  0.00     0.065 A 
HETATM   24  N   UNL     1     -41.012  54.056 -51.448  1.00  0.00    -0.330 N 
HETATM   25  N   UNL     1     -39.932  52.397 -50.376  1.00  0.00    -0.331 N 
HETATM   26  C   UNL     1     -39.523  50.950 -52.381  1.00  0.00     0.074 A 
HETATM   27  C   UNL     1     -40.588  53.618 -50.192  1.00  0.00     0.176 A 
HETATM   28  H   UNL     1     -39.532  51.829 -49.641  1.00  0.00     0.168 HD
HETATM   29  S   UNL     1     -40.845  54.414 -48.772  1.00  0.00    -0.041 SA
HETATM   30  C   UNL     1     -39.751  50.896 -53.756  1.00  0.00     0.119 A 
HETATM   31  F   UNL     1     -39.343  49.817 -54.437  1.00  0.00    -0.206 F 
HETATM   32  C   UNL     1     -40.389  51.938 -54.452  1.00  0.00     0.061 A 
HETATM   33  H   UNL     1     -41.597  54.858 -51.623  1.00  0.00     0.168 HD
ENDBRANCH   2  21
TORSDOF 9
ENDMDL
MODEL 8
REMARK VINA RESULT:      -6.9      3.964      6.398
REMARK  9 active torsions:
REMARK  status: ('A' for Active; 'I' for Inactive)
REMARK    1  A    between atoms: C_2  and  N_3 
REMARK    2  A    between atoms: N_3  and  C_5 
REMARK    3  A    between atoms: N_3  and  C_29 
REMARK    4  A    between atoms: C_5  and  C_6 
REMARK    5  A    between atoms: C_6  and  O_7 
REMARK    6  A    between atoms: O_7  and  C_8 
REMARK    7  A    between atoms: C_9  and  C_10 
REMARK    8  A    between atoms: C_10  and  N_11 
REMARK       I    between atoms: N_11  and  C_12 
REMARK    9  A    between atoms: C_12  and  C_13 
ROOT
HETATM    1  N   UNL     1     -43.212  56.168 -52.346  1.00  0.00    -0.352 N 
HETATM    2  C   UNL     1     -43.928  57.132 -51.652  1.00  0.00     0.254 C 
HETATM    3  O   UNL     1     -44.753  56.883 -50.783  1.00  0.00    -0.268 OA
HETATM    4  H   UNL     1     -42.312  56.481 -52.685  1.00  0.00     0.163 HD
ENDROOT
BRANCH   1   5
HETATM    5  C   UNL     1     -43.266  54.771 -51.957  1.00  0.00     0.164 C 
BRANCH   5   6
HETATM    6  C   UNL     1     -42.158  53.908 -52.509  1.00  0.00    -0.007 A 
HETATM    7  C   UNL     1     -42.023  53.606 -53.877  1.00  0.00     0.076 A 
HETATM    8  C   UNL     1     -40.933  52.830 -54.303  1.00  0.00     0.037 A 
HETATM    9  C   UNL     1     -39.999  52.340 -53.388  1.00  0.00     0.003 A 
HETATM   10  C   UNL     1     -40.142  52.615 -52.035  1.00  0.00     0.001 A 
HETATM   11  C   UNL     1     -41.211  53.394 -51.602  1.00  0.00     0.011 A 
BRANCH   7  12
HETATM   12  O   UNL     1     -42.974  54.124 -54.728  1.00  0.00    -0.349 OA
BRANCH  12  13
HETATM   13  C   UNL     1     -42.478  54.907 -55.818  1.00  0.00     0.203 C 
BRANCH  13  14
HETATM   14  C   UNL     1     -43.246  56.231 -55.911  1.00  0.00     0.261 C 
BRANCH  14  15
HETATM   15  N   UNL     1     -43.757  56.579 -57.312  1.00  0.00    -0.070 N 
HETATM   16  H   UNL     1     -44.735  56.257 -57.325  1.00  0.00     0.279 HD
BRANCH  15  17
HETATM   17  C   UNL     1     -43.073  55.846 -58.455  1.00  0.00     0.230 C 
HETATM   18  C   UNL     1     -44.072  55.133 -59.348  1.00  0.00     0.034 C 
ENDBRANCH  15  17
BRANCH  15  19
HETATM   19  C   UNL     1     -43.825  58.066 -57.622  1.00  0.00     0.230 C 
HETATM   20  C   UNL     1     -42.486  58.747 -57.404  1.00  0.00     0.034 C 
ENDBRANCH  15  19
ENDBRANCH  14  15
ENDBRANCH  13  14
ENDBRANCH  12  13
ENDBRANCH   7  12
ENDBRANCH   5   6
ENDBRANCH   1   5
BRANCH   2  21
HETATM   21  C   UNL     1     -43.590  58.545 -51.959  1.00  0.00     0.064 A 
HETATM   22  C   UNL     1     -44.016  59.617 -51.199  1.00  0.00     0.077 A 
HETATM   23  C   UNL     1     -43.748  60.938 -51.570  1.00  0.00     0.065 A 
HETATM   24  N   UNL     1     -44.720  59.657 -49.991  1.00  0.00    -0.330 N 
HETATM   25  N   UNL     1     -44.316  61.782 -50.614  1.00  0.00    -0.331 N 
HETATM   26  C   UNL     1     -43.019  61.252 -52.692  1.00  0.00     0.074 A 
HETATM   27  C   UNL     1     -44.904  60.992 -49.622  1.00  0.00     0.176 A 
HETATM   28  H   UNL     1     -44.275  62.793 -50.611  1.00  0.00     0.168 HD
HETATM   29  S   UNL     1     -45.665  61.502 -48.253  1.00  0.00    -0.041 SA
HETATM   30  C   UNL     1     -42.549  60.175 -53.444  1.00  0.00     0.119 A 
HETATM   31  F   UNL     1     -41.817  60.421 -54.538  1.00  0.00    -0.206 F 
HETATM   32  C   UNL     1     -42.822  58.841 -53.094  1.00  0.00     0.061 A 
HETATM   33  H   UNL     1     -44.950  58.855 -49.425  1.00  0.00     0.168 HD
ENDBRANCH   2  21
TORSDOF 9
ENDMDL
MODEL 9
REMARK VINA RESULT:      -6.8      3.220      4.652
REMARK  9 active torsions:
REMARK  status: ('A' for Active; 'I' for Inactive)
REMARK    1  A    between atoms: C_2  and  N_3 
REMARK    2  A    between atoms: N_3  and  C_5 
REMARK    3  A    between atoms: N_3  and  C_29 
REMARK    4  A    between atoms: C_5  and  C_6 
REMARK    5  A    between atoms: C_6  and  O_7 
REMARK    6  A    between atoms: O_7  and  C_8 
REMARK    7  A    between atoms: C_9  and  C_10 
REMARK    8  A    between atoms: C_10  and  N_11 
REMARK       I    between atoms: N_11  and  C_12 
REMARK    9  A    between atoms: C_12  and  C_13 
ROOT
HETATM    1  N   UNL     1     -43.614  56.092 -55.171  1.00  0.00    -0.352 N 
HETATM    2  C   UNL     1     -43.219  55.812 -56.471  1.00  0.00     0.254 C 
HETATM    3  O   UNL     1     -42.969  54.690 -56.887  1.00  0.00    -0.268 OA
HETATM    4  H   UNL     1     -44.181  56.923 -55.077  1.00  0.00     0.163 HD
ENDROOT
BRANCH   1   5
HETATM    5  C   UNL     1     -43.933  55.025 -54.240  1.00  0.00     0.164 C 
BRANCH   5   6
HETATM    6  C   UNL     1     -43.173  55.063 -52.936  1.00  0.00    -0.007 A 
HETATM    7  C   UNL     1     -43.357  56.064 -51.964  1.00  0.00     0.076 A 
HETATM    8  C   UNL     1     -42.635  55.992 -50.762  1.00  0.00     0.037 A 
HETATM    9  C   UNL     1     -41.727  54.956 -50.530  1.00  0.00     0.003 A 
HETATM   10  C   UNL     1     -41.525  53.981 -51.495  1.00  0.00     0.001 A 
HETATM   11  C   UNL     1     -42.244  54.034 -52.686  1.00  0.00     0.011 A 
BRANCH   7  12
HETATM   12  O   UNL     1     -44.269  57.054 -52.251  1.00  0.00    -0.349 OA
BRANCH  12  13
HETATM   13  C   UNL     1     -43.901  58.379 -51.857  1.00  0.00     0.203 C 
BRANCH  13  14
HETATM   14  C   UNL     1     -42.968  59.003 -52.902  1.00  0.00     0.261 C 
BRANCH  14  15
HETATM   15  N   UNL     1     -41.657  59.560 -52.340  1.00  0.00    -0.070 N 
HETATM   16  H   UNL     1     -41.610  60.528 -52.687  1.00  0.00     0.279 HD
BRANCH  15  17
HETATM   17  C   UNL     1     -40.393  58.884 -52.847  1.00  0.00     0.230 C 
HETATM   18  C   UNL     1     -40.704  57.643 -53.664  1.00  0.00     0.034 C 
ENDBRANCH  15  17
BRANCH  15  19
HETATM   19  C   UNL     1     -41.605  59.678 -50.825  1.00  0.00     0.230 C 
HETATM   20  C   UNL     1     -40.188  59.544 -50.299  1.00  0.00     0.034 C 
ENDBRANCH  15  19
ENDBRANCH  14  15
ENDBRANCH  13  14
ENDBRANCH  12  13
ENDBRANCH   7  12
ENDBRANCH   5   6
ENDBRANCH   1   5
BRANCH   2  21
HETATM   21  C   UNL     1     -43.183  56.966 -57.405  1.00  0.00     0.064 A 
HETATM   22  C   UNL     1     -44.037  57.107 -58.481  1.00  0.00     0.077 A 
HETATM   23  C   UNL     1     -43.914  58.165 -59.388  1.00  0.00     0.065 A 
HETATM   24  N   UNL     1     -45.133  56.337 -58.884  1.00  0.00    -0.330 N 
HETATM   25  N   UNL     1     -44.906  58.021 -60.360  1.00  0.00    -0.331 N 
HETATM   26  C   UNL     1     -42.960  59.144 -59.249  1.00  0.00     0.074 A 
HETATM   27  C   UNL     1     -45.677  56.900 -60.041  1.00  0.00     0.176 A 
HETATM   28  H   UNL     1     -45.071  58.645 -61.140  1.00  0.00     0.168 HD
HETATM   29  S   UNL     1     -46.996  56.327 -60.845  1.00  0.00    -0.041 SA
HETATM   30  C   UNL     1     -42.119  59.033 -58.141  1.00  0.00     0.119 A 
HETATM   31  F   UNL     1     -41.183  59.970 -57.944  1.00  0.00    -0.206 F 
HETATM   32  C   UNL     1     -42.218  57.968 -57.228  1.00  0.00     0.061 A 
HETATM   33  H   UNL     1     -45.532  55.574 -58.359  1.00  0.00     0.168 HD
ENDBRANCH   2  21
TORSDOF 9
ENDMDL
MODEL 10
REMARK VINA RESULT:      -6.7      2.658      5.369
REMARK  9 active torsions:
REMARK  status: ('A' for Active; 'I' for Inactive)
REMARK    1  A    between atoms: C_2  and  N_3 
REMARK    2  A    between atoms: N_3  and  C_5 
REMARK    3  A    between atoms: N_3  and  C_29 
REMARK    4  A    between atoms: C_5  and  C_6 
REMARK    5  A    between atoms: C_6  and  O_7 
REMARK    6  A    between atoms: O_7  and  C_8 
REMARK    7  A    between atoms: C_9  and  C_10 
REMARK    8  A    between atoms: C_10  and  N_11 
REMARK       I    between atoms: N_11  and  C_12 
REMARK    9  A    between atoms: C_12  and  C_13 
ROOT
HETATM    1  N   UNL     1     -42.601  56.375 -55.707  1.00  0.00    -0.352 N 
HETATM    2  C   UNL     1     -42.624  57.382 -56.660  1.00  0.00     0.254 C 
HETATM    3  O   UNL     1     -42.178  58.507 -56.482  1.00  0.00    -0.268 OA
HETATM    4  H   UNL     1     -42.587  55.439 -56.090  1.00  0.00     0.163 HD
ENDROOT
BRANCH   1   5
HETATM    5  C   UNL     1     -41.871  56.538 -54.463  1.00  0.00     0.164 C 
BRANCH   5   6
HETATM    6  C   UNL     1     -42.728  56.618 -53.223  1.00  0.00    -0.007 A 
HETATM    7  C   UNL     1     -42.429  55.933 -52.031  1.00  0.00     0.076 A 
HETATM    8  C   UNL     1     -43.263  56.105 -50.914  1.00  0.00     0.037 A 
HETATM    9  C   UNL     1     -44.390  56.926 -50.979  1.00  0.00     0.003 A 
HETATM   10  C   UNL     1     -44.703  57.585 -52.159  1.00  0.00     0.001 A 
HETATM   11  C   UNL     1     -43.877  57.433 -53.270  1.00  0.00     0.011 A 
BRANCH   7  12
HETATM   12  O   UNL     1     -41.301  55.144 -52.031  1.00  0.00    -0.349 OA
BRANCH  12  13
HETATM   13  C   UNL     1     -41.517  53.743 -51.836  1.00  0.00     0.203 C 
BRANCH  13  14
HETATM   14  C   UNL     1     -40.178  52.997 -51.824  1.00  0.00     0.261 C 
BRANCH  14  15
HETATM   15  N   UNL     1     -39.861  52.227 -53.110  1.00  0.00    -0.070 N 
HETATM   16  H   UNL     1     -38.920  52.543 -53.383  1.00  0.00     0.279 HD
BRANCH  15  17
HETATM   17  C   UNL     1     -40.757  52.546 -54.296  1.00  0.00     0.230 C 
HETATM   18  C   UNL     1     -40.166  53.631 -55.176  1.00  0.00     0.034 C 
ENDBRANCH  15  17
BRANCH  15  19
HETATM   19  C   UNL     1     -39.741  50.720 -52.945  1.00  0.00     0.230 C 
HETATM   20  C   UNL     1     -39.545  50.023 -54.279  1.00  0.00     0.034 C 
ENDBRANCH  15  19
ENDBRANCH  14  15
ENDBRANCH  13  14
ENDBRANCH  12  13
ENDBRANCH   7  12
ENDBRANCH   5   6
ENDBRANCH   1   5
BRANCH   2  21
HETATM   21  C   UNL     1     -43.165  57.010 -57.991  1.00  0.00     0.064 A 
HETATM   22  C   UNL     1     -43.522  57.930 -58.958  1.00  0.00     0.077 A 
HETATM   23  C   UNL     1     -44.108  57.542 -60.167  1.00  0.00     0.065 A 
HETATM   24  N   UNL     1     -43.386  59.322 -58.987  1.00  0.00    -0.330 N 
HETATM   25  N   UNL     1     -44.362  58.693 -60.916  1.00  0.00    -0.331 N 
HETATM   26  C   UNL     1     -44.335  56.225 -60.483  1.00  0.00     0.074 A 
HETATM   27  C   UNL     1     -43.897  59.799 -60.197  1.00  0.00     0.176 A 
HETATM   28  H   UNL     1     -44.771  58.725 -61.841  1.00  0.00     0.168 HD
HETATM   29  S   UNL     1     -43.918  61.379 -60.662  1.00  0.00    -0.041 SA
HETATM   30  C   UNL     1     -43.939  55.285 -59.531  1.00  0.00     0.119 A 
HETATM   31  F   UNL     1     -44.119  53.984 -59.794  1.00  0.00    -0.206 F 
HETATM   32  C   UNL     1     -43.363  55.657 -58.304  1.00  0.00     0.061 A 
HETATM   33  H   UNL     1     -42.892  59.873 -58.302  1.00  0.00     0.168 HD
ENDBRANCH   2  21
TORSDOF 9
ENDMDL
