MODEL 1
REMARK VINA RESULT:      -8.3      0.000      0.000
REMARK  4 active torsions:
REMARK  status: ('A' for Active; 'I' for Inactive)
REMARK    1  A    between atoms: C_4  and  C_5 
REMARK    2  A    between atoms: C_9  and  C_10 
REMARK       I    between atoms: C_10  and  N_11 
REMARK    3  A    between atoms: N_11  and  N_12 
REMARK    4  A    between atoms: C_13  and  C_14 
ROOT
HETATM    1  C   UNL     1     -43.084  55.737 -56.113  1.00  0.00     0.289 C 
HETATM    2  N   UNL     1     -43.205  55.615 -57.488  1.00  0.00    -0.242 N 
HETATM    3  O   UNL     1     -43.737  56.521 -55.430  1.00  0.00    -0.264 OA
HETATM    4  H   UNL     1     -42.624  54.965 -58.000  1.00  0.00     0.192 HD
ENDROOT
BRANCH   1   5
HETATM    5  C   UNL     1     -42.104  54.864 -55.515  1.00  0.00     0.121 A 
HETATM    6  N   UNL     1     -40.766  55.119 -55.630  1.00  0.00    -0.272 N 
HETATM    7  N   UNL     1     -39.979  54.206 -55.045  1.00  0.00    -0.174 NA
HETATM    8  H   UNL     1     -40.338  55.906 -56.111  1.00  0.00     0.189 HD
HETATM    9  C   UNL     1     -40.828  53.323 -54.497  1.00  0.00     0.089 A 
HETATM   10  C   UNL     1     -42.174  53.702 -54.772  1.00  0.00     0.071 A 
BRANCH   9  11
HETATM   11  C   UNL     1     -40.350  52.155 -53.750  1.00  0.00    -0.006 A 
HETATM   12  C   UNL     1     -39.989  52.254 -52.398  1.00  0.00     0.014 A 
HETATM   13  C   UNL     1     -39.545  51.130 -51.695  1.00  0.00     0.001 A 
HETATM   14  C   UNL     1     -39.458  49.894 -52.332  1.00  0.00     0.000 A 
HETATM   15  C   UNL     1     -39.808  49.781 -53.675  1.00  0.00     0.001 A 
HETATM   16  C   UNL     1     -40.250  50.905 -54.379  1.00  0.00     0.014 A 
ENDBRANCH   9  11
ENDBRANCH   1   5
BRANCH   2  17
HETATM   17  N   UNL     1     -44.085  56.408 -58.172  1.00  0.00    -0.182 NA
HETATM   18  C   UNL     1     -44.796  55.814 -59.075  1.00  0.00     0.168 C 
BRANCH  18  19
HETATM   19  C   UNL     1     -45.741  56.571 -59.846  1.00  0.00     0.052 A 
HETATM   20  N   UNL     1     -46.677  55.991 -60.678  1.00  0.00    -0.358 N 
HETATM   21  H   UNL     1     -46.772  54.991 -60.808  1.00  0.00     0.166 HD
HETATM   22  C   UNL     1     -47.426  56.969 -61.268  1.00  0.00     0.016 A 
HETATM   23  C   UNL     1     -46.981  58.194 -60.816  1.00  0.00    -0.033 A 
HETATM   24  C   UNL     1     -48.553  56.734 -62.210  1.00  0.00     0.057 C 
HETATM   25  C   UNL     1     -47.576  59.482 -61.274  1.00  0.00     0.040 C 
HETATM   26  C   UNL     1     -45.914  57.942 -59.921  1.00  0.00     0.040 A 
HETATM   27  C   UNL     1     -48.942  59.250 -61.950  1.00  0.00     0.005 C 
HETATM   28  C   UNL     1     -48.919  58.052 -62.919  1.00  0.00     0.006 C 
ENDBRANCH  18  19
ENDBRANCH   2  17
TORSDOF 4
ENDMDL
MODEL 2
REMARK VINA RESULT:      -8.2      6.113      8.368
REMARK  4 active torsions:
REMARK  status: ('A' for Active; 'I' for Inactive)
REMARK    1  A    between atoms: C_4  and  C_5 
REMARK    2  A    between atoms: C_9  and  C_10 
REMARK       I    between atoms: C_10  and  N_11 
REMARK    3  A    between atoms: N_11  and  N_12 
REMARK    4  A    between atoms: C_13  and  C_14 
ROOT
HETATM    1  C   UNL     1     -41.583  57.042 -53.753  1.00  0.00     0.289 C 
HETATM    2  N   UNL     1     -41.508  57.531 -52.459  1.00  0.00    -0.242 N 
HETATM    3  O   UNL     1     -42.028  57.678 -54.706  1.00  0.00    -0.264 OA
HETATM    4  H   UNL     1     -41.150  56.952 -51.711  1.00  0.00     0.192 HD
ENDROOT
BRANCH   1   5
HETATM    5  C   UNL     1     -41.100  55.693 -53.917  1.00  0.00     0.121 A 
HETATM    6  N   UNL     1     -40.606  55.260 -55.116  1.00  0.00    -0.272 N 
HETATM    7  N   UNL     1     -40.220  53.977 -55.122  1.00  0.00    -0.174 NA
HETATM    8  H   UNL     1     -40.521  55.805 -55.970  1.00  0.00     0.189 HD
HETATM    9  C   UNL     1     -40.442  53.547 -53.870  1.00  0.00     0.089 A 
HETATM   10  C   UNL     1     -40.996  54.598 -53.083  1.00  0.00     0.071 A 
BRANCH   9  11
HETATM   11  C   UNL     1     -40.141  52.172 -53.462  1.00  0.00    -0.006 A 
HETATM   12  C   UNL     1     -40.188  51.113 -54.382  1.00  0.00     0.014 A 
HETATM   13  C   UNL     1     -39.887  49.807 -53.981  1.00  0.00     0.001 A 
HETATM   14  C   UNL     1     -39.537  49.543 -52.659  1.00  0.00     0.000 A 
HETATM   15  C   UNL     1     -39.491  50.582 -51.734  1.00  0.00     0.001 A 
HETATM   16  C   UNL     1     -39.792  51.887 -52.132  1.00  0.00     0.014 A 
ENDBRANCH   9  11
ENDBRANCH   1   5
BRANCH   2  17
HETATM   17  N   UNL     1     -41.958  58.790 -52.174  1.00  0.00    -0.182 NA
HETATM   18  C   UNL     1     -42.264  59.014 -50.937  1.00  0.00     0.168 C 
BRANCH  18  19
HETATM   19  C   UNL     1     -42.752  60.307 -50.549  1.00  0.00     0.052 A 
HETATM   20  N   UNL     1     -43.690  60.496 -49.555  1.00  0.00    -0.358 N 
HETATM   21  H   UNL     1     -44.105  59.742 -49.021  1.00  0.00     0.166 HD
HETATM   22  C   UNL     1     -43.946  61.831 -49.422  1.00  0.00     0.016 A 
HETATM   23  C   UNL     1     -43.167  62.519 -50.329  1.00  0.00    -0.033 A 
HETATM   24  C   UNL     1     -44.882  62.429 -48.433  1.00  0.00     0.057 C 
HETATM   25  C   UNL     1     -43.211  64.003 -50.460  1.00  0.00     0.040 C 
HETATM   26  C   UNL     1     -42.416  61.556 -51.044  1.00  0.00     0.040 A 
HETATM   27  C   UNL     1     -43.885  64.646 -49.232  1.00  0.00     0.005 C 
HETATM   28  C   UNL     1     -45.163  63.896 -48.808  1.00  0.00     0.006 C 
ENDBRANCH  18  19
ENDBRANCH   2  17
TORSDOF 4
ENDMDL
MODEL 3
REMARK VINA RESULT:      -8.1      6.301      7.694
REMARK  4 active torsions:
REMARK  status: ('A' for Active; 'I' for Inactive)
REMARK    1  A    between atoms: C_4  and  C_5 
REMARK    2  A    between atoms: C_9  and  C_10 
REMARK       I    between atoms: C_10  and  N_11 
REMARK    3  A    between atoms: N_11  and  N_12 
REMARK    4  A    between atoms: C_13  and  C_14 
ROOT
HETATM    1  C   UNL     1     -41.655  56.962 -52.930  1.00  0.00     0.289 C 
HETATM    2  N   UNL     1     -42.486  56.988 -51.821  1.00  0.00    -0.242 N 
HETATM    3  O   UNL     1     -41.364  57.951 -53.598  1.00  0.00    -0.264 OA
HETATM    4  H   UNL     1     -42.705  56.136 -51.323  1.00  0.00     0.192 HD
ENDROOT
BRANCH   1   5
HETATM    5  C   UNL     1     -41.145  55.656 -53.270  1.00  0.00     0.121 A 
HETATM    6  N   UNL     1     -40.625  55.401 -54.509  1.00  0.00    -0.272 N 
HETATM    7  N   UNL     1     -40.215  54.137 -54.685  1.00  0.00    -0.174 NA
HETATM    8  H   UNL     1     -40.537  56.061 -55.278  1.00  0.00     0.189 HD
HETATM    9  C   UNL     1     -40.448  53.536 -53.508  1.00  0.00     0.089 A 
HETATM   10  C   UNL     1     -41.034  54.458 -52.593  1.00  0.00     0.071 A 
BRANCH   9  11
HETATM   11  C   UNL     1     -40.128  52.122 -53.288  1.00  0.00    -0.006 A 
HETATM   12  C   UNL     1     -40.139  51.200 -54.346  1.00  0.00     0.014 A 
HETATM   13  C   UNL     1     -39.821  49.857 -54.124  1.00  0.00     0.001 A 
HETATM   14  C   UNL     1     -39.489  49.417 -52.845  1.00  0.00     0.000 A 
HETATM   15  C   UNL     1     -39.479  50.319 -51.784  1.00  0.00     0.001 A 
HETATM   16  C   UNL     1     -39.798  51.662 -52.004  1.00  0.00     0.014 A 
ENDBRANCH   9  11
ENDBRANCH   1   5
BRANCH   2  17
HETATM   17  N   UNL     1     -43.050  58.166 -51.415  1.00  0.00    -0.182 NA
HETATM   18  C   UNL     1     -44.338  58.237 -51.511  1.00  0.00     0.168 C 
BRANCH  18  19
HETATM   19  C   UNL     1     -45.014  59.439 -51.113  1.00  0.00     0.052 A 
HETATM   20  N   UNL     1     -44.970  59.944 -49.830  1.00  0.00    -0.358 N 
HETATM   21  H   UNL     1     -44.457  59.510 -49.071  1.00  0.00     0.166 HD
HETATM   22  C   UNL     1     -45.708  61.092 -49.769  1.00  0.00     0.016 A 
HETATM   23  C   UNL     1     -46.233  61.341 -51.019  1.00  0.00    -0.033 A 
HETATM   24  C   UNL     1     -45.877  61.938 -48.557  1.00  0.00     0.057 C 
HETATM   25  C   UNL     1     -47.107  62.516 -51.302  1.00  0.00     0.040 C 
HETATM   26  C   UNL     1     -45.798  60.295 -51.868  1.00  0.00     0.040 A 
HETATM   27  C   UNL     1     -46.996  63.569 -50.181  1.00  0.00     0.005 C 
HETATM   28  C   UNL     1     -47.032  62.933 -48.778  1.00  0.00     0.006 C 
ENDBRANCH  18  19
ENDBRANCH   2  17
TORSDOF 4
ENDMDL
MODEL 4
REMARK VINA RESULT:      -8.0      3.716     10.739
REMARK  4 active torsions:
REMARK  status: ('A' for Active; 'I' for Inactive)
REMARK    1  A    between atoms: C_4  and  C_5 
REMARK    2  A    between atoms: C_9  and  C_10 
REMARK       I    between atoms: C_10  and  N_11 
REMARK    3  A    between atoms: N_11  and  N_12 
REMARK    4  A    between atoms: C_13  and  C_14 
ROOT
HETATM    1  C   UNL     1     -42.551  56.317 -57.181  1.00  0.00     0.289 C 
HETATM    2  N   UNL     1     -41.677  56.225 -56.110  1.00  0.00    -0.242 N 
HETATM    3  O   UNL     1     -43.247  55.390 -57.586  1.00  0.00    -0.264 OA
HETATM    4  H   UNL     1     -41.114  57.019 -55.836  1.00  0.00     0.192 HD
ENDROOT
BRANCH   1   5
HETATM    5  C   UNL     1     -42.587  57.610 -57.820  1.00  0.00     0.121 A 
HETATM    6  N   UNL     1     -43.576  58.511 -57.535  1.00  0.00    -0.272 N 
HETATM    7  N   UNL     1     -43.492  59.657 -58.225  1.00  0.00    -0.174 NA
HETATM    8  H   UNL     1     -44.342  58.384 -56.880  1.00  0.00     0.189 HD
HETATM    9  C   UNL     1     -42.389  59.523 -58.978  1.00  0.00     0.089 A 
HETATM   10  C   UNL     1     -41.793  58.248 -58.752  1.00  0.00     0.071 A 
BRANCH   9  11
HETATM   11  C   UNL     1     -41.942  60.582 -59.888  1.00  0.00    -0.006 A 
HETATM   12  C   UNL     1     -41.193  61.674 -59.421  1.00  0.00     0.014 A 
HETATM   13  C   UNL     1     -40.764  62.672 -60.302  1.00  0.00     0.001 A 
HETATM   14  C   UNL     1     -41.078  62.593 -61.657  1.00  0.00     0.000 A 
HETATM   15  C   UNL     1     -41.824  61.519 -62.134  1.00  0.00     0.001 A 
HETATM   16  C   UNL     1     -42.255  60.522 -61.255  1.00  0.00     0.014 A 
ENDBRANCH   9  11
ENDBRANCH   1   5
BRANCH   2  17
HETATM   17  N   UNL     1     -41.537  55.041 -55.439  1.00  0.00    -0.182 NA
HETATM   18  C   UNL     1     -40.600  55.005 -54.548  1.00  0.00     0.168 C 
BRANCH  18  19
HETATM   19  C   UNL     1     -40.378  53.800 -53.800  1.00  0.00     0.052 A 
HETATM   20  N   UNL     1     -40.071  52.589 -54.387  1.00  0.00    -0.358 N 
HETATM   21  H   UNL     1     -39.975  52.457 -55.387  1.00  0.00     0.166 HD
HETATM   22  C   UNL     1     -39.920  51.640 -53.417  1.00  0.00     0.016 A 
HETATM   23  C   UNL     1     -40.124  52.234 -52.189  1.00  0.00    -0.033 A 
HETATM   24  C   UNL     1     -39.558  50.218 -53.659  1.00  0.00     0.057 C 
HETATM   25  C   UNL     1     -40.049  51.473 -50.909  1.00  0.00     0.040 C 
HETATM   26  C   UNL     1     -40.418  53.597 -52.431  1.00  0.00     0.040 A 
HETATM   27  C   UNL     1     -39.338  50.120 -51.112  1.00  0.00     0.005 C 
HETATM   28  C   UNL     1     -39.817  49.394 -52.384  1.00  0.00     0.006 C 
ENDBRANCH  18  19
ENDBRANCH   2  17
TORSDOF 4
ENDMDL
MODEL 5
REMARK VINA RESULT:      -7.8      2.563      3.086
REMARK  4 active torsions:
REMARK  status: ('A' for Active; 'I' for Inactive)
REMARK    1  A    between atoms: C_4  and  C_5 
REMARK    2  A    between atoms: C_9  and  C_10 
REMARK       I    between atoms: C_10  and  N_11 
REMARK    3  A    between atoms: N_11  and  N_12 
REMARK    4  A    between atoms: C_13  and  C_14 
ROOT
HETATM    1  C   UNL     1     -41.694  56.751 -55.183  1.00  0.00     0.289 C 
HETATM    2  N   UNL     1     -42.068  56.485 -56.491  1.00  0.00    -0.242 N 
HETATM    3  O   UNL     1     -41.651  57.877 -54.694  1.00  0.00    -0.264 OA
HETATM    4  H   UNL     1     -42.064  55.537 -56.844  1.00  0.00     0.192 HD
ENDROOT
BRANCH   1   5
HETATM    5  C   UNL     1     -41.336  55.588 -54.410  1.00  0.00     0.121 A 
HETATM    6  N   UNL     1     -41.308  55.629 -53.044  1.00  0.00    -0.272 N 
HETATM    7  N   UNL     1     -40.931  54.480 -52.466  1.00  0.00    -0.174 NA
HETATM    8  H   UNL     1     -41.528  56.428 -52.456  1.00  0.00     0.189 HD
HETATM    9  C   UNL     1     -40.727  53.634 -53.488  1.00  0.00     0.089 A 
HETATM   10  C   UNL     1     -40.970  54.295 -54.727  1.00  0.00     0.071 A 
BRANCH   9  11
HETATM   11  C   UNL     1     -40.302  52.248 -53.269  1.00  0.00    -0.006 A 
HETATM   12  C   UNL     1     -39.821  51.823 -52.021  1.00  0.00     0.014 A 
HETATM   13  C   UNL     1     -39.428  50.496 -51.822  1.00  0.00     0.001 A 
HETATM   14  C   UNL     1     -39.510  49.578 -52.866  1.00  0.00     0.000 A 
HETATM   15  C   UNL     1     -39.981  49.985 -54.112  1.00  0.00     0.001 A 
HETATM   16  C   UNL     1     -40.372  51.312 -54.312  1.00  0.00     0.014 A 
ENDBRANCH   9  11
ENDBRANCH   1   5
BRANCH   2  17
HETATM   17  N   UNL     1     -42.407  57.510 -57.330  1.00  0.00    -0.182 NA
HETATM   18  C   UNL     1     -42.509  57.205 -58.582  1.00  0.00     0.168 C 
BRANCH  18  19
HETATM   19  C   UNL     1     -42.854  58.221 -59.536  1.00  0.00     0.052 A 
HETATM   20  N   UNL     1     -44.153  58.599 -59.803  1.00  0.00    -0.358 N 
HETATM   21  H   UNL     1     -44.963  58.193 -59.349  1.00  0.00     0.166 HD
HETATM   22  C   UNL     1     -44.154  59.583 -60.750  1.00  0.00     0.016 A 
HETATM   23  C   UNL     1     -42.847  59.854 -61.099  1.00  0.00    -0.033 A 
HETATM   24  C   UNL     1     -45.366  60.265 -61.278  1.00  0.00     0.057 C 
HETATM   25  C   UNL     1     -42.487  60.875 -62.125  1.00  0.00     0.040 C 
HETATM   26  C   UNL     1     -42.026  58.991 -60.336  1.00  0.00     0.040 A 
HETATM   27  C   UNL     1     -43.674  61.816 -62.408  1.00  0.00     0.005 C 
HETATM   28  C   UNL     1     -45.005  61.051 -62.551  1.00  0.00     0.006 C 
ENDBRANCH  18  19
ENDBRANCH   2  17
TORSDOF 4
ENDMDL
MODEL 6
REMARK VINA RESULT:      -7.8     15.407     20.540
REMARK  4 active torsions:
REMARK  status: ('A' for Active; 'I' for Inactive)
REMARK    1  A    between atoms: C_4  and  C_5 
REMARK    2  A    between atoms: C_9  and  C_10 
REMARK       I    between atoms: C_10  and  N_11 
REMARK    3  A    between atoms: N_11  and  N_12 
REMARK    4  A    between atoms: C_13  and  C_14 
ROOT
HETATM    1  C   UNL     1     -35.465  41.726 -53.034  1.00  0.00     0.289 C 
HETATM    2  N   UNL     1     -34.865  40.555 -52.598  1.00  0.00    -0.242 N 
HETATM    3  O   UNL     1     -35.391  42.800 -52.443  1.00  0.00    -0.264 OA
HETATM    4  H   UNL     1     -34.979  39.695 -53.117  1.00  0.00     0.192 HD
ENDROOT
BRANCH   1   5
HETATM    5  C   UNL     1     -36.216  41.598 -54.258  1.00  0.00     0.121 A 
HETATM    6  N   UNL     1     -37.583  41.590 -54.252  1.00  0.00    -0.272 N 
HETATM    7  N   UNL     1     -38.139  41.438 -55.462  1.00  0.00    -0.174 NA
HETATM    8  H   UNL     1     -38.187  41.676 -53.438  1.00  0.00     0.189 HD
HETATM    9  C   UNL     1     -37.101  41.369 -56.309  1.00  0.00     0.089 A 
HETATM   10  C   UNL     1     -35.874  41.464 -55.589  1.00  0.00     0.071 A 
BRANCH   9  11
HETATM   11  C   UNL     1     -37.293  41.203 -57.753  1.00  0.00    -0.006 A 
HETATM   12  C   UNL     1     -37.077  42.266 -58.642  1.00  0.00     0.014 A 
HETATM   13  C   UNL     1     -37.253  42.092 -60.019  1.00  0.00     0.001 A 
HETATM   14  C   UNL     1     -37.647  40.854 -60.523  1.00  0.00     0.000 A 
HETATM   15  C   UNL     1     -37.870  39.791 -59.652  1.00  0.00     0.001 A 
HETATM   16  C   UNL     1     -37.696  39.965 -58.277  1.00  0.00     0.014 A 
ENDBRANCH   9  11
ENDBRANCH   1   5
BRANCH   2  17
HETATM   17  N   UNL     1     -34.145  40.546 -51.435  1.00  0.00    -0.182 NA
HETATM   18  C   UNL     1     -33.953  39.384 -50.900  1.00  0.00     0.168 C 
BRANCH  18  19
HETATM   19  C   UNL     1     -33.214  39.280 -49.674  1.00  0.00     0.052 A 
HETATM   20  N   UNL     1     -33.565  38.430 -48.646  1.00  0.00    -0.358 N 
HETATM   21  H   UNL     1     -34.367  37.811 -48.676  1.00  0.00     0.166 HD
HETATM   22  C   UNL     1     -32.671  38.561 -47.623  1.00  0.00     0.016 A 
HETATM   23  C   UNL     1     -31.726  39.498 -47.985  1.00  0.00    -0.033 A 
HETATM   24  C   UNL     1     -32.702  37.788 -46.352  1.00  0.00     0.057 C 
HETATM   25  C   UNL     1     -30.605  39.895 -47.086  1.00  0.00     0.040 C 
HETATM   26  C   UNL     1     -32.071  39.956 -49.279  1.00  0.00     0.040 A 
HETATM   27  C   UNL     1     -30.419  38.870 -45.949  1.00  0.00     0.005 C 
HETATM   28  C   UNL     1     -31.761  38.443 -45.324  1.00  0.00     0.006 C 
ENDBRANCH  18  19
ENDBRANCH   2  17
TORSDOF 4
ENDMDL
MODEL 7
REMARK VINA RESULT:      -7.6      6.691      7.473
REMARK  4 active torsions:
REMARK  status: ('A' for Active; 'I' for Inactive)
REMARK    1  A    between atoms: C_4  and  C_5 
REMARK    2  A    between atoms: C_9  and  C_10 
REMARK       I    between atoms: C_10  and  N_11 
REMARK    3  A    between atoms: N_11  and  N_12 
REMARK    4  A    between atoms: C_13  and  C_14 
ROOT
HETATM    1  C   UNL     1     -41.620  56.748 -50.873  1.00  0.00     0.289 C 
HETATM    2  N   UNL     1     -42.731  57.007 -51.660  1.00  0.00    -0.242 N 
HETATM    3  O   UNL     1     -41.127  57.555 -50.090  1.00  0.00    -0.264 OA
HETATM    4  H   UNL     1     -43.080  56.308 -52.303  1.00  0.00     0.192 HD
ENDROOT
BRANCH   1   5
HETATM    5  C   UNL     1     -41.054  55.432 -51.044  1.00  0.00     0.121 A 
HETATM    6  N   UNL     1     -40.207  54.901 -50.112  1.00  0.00    -0.272 N 
HETATM    7  N   UNL     1     -39.742  53.682 -50.421  1.00  0.00    -0.174 NA
HETATM    8  H   UNL     1     -39.906  55.340 -49.246  1.00  0.00     0.189 HD
HETATM    9  C   UNL     1     -40.324  53.381 -51.592  1.00  0.00     0.089 A 
HETATM   10  C   UNL     1     -41.156  54.458 -52.017  1.00  0.00     0.071 A 
BRANCH   9  11
HETATM   11  C   UNL     1     -40.072  52.108 -52.274  1.00  0.00    -0.006 A 
HETATM   12  C   UNL     1     -40.208  51.989 -53.665  1.00  0.00     0.014 A 
HETATM   13  C   UNL     1     -39.953  50.772 -54.305  1.00  0.00     0.001 A 
HETATM   14  C   UNL     1     -39.560  49.660 -53.563  1.00  0.00     0.000 A 
HETATM   15  C   UNL     1     -39.425  49.761 -52.181  1.00  0.00     0.001 A 
HETATM   16  C   UNL     1     -39.681  50.977 -51.541  1.00  0.00     0.014 A 
ENDBRANCH   9  11
ENDBRANCH   1   5
BRANCH   2  17
HETATM   17  N   UNL     1     -43.341  58.229 -51.604  1.00  0.00    -0.182 NA
HETATM   18  C   UNL     1     -44.577  58.226 -51.222  1.00  0.00     0.168 C 
BRANCH  18  19
HETATM   19  C   UNL     1     -45.298  59.465 -51.140  1.00  0.00     0.052 A 
HETATM   20  N   UNL     1     -46.139  59.920 -52.135  1.00  0.00    -0.358 N 
HETATM   21  H   UNL     1     -46.316  59.416 -52.997  1.00  0.00     0.166 HD
HETATM   22  C   UNL     1     -46.674  61.120 -51.764  1.00  0.00     0.016 A 
HETATM   23  C   UNL     1     -46.184  61.450 -50.517  1.00  0.00    -0.033 A 
HETATM   24  C   UNL     1     -47.648  61.909 -52.564  1.00  0.00     0.057 C 
HETATM   25  C   UNL     1     -46.556  62.713 -49.818  1.00  0.00     0.040 C 
HETATM   26  C   UNL     1     -45.311  60.407 -50.125  1.00  0.00     0.040 A 
HETATM   27  C   UNL     1     -47.809  63.347 -50.454  1.00  0.00     0.005 C 
HETATM   28  C   UNL     1     -47.752  63.336 -51.995  1.00  0.00     0.006 C 
ENDBRANCH  18  19
ENDBRANCH   2  17
TORSDOF 4
ENDMDL
MODEL 8
REMARK VINA RESULT:      -7.6      1.604     10.648
REMARK  4 active torsions:
REMARK  status: ('A' for Active; 'I' for Inactive)
REMARK    1  A    between atoms: C_4  and  C_5 
REMARK    2  A    between atoms: C_9  and  C_10 
REMARK       I    between atoms: C_10  and  N_11 
REMARK    3  A    between atoms: N_11  and  N_12 
REMARK    4  A    between atoms: C_13  and  C_14 
ROOT
HETATM    1  C   UNL     1     -43.621  57.357 -57.451  1.00  0.00     0.289 C 
HETATM    2  N   UNL     1     -43.365  56.001 -57.329  1.00  0.00    -0.242 N 
HETATM    3  O   UNL     1     -43.167  58.215 -56.697  1.00  0.00    -0.264 OA
HETATM    4  H   UNL     1     -43.785  55.339 -57.969  1.00  0.00     0.192 HD
ENDROOT
BRANCH   1   5
HETATM    5  C   UNL     1     -44.491  57.711 -58.546  1.00  0.00     0.121 A 
HETATM    6  N   UNL     1     -44.157  58.707 -59.420  1.00  0.00    -0.272 N 
HETATM    7  N   UNL     1     -45.075  58.939 -60.368  1.00  0.00    -0.174 NA
HETATM    8  H   UNL     1     -43.310  59.271 -59.403  1.00  0.00     0.189 HD
HETATM    9  C   UNL     1     -46.045  58.043 -60.131  1.00  0.00     0.089 A 
HETATM   10  C   UNL     1     -45.715  57.253 -58.991  1.00  0.00     0.071 A 
BRANCH   9  11
HETATM   11  C   UNL     1     -47.247  57.968 -60.967  1.00  0.00    -0.006 A 
HETATM   12  C   UNL     1     -47.687  56.746 -61.500  1.00  0.00     0.014 A 
HETATM   13  C   UNL     1     -48.842  56.687 -62.287  1.00  0.00     0.001 A 
HETATM   14  C   UNL     1     -49.569  57.845 -62.552  1.00  0.00     0.000 A 
HETATM   15  C   UNL     1     -49.142  59.065 -62.034  1.00  0.00     0.001 A 
HETATM   16  C   UNL     1     -47.988  59.126 -61.249  1.00  0.00     0.014 A 
ENDBRANCH   9  11
ENDBRANCH   1   5
BRANCH   2  17
HETATM   17  N   UNL     1     -42.573  55.541 -56.314  1.00  0.00    -0.182 NA
HETATM   18  C   UNL     1     -43.028  54.521 -55.661  1.00  0.00     0.168 C 
BRANCH  18  19
HETATM   19  C   UNL     1     -42.265  53.976 -54.574  1.00  0.00     0.052 A 
HETATM   20  N   UNL     1     -42.484  54.307 -53.253  1.00  0.00    -0.358 N 
HETATM   21  H   UNL     1     -43.200  54.955 -52.947  1.00  0.00     0.166 HD
HETATM   22  C   UNL     1     -41.603  53.627 -52.462  1.00  0.00     0.016 A 
HETATM   23  C   UNL     1     -40.806  52.843 -53.270  1.00  0.00    -0.033 A 
HETATM   24  C   UNL     1     -41.549  53.702 -50.978  1.00  0.00     0.057 C 
HETATM   25  C   UNL     1     -39.720  51.977 -52.727  1.00  0.00     0.040 C 
HETATM   26  C   UNL     1     -41.221  53.066 -54.605  1.00  0.00     0.040 A 
HETATM   27  C   UNL     1     -39.886  51.770 -51.208  1.00  0.00     0.005 C 
HETATM   28  C   UNL     1     -40.232  53.082 -50.476  1.00  0.00     0.006 C 
ENDBRANCH  18  19
ENDBRANCH   2  17
TORSDOF 4
ENDMDL
MODEL 9
REMARK VINA RESULT:      -7.6     16.223     21.449
REMARK  4 active torsions:
REMARK  status: ('A' for Active; 'I' for Inactive)
REMARK    1  A    between atoms: C_4  and  C_5 
REMARK    2  A    between atoms: C_9  and  C_10 
REMARK       I    between atoms: C_10  and  N_11 
REMARK    3  A    between atoms: N_11  and  N_12 
REMARK    4  A    between atoms: C_13  and  C_14 
ROOT
HETATM    1  C   UNL     1     -34.319  41.182 -51.787  1.00  0.00     0.289 C 
HETATM    2  N   UNL     1     -33.596  40.105 -51.299  1.00  0.00    -0.242 N 
HETATM    3  O   UNL     1     -34.683  42.135 -51.103  1.00  0.00    -0.264 OA
HETATM    4  H   UNL     1     -33.342  39.338 -51.908  1.00  0.00     0.192 HD
ENDROOT
BRANCH   1   5
HETATM    5  C   UNL     1     -34.638  41.107 -53.192  1.00  0.00     0.121 A 
HETATM    6  N   UNL     1     -33.658  40.955 -54.132  1.00  0.00    -0.272 N 
HETATM    7  N   UNL     1     -34.105  40.929 -55.395  1.00  0.00    -0.174 NA
HETATM    8  H   UNL     1     -32.659  40.874 -53.959  1.00  0.00     0.189 HD
HETATM    9  C   UNL     1     -35.437  41.041 -55.288  1.00  0.00     0.089 A 
HETATM   10  C   UNL     1     -35.811  41.157 -53.918  1.00  0.00     0.071 A 
BRANCH   9  11
HETATM   11  C   UNL     1     -36.308  41.050 -56.468  1.00  0.00    -0.006 A 
HETATM   12  C   UNL     1     -36.074  41.927 -57.538  1.00  0.00     0.014 A 
HETATM   13  C   UNL     1     -36.905  41.918 -58.662  1.00  0.00     0.001 A 
HETATM   14  C   UNL     1     -37.980  41.033 -58.732  1.00  0.00     0.000 A 
HETATM   15  C   UNL     1     -38.227  40.160 -57.676  1.00  0.00     0.001 A 
HETATM   16  C   UNL     1     -37.398  40.170 -56.551  1.00  0.00     0.014 A 
ENDBRANCH   9  11
ENDBRANCH   1   5
BRANCH   2  17
HETATM   17  N   UNL     1     -33.254  40.051 -49.976  1.00  0.00    -0.182 NA
HETATM   18  C   UNL     1     -32.111  39.507 -49.710  1.00  0.00     0.168 C 
BRANCH  18  19
HETATM   19  C   UNL     1     -31.676  39.402 -48.346  1.00  0.00     0.052 A 
HETATM   20  N   UNL     1     -30.882  40.347 -47.730  1.00  0.00    -0.358 N 
HETATM   21  H   UNL     1     -30.548  41.187 -48.187  1.00  0.00     0.166 HD
HETATM   22  C   UNL     1     -30.640  39.966 -46.441  1.00  0.00     0.016 A 
HETATM   23  C   UNL     1     -31.284  38.767 -46.212  1.00  0.00    -0.033 A 
HETATM   24  C   UNL     1     -29.846  40.742 -45.452  1.00  0.00     0.057 C 
HETATM   25  C   UNL     1     -31.216  38.058 -44.902  1.00  0.00     0.040 C 
HETATM   26  C   UNL     1     -31.934  38.409 -47.417  1.00  0.00     0.040 A 
HETATM   27  C   UNL     1     -30.714  39.001 -43.790  1.00  0.00     0.005 C 
HETATM   28  C   UNL     1     -29.509  39.849 -44.243  1.00  0.00     0.006 C 
ENDBRANCH  18  19
ENDBRANCH   2  17
TORSDOF 4
ENDMDL
MODEL 10
REMARK VINA RESULT:      -7.4      7.832     11.703
REMARK  4 active torsions:
REMARK  status: ('A' for Active; 'I' for Inactive)
REMARK    1  A    between atoms: C_4  and  C_5 
REMARK    2  A    between atoms: C_9  and  C_10 
REMARK       I    between atoms: C_10  and  N_11 
REMARK    3  A    between atoms: N_11  and  N_12 
REMARK    4  A    between atoms: C_13  and  C_14 
ROOT
HETATM    1  C   UNL     1     -42.440  60.030 -51.132  1.00  0.00     0.289 C 
HETATM    2  N   UNL     1     -42.357  58.792 -50.514  1.00  0.00    -0.242 N 
HETATM    3  O   UNL     1     -41.966  60.283 -52.237  1.00  0.00    -0.264 OA
HETATM    4  H   UNL     1     -42.750  58.651 -49.593  1.00  0.00     0.192 HD
ENDROOT
BRANCH   1   5
HETATM    5  C   UNL     1     -43.132  61.040 -50.369  1.00  0.00     0.121 A 
HETATM    6  N   UNL     1     -42.832  62.365 -50.516  1.00  0.00    -0.272 N 
HETATM    7  N   UNL     1     -43.539  63.181 -49.721  1.00  0.00    -0.174 NA
HETATM    8  H   UNL     1     -42.139  62.765 -51.143  1.00  0.00     0.189 HD
HETATM    9  C   UNL     1     -44.360  62.367 -49.040  1.00  0.00     0.089 A 
HETATM   10  C   UNL     1     -44.133  61.012 -49.418  1.00  0.00     0.071 A 
BRANCH   9  11
HETATM   11  C   UNL     1     -45.313  62.884 -48.053  1.00  0.00    -0.006 A 
HETATM   12  C   UNL     1     -45.178  62.590 -46.687  1.00  0.00     0.014 A 
HETATM   13  C   UNL     1     -46.089  63.098 -45.755  1.00  0.00     0.001 A 
HETATM   14  C   UNL     1     -47.144  63.904 -46.175  1.00  0.00     0.000 A 
HETATM   15  C   UNL     1     -47.294  64.201 -47.527  1.00  0.00     0.001 A 
HETATM   16  C   UNL     1     -46.386  63.693 -48.460  1.00  0.00     0.014 A 
ENDBRANCH   9  11
ENDBRANCH   1   5
BRANCH   2  17
HETATM   17  N   UNL     1     -41.703  57.761 -51.130  1.00  0.00    -0.182 NA
HETATM   18  C   UNL     1     -42.362  56.652 -51.225  1.00  0.00     0.168 C 
BRANCH  18  19
HETATM   19  C   UNL     1     -41.750  55.514 -51.851  1.00  0.00     0.052 A 
HETATM   20  N   UNL     1     -41.192  54.469 -51.144  1.00  0.00    -0.358 N 
HETATM   21  H   UNL     1     -41.172  54.421 -50.132  1.00  0.00     0.166 HD
HETATM   22  C   UNL     1     -40.694  53.545 -52.017  1.00  0.00     0.016 A 
HETATM   23  C   UNL     1     -40.933  53.985 -53.303  1.00  0.00    -0.033 A 
HETATM   24  C   UNL     1     -40.041  52.266 -51.632  1.00  0.00     0.057 C 
HETATM   25  C   UNL     1     -40.503  53.217 -54.506  1.00  0.00     0.040 C 
HETATM   26  C   UNL     1     -41.596  55.231 -53.198  1.00  0.00     0.040 A 
HETATM   27  C   UNL     1     -40.160  51.760 -54.137  1.00  0.00     0.005 C 
HETATM   28  C   UNL     1     -39.316  51.666 -52.851  1.00  0.00     0.006 C 
ENDBRANCH  18  19
ENDBRANCH   2  17
TORSDOF 4
ENDMDL
