MODEL 1
REMARK VINA RESULT:      -8.0      0.000      0.000
REMARK  11 active torsions:
REMARK  status: ('A' for Active; 'I' for Inactive)
REMARK    1  A    between atoms: O_2  and  C_3 
REMARK    2  A    between atoms: C_6  and  C_7 
REMARK    3  A    between atoms: C_7  and  N_8 
REMARK    4  A    between atoms: C_7  and  C_29 
REMARK       I    between atoms: N_8  and  C_9 
REMARK    5  A    between atoms: N_8  and  C_20 
REMARK    6  A    between atoms: C_9  and  C_10 
REMARK    7  A    between atoms: C_13  and  C_14 
REMARK       I    between atoms: C_14  and  N_15 
REMARK    8  A    between atoms: C_17  and  N_18 
REMARK    9  A    between atoms: C_20  and  C_21 
REMARK   10  A    between atoms: C_21  and  N_22 
REMARK       I    between atoms: C_29  and  N_30 
REMARK   11  A    between atoms: N_30  and  C_31 
ROOT
HETATM    1  N   UNL     1     -43.437  56.936 -54.169  1.00  0.00    -0.328 N 
HETATM    2  C   UNL     1     -44.692  57.573 -54.136  1.00  0.00     0.265 C 
HETATM    3  O   UNL     1     -45.591  57.230 -54.902  1.00  0.00    -0.267 OA
ENDROOT
BRANCH   1   4
HETATM    4  C   UNL     1     -43.228  55.889 -55.189  1.00  0.00     0.213 C 
BRANCH   4   5
HETATM    5  C   UNL     1     -42.249  54.771 -54.871  1.00  0.00    -0.026 A 
HETATM    6  C   UNL     1     -41.022  54.625 -55.532  1.00  0.00     0.012 A 
HETATM    7  C   UNL     1     -40.091  53.670 -55.111  1.00  0.00     0.037 A 
HETATM    8  C   UNL     1     -40.348  52.861 -54.005  1.00  0.00     0.068 A 
HETATM    9  C   UNL     1     -41.569  52.978 -53.348  1.00  0.00     0.037 A 
HETATM   10  C   UNL     1     -42.506  53.926 -53.773  1.00  0.00     0.012 A 
BRANCH   8  11
HETATM   11  O   UNL     1     -39.341  52.002 -53.671  1.00  0.00    -0.356 OA
HETATM   12  C   UNL     1     -39.429  51.392 -52.387  1.00  0.00     0.210 C 
ENDBRANCH   8  11
ENDBRANCH   4   5
BRANCH   4  13
HETATM   13  C   UNL     1     -43.135  56.569 -56.574  1.00  0.00     0.245 C 
HETATM   14  N   UNL     1     -43.987  56.126 -57.549  1.00  0.00    -0.354 N 
HETATM   15  H   UNL     1     -44.394  55.205 -57.378  1.00  0.00     0.162 HD
HETATM   16  O   UNL     1     -42.227  57.387 -56.759  1.00  0.00    -0.271 OA
BRANCH  14  17
HETATM   17  C   UNL     1     -44.053  56.587 -58.932  1.00  0.00     0.084 C 
HETATM   18  C   UNL     1     -43.617  55.535 -59.956  1.00  0.00     0.025 C 
HETATM   19  C   UNL     1     -44.841  55.216 -60.813  1.00  0.00     0.002 C 
HETATM   20  C   UNL     1     -46.032  55.888 -60.148  1.00  0.00     0.002 C 
HETATM   21  C   UNL     1     -45.439  57.052 -59.372  1.00  0.00     0.025 C 
ENDBRANCH  14  17
ENDBRANCH   4  13
ENDBRANCH   1   4
BRANCH   1  22
HETATM   22  C   UNL     1     -42.310  57.260 -53.273  1.00  0.00     0.155 C 
BRANCH  22  23
HETATM   23  C   UNL     1     -41.437  58.463 -53.703  1.00  0.00     0.255 C 
BRANCH  23  24
HETATM   24  N   UNL     1     -40.850  59.249 -52.552  1.00  0.00    -0.066 N 
HETATM   25  H   UNL     1     -40.630  60.215 -52.871  1.00  0.00     0.280 HD
HETATM   26  C   UNL     1     -41.759  59.358 -51.337  1.00  0.00     0.261 C 
HETATM   27  C   UNL     1     -41.062  60.155 -50.228  1.00  0.00     0.195 C 
HETATM   28  O   UNL     1     -39.820  59.541 -49.867  1.00  0.00    -0.388 OA
HETATM   29  C   UNL     1     -38.916  59.509 -50.976  1.00  0.00     0.195 C 
HETATM   30  C   UNL     1     -39.493  58.681 -52.130  1.00  0.00     0.261 C 
ENDBRANCH  23  24
ENDBRANCH  22  23
ENDBRANCH   1  22
BRANCH   2  31
HETATM   31  C   UNL     1     -44.891  58.614 -53.166  1.00  0.00     0.115 A 
HETATM   32  S   UNL     1     -44.862  60.245 -53.657  1.00  0.00     0.019 SA
HETATM   33  N   UNL     1     -45.046  60.889 -52.142  1.00  0.00    -0.203 NA
HETATM   34  C   UNL     1     -45.236  59.895 -51.259  1.00  0.00     0.155 A 
HETATM   35  C   UNL     1     -45.174  58.560 -51.819  1.00  0.00     0.065 A 
BRANCH  34  36
HETATM   36  C   UNL     1     -45.486  60.208 -49.841  1.00  0.00     0.270 C 
HETATM   37  N   UNL     1     -45.043  61.431 -49.422  1.00  0.00    -0.365 N 
HETATM   38  H   UNL     1     -44.641  62.080 -50.089  1.00  0.00     0.159 HD
HETATM   39  H   UNL     1     -45.240  61.735 -48.480  1.00  0.00     0.159 HD
HETATM   40  O   UNL     1     -46.050  59.431 -49.075  1.00  0.00    -0.266 OA
ENDBRANCH  34  36
BRANCH  35  41
HETATM   41  N   UNL     1     -45.350  57.404 -51.117  1.00  0.00    -0.299 NA
HETATM   42  H   UNL     1     -46.055  56.756 -51.498  1.00  0.00     0.124 HD
HETATM   43  H   UNL     1     -44.515  56.865 -50.873  1.00  0.00     0.124 HD
ENDBRANCH  35  41
ENDBRANCH   2  31
TORSDOF 11
ENDMDL
MODEL 2
REMARK VINA RESULT:      -7.9      1.699      2.237
REMARK  11 active torsions:
REMARK  status: ('A' for Active; 'I' for Inactive)
REMARK    1  A    between atoms: O_2  and  C_3 
REMARK    2  A    between atoms: C_6  and  C_7 
REMARK    3  A    between atoms: C_7  and  N_8 
REMARK    4  A    between atoms: C_7  and  C_29 
REMARK       I    between atoms: N_8  and  C_9 
REMARK    5  A    between atoms: N_8  and  C_20 
REMARK    6  A    between atoms: C_9  and  C_10 
REMARK    7  A    between atoms: C_13  and  C_14 
REMARK       I    between atoms: C_14  and  N_15 
REMARK    8  A    between atoms: C_17  and  N_18 
REMARK    9  A    between atoms: C_20  and  C_21 
REMARK   10  A    between atoms: C_21  and  N_22 
REMARK       I    between atoms: C_29  and  N_30 
REMARK   11  A    between atoms: N_30  and  C_31 
ROOT
HETATM    1  N   UNL     1     -43.174  57.252 -54.111  1.00  0.00    -0.328 N 
HETATM    2  C   UNL     1     -44.468  57.771 -53.918  1.00  0.00     0.265 C 
HETATM    3  O   UNL     1     -45.441  57.249 -54.459  1.00  0.00    -0.267 OA
ENDROOT
BRANCH   1   4
HETATM    4  C   UNL     1     -43.028  56.101 -55.024  1.00  0.00     0.213 C 
BRANCH   4   5
HETATM    5  C   UNL     1     -42.049  55.005 -54.637  1.00  0.00    -0.026 A 
HETATM    6  C   UNL     1     -42.378  53.970 -53.752  1.00  0.00     0.012 A 
HETATM    7  C   UNL     1     -41.497  52.906 -53.534  1.00  0.00     0.037 A 
HETATM    8  C   UNL     1     -40.282  52.834 -54.215  1.00  0.00     0.068 A 
HETATM    9  C   UNL     1     -39.929  53.861 -55.084  1.00  0.00     0.037 A 
HETATM   10  C   UNL     1     -40.806  54.932 -55.296  1.00  0.00     0.012 A 
BRANCH   8  11
HETATM   11  O   UNL     1     -39.534  51.723 -53.947  1.00  0.00    -0.356 OA
HETATM   12  C   UNL     1     -40.112  50.471 -54.302  1.00  0.00     0.210 C 
ENDBRANCH   8  11
ENDBRANCH   4   5
BRANCH   4  13
HETATM   13  C   UNL     1     -42.993  56.631 -56.476  1.00  0.00     0.245 C 
HETATM   14  N   UNL     1     -43.628  55.885 -57.432  1.00  0.00    -0.354 N 
HETATM   15  H   UNL     1     -43.808  54.915 -57.170  1.00  0.00     0.162 HD
HETATM   16  O   UNL     1     -42.303  57.629 -56.713  1.00  0.00    -0.271 OA
BRANCH  14  17
HETATM   17  C   UNL     1     -43.693  56.165 -58.862  1.00  0.00     0.084 C 
HETATM   18  C   UNL     1     -44.052  54.945 -59.715  1.00  0.00     0.025 C 
HETATM   19  C   UNL     1     -45.396  55.247 -60.377  1.00  0.00     0.002 C 
HETATM   20  C   UNL     1     -45.930  56.517 -59.733  1.00  0.00     0.002 C 
HETATM   21  C   UNL     1     -44.695  57.253 -59.242  1.00  0.00     0.025 C 
ENDBRANCH  14  17
ENDBRANCH   4  13
ENDBRANCH   1   4
BRANCH   1  22
HETATM   22  C   UNL     1     -41.953  57.794 -53.484  1.00  0.00     0.155 C 
BRANCH  22  23
HETATM   23  C   UNL     1     -41.928  57.775 -51.938  1.00  0.00     0.255 C 
BRANCH  23  24
HETATM   24  N   UNL     1     -41.760  56.399 -51.334  1.00  0.00    -0.066 N 
HETATM   25  H   UNL     1     -41.509  55.722 -52.083  1.00  0.00     0.280 HD
HETATM   26  C   UNL     1     -40.689  56.313 -50.255  1.00  0.00     0.261 C 
HETATM   27  C   UNL     1     -40.615  54.886 -49.700  1.00  0.00     0.195 C 
HETATM   28  O   UNL     1     -41.884  54.481 -49.175  1.00  0.00    -0.388 OA
HETATM   29  C   UNL     1     -42.888  54.469 -50.196  1.00  0.00     0.195 C 
HETATM   30  C   UNL     1     -43.087  55.871 -50.784  1.00  0.00     0.261 C 
ENDBRANCH  23  24
ENDBRANCH  22  23
ENDBRANCH   1  22
BRANCH   2  31
HETATM   31  C   UNL     1     -44.612  58.910 -53.055  1.00  0.00     0.115 A 
HETATM   32  S   UNL     1     -44.174  60.458 -53.616  1.00  0.00     0.019 SA
HETATM   33  N   UNL     1     -44.475  61.253 -52.195  1.00  0.00    -0.203 NA
HETATM   34  C   UNL     1     -45.006  60.393 -51.310  1.00  0.00     0.155 A 
HETATM   35  C   UNL     1     -45.121  59.027 -51.781  1.00  0.00     0.065 A 
BRANCH  34  36
HETATM   36  C   UNL     1     -45.421  60.868 -49.979  1.00  0.00     0.270 C 
HETATM   37  N   UNL     1     -45.163  62.185 -49.719  1.00  0.00    -0.365 N 
HETATM   38  H   UNL     1     -44.779  62.780 -50.444  1.00  0.00     0.159 HD
HETATM   39  H   UNL     1     -45.480  62.591 -48.851  1.00  0.00     0.159 HD
HETATM   40  O   UNL     1     -45.959  60.142 -49.148  1.00  0.00    -0.266 OA
ENDBRANCH  34  36
BRANCH  35  41
HETATM   41  N   UNL     1     -45.641  57.990 -51.063  1.00  0.00    -0.299 NA
HETATM   42  H   UNL     1     -46.535  58.182 -50.588  1.00  0.00     0.124 HD
HETATM   43  H   UNL     1     -45.710  57.080 -51.525  1.00  0.00     0.124 HD
ENDBRANCH  35  41
ENDBRANCH   2  31
TORSDOF 11
ENDMDL
MODEL 3
REMARK VINA RESULT:      -7.3      2.563      7.517
REMARK  11 active torsions:
REMARK  status: ('A' for Active; 'I' for Inactive)
REMARK    1  A    between atoms: O_2  and  C_3 
REMARK    2  A    between atoms: C_6  and  C_7 
REMARK    3  A    between atoms: C_7  and  N_8 
REMARK    4  A    between atoms: C_7  and  C_29 
REMARK       I    between atoms: N_8  and  C_9 
REMARK    5  A    between atoms: N_8  and  C_20 
REMARK    6  A    between atoms: C_9  and  C_10 
REMARK    7  A    between atoms: C_13  and  C_14 
REMARK       I    between atoms: C_14  and  N_15 
REMARK    8  A    between atoms: C_17  and  N_18 
REMARK    9  A    between atoms: C_20  and  C_21 
REMARK   10  A    between atoms: C_21  and  N_22 
REMARK       I    between atoms: C_29  and  N_30 
REMARK   11  A    between atoms: N_30  and  C_31 
ROOT
HETATM    1  N   UNL     1     -42.713  57.730 -55.484  1.00  0.00    -0.328 N 
HETATM    2  C   UNL     1     -42.260  58.978 -55.950  1.00  0.00     0.265 C 
HETATM    3  O   UNL     1     -41.412  59.612 -55.325  1.00  0.00    -0.267 OA
ENDROOT
BRANCH   1   4
HETATM    4  C   UNL     1     -42.175  57.245 -54.197  1.00  0.00     0.213 C 
BRANCH   4   5
HETATM    5  C   UNL     1     -41.708  55.801 -54.120  1.00  0.00    -0.026 A 
HETATM    6  C   UNL     1     -42.477  54.782 -53.543  1.00  0.00     0.012 A 
HETATM    7  C   UNL     1     -42.072  53.446 -53.620  1.00  0.00     0.037 A 
HETATM    8  C   UNL     1     -40.908  53.091 -54.301  1.00  0.00     0.068 A 
HETATM    9  C   UNL     1     -40.121  54.090 -54.865  1.00  0.00     0.037 A 
HETATM   10  C   UNL     1     -40.519  55.429 -54.780  1.00  0.00     0.012 A 
BRANCH   8  11
HETATM   11  O   UNL     1     -40.648  51.751 -54.343  1.00  0.00    -0.356 OA
HETATM   12  C   UNL     1     -39.514  51.304 -53.607  1.00  0.00     0.210 C 
ENDBRANCH   8  11
ENDBRANCH   4   5
BRANCH   4  13
HETATM   13  C   UNL     1     -43.072  57.782 -53.059  1.00  0.00     0.245 C 
HETATM   14  N   UNL     1     -42.609  58.857 -52.349  1.00  0.00    -0.354 N 
HETATM   15  H   UNL     1     -41.605  59.022 -52.426  1.00  0.00     0.162 HD
HETATM   16  O   UNL     1     -44.096  57.148 -52.777  1.00  0.00    -0.271 OA
BRANCH  14  17
HETATM   17  C   UNL     1     -43.260  59.505 -51.215  1.00  0.00     0.084 C 
HETATM   18  C   UNL     1     -42.325  60.392 -50.390  1.00  0.00     0.025 C 
HETATM   19  C   UNL     1     -42.842  61.824 -50.519  1.00  0.00     0.002 C 
HETATM   20  C   UNL     1     -43.916  61.809 -51.595  1.00  0.00     0.002 C 
HETATM   21  C   UNL     1     -44.448  60.386 -51.595  1.00  0.00     0.025 C 
ENDBRANCH  14  17
ENDBRANCH   4  13
ENDBRANCH   1   4
BRANCH   1  22
HETATM   22  C   UNL     1     -43.706  56.886 -56.177  1.00  0.00     0.155 C 
BRANCH  22  23
HETATM   23  C   UNL     1     -43.138  55.926 -57.248  1.00  0.00     0.255 C 
BRANCH  23  24
HETATM   24  N   UNL     1     -43.823  56.017 -58.593  1.00  0.00    -0.066 N 
HETATM   25  H   UNL     1     -43.223  56.557 -59.250  1.00  0.00     0.280 HD
HETATM   26  C   UNL     1     -44.121  54.672 -59.238  1.00  0.00     0.261 C 
HETATM   27  C   UNL     1     -44.830  54.878 -60.582  1.00  0.00     0.195 C 
HETATM   28  O   UNL     1     -46.039  55.624 -60.408  1.00  0.00    -0.388 OA
HETATM   29  C   UNL     1     -45.771  56.930 -59.884  1.00  0.00     0.195 C 
HETATM   30  C   UNL     1     -45.110  56.841 -58.504  1.00  0.00     0.261 C 
ENDBRANCH  23  24
ENDBRANCH  22  23
ENDBRANCH   1  22
BRANCH   2  31
HETATM   31  C   UNL     1     -42.803  59.469 -57.186  1.00  0.00     0.115 A 
HETATM   32  S   UNL     1     -44.067  60.612 -57.160  1.00  0.00     0.019 SA
HETATM   33  N   UNL     1     -44.278  60.679 -58.802  1.00  0.00    -0.203 NA
HETATM   34  C   UNL     1     -43.339  59.927 -59.400  1.00  0.00     0.155 A 
HETATM   35  C   UNL     1     -42.451  59.227 -58.495  1.00  0.00     0.065 A 
BRANCH  34  36
HETATM   36  C   UNL     1     -43.272  59.866 -60.870  1.00  0.00     0.270 C 
HETATM   37  N   UNL     1     -44.477  59.846 -61.513  1.00  0.00    -0.365 N 
HETATM   38  H   UNL     1     -45.336  59.943 -60.984  1.00  0.00     0.159 HD
HETATM   39  H   UNL     1     -44.503  59.870 -62.522  1.00  0.00     0.159 HD
HETATM   40  O   UNL     1     -42.212  59.833 -61.489  1.00  0.00    -0.266 OA
ENDBRANCH  34  36
BRANCH  35  41
HETATM   41  N   UNL     1     -41.418  58.419 -58.875  1.00  0.00    -0.299 NA
HETATM   42  H   UNL     1     -41.573  57.409 -58.744  1.00  0.00     0.124 HD
HETATM   43  H   UNL     1     -41.017  58.567 -59.804  1.00  0.00     0.124 HD
ENDBRANCH  35  41
ENDBRANCH   2  31
TORSDOF 11
ENDMDL
MODEL 4
REMARK VINA RESULT:      -7.3      2.225      6.233
REMARK  11 active torsions:
REMARK  status: ('A' for Active; 'I' for Inactive)
REMARK    1  A    between atoms: O_2  and  C_3 
REMARK    2  A    between atoms: C_6  and  C_7 
REMARK    3  A    between atoms: C_7  and  N_8 
REMARK    4  A    between atoms: C_7  and  C_29 
REMARK       I    between atoms: N_8  and  C_9 
REMARK    5  A    between atoms: N_8  and  C_20 
REMARK    6  A    between atoms: C_9  and  C_10 
REMARK    7  A    between atoms: C_13  and  C_14 
REMARK       I    between atoms: C_14  and  N_15 
REMARK    8  A    between atoms: C_17  and  N_18 
REMARK    9  A    between atoms: C_20  and  C_21 
REMARK   10  A    between atoms: C_21  and  N_22 
REMARK       I    between atoms: C_29  and  N_30 
REMARK   11  A    between atoms: N_30  and  C_31 
ROOT
HETATM    1  N   UNL     1     -43.167  57.484 -53.963  1.00  0.00    -0.328 N 
HETATM    2  C   UNL     1     -42.511  58.061 -52.859  1.00  0.00     0.265 C 
HETATM    3  O   UNL     1     -41.358  57.742 -52.577  1.00  0.00    -0.267 OA
ENDROOT
BRANCH   1   4
HETATM    4  C   UNL     1     -42.440  56.449 -54.726  1.00  0.00     0.213 C 
BRANCH   4   5
HETATM    5  C   UNL     1     -42.545  56.478 -56.242  1.00  0.00    -0.026 A 
HETATM    6  C   UNL     1     -43.094  55.425 -56.986  1.00  0.00     0.012 A 
HETATM    7  C   UNL     1     -43.301  55.552 -58.363  1.00  0.00     0.037 A 
HETATM    8  C   UNL     1     -42.995  56.741 -59.025  1.00  0.00     0.068 A 
HETATM    9  C   UNL     1     -42.431  57.791 -58.307  1.00  0.00     0.037 A 
HETATM   10  C   UNL     1     -42.214  57.662 -56.930  1.00  0.00     0.012 A 
BRANCH   8  11
HETATM   11  O   UNL     1     -43.286  56.752 -60.359  1.00  0.00    -0.356 OA
HETATM   12  C   UNL     1     -44.505  56.126 -60.745  1.00  0.00     0.210 C 
ENDBRANCH   8  11
ENDBRANCH   4   5
BRANCH   4  13
HETATM   13  C   UNL     1     -42.624  55.094 -54.008  1.00  0.00     0.245 C 
HETATM   14  N   UNL     1     -41.511  54.520 -53.454  1.00  0.00    -0.354 N 
HETATM   15  H   UNL     1     -40.623  54.875 -53.811  1.00  0.00     0.162 HD
HETATM   16  O   UNL     1     -43.732  54.548 -54.071  1.00  0.00    -0.271 OA
BRANCH  14  17
HETATM   17  C   UNL     1     -41.437  53.236 -52.766  1.00  0.00     0.084 C 
HETATM   18  C   UNL     1     -40.251  52.371 -53.200  1.00  0.00     0.025 C 
HETATM   19  C   UNL     1     -39.350  52.207 -51.977  1.00  0.00     0.002 C 
HETATM   20  C   UNL     1     -39.874  53.159 -50.913  1.00  0.00     0.002 C 
HETATM   21  C   UNL     1     -41.344  53.344 -51.246  1.00  0.00     0.025 C 
ENDBRANCH  14  17
ENDBRANCH   4  13
ENDBRANCH   1   4
BRANCH   1  22
HETATM   22  C   UNL     1     -44.537  57.822 -54.394  1.00  0.00     0.155 C 
BRANCH  22  23
HETATM   23  C   UNL     1     -44.703  59.199 -55.080  1.00  0.00     0.255 C 
BRANCH  23  24
HETATM   24  N   UNL     1     -45.914  59.305 -55.980  1.00  0.00    -0.066 N 
HETATM   25  H   UNL     1     -46.777  59.182 -55.412  1.00  0.00     0.280 HD
HETATM   26  C   UNL     1     -46.032  60.629 -56.721  1.00  0.00     0.261 C 
HETATM   27  C   UNL     1     -47.277  60.623 -57.614  1.00  0.00     0.195 C 
HETATM   28  O   UNL     1     -47.228  59.535 -58.544  1.00  0.00    -0.388 OA
HETATM   29  C   UNL     1     -47.207  58.274 -57.866  1.00  0.00     0.195 C 
HETATM   30  C   UNL     1     -45.961  58.149 -56.982  1.00  0.00     0.261 C 
ENDBRANCH  23  24
ENDBRANCH  22  23
ENDBRANCH   1  22
BRANCH   2  31
HETATM   31  C   UNL     1     -43.225  59.046 -52.095  1.00  0.00     0.115 A 
HETATM   32  S   UNL     1     -42.926  60.703 -52.360  1.00  0.00     0.019 SA
HETATM   33  N   UNL     1     -43.935  61.256 -51.170  1.00  0.00    -0.203 NA
HETATM   34  C   UNL     1     -44.589  60.218 -50.624  1.00  0.00     0.155 A 
HETATM   35  C   UNL     1     -44.219  58.919 -51.151  1.00  0.00     0.065 A 
BRANCH  34  36
HETATM   36  C   UNL     1     -45.597  60.450 -49.576  1.00  0.00     0.270 C 
HETATM   37  N   UNL     1     -46.017  61.744 -49.441  1.00  0.00    -0.365 N 
HETATM   38  H   UNL     1     -45.689  62.454 -50.087  1.00  0.00     0.159 HD
HETATM   39  H   UNL     1     -46.753  61.963 -48.786  1.00  0.00     0.159 HD
HETATM   40  O   UNL     1     -46.038  59.554 -48.862  1.00  0.00    -0.266 OA
ENDBRANCH  34  36
BRANCH  35  41
HETATM   41  N   UNL     1     -44.759  57.729 -50.760  1.00  0.00    -0.299 NA
HETATM   42  H   UNL     1     -45.190  57.724 -49.823  1.00  0.00     0.124 HD
HETATM   43  H   UNL     1     -45.394  57.259 -51.409  1.00  0.00     0.124 HD
ENDBRANCH  35  41
ENDBRANCH   2  31
TORSDOF 11
ENDMDL
MODEL 5
REMARK VINA RESULT:      -7.2      2.730      6.861
REMARK  11 active torsions:
REMARK  status: ('A' for Active; 'I' for Inactive)
REMARK    1  A    between atoms: O_2  and  C_3 
REMARK    2  A    between atoms: C_6  and  C_7 
REMARK    3  A    between atoms: C_7  and  N_8 
REMARK    4  A    between atoms: C_7  and  C_29 
REMARK       I    between atoms: N_8  and  C_9 
REMARK    5  A    between atoms: N_8  and  C_20 
REMARK    6  A    between atoms: C_9  and  C_10 
REMARK    7  A    between atoms: C_13  and  C_14 
REMARK       I    between atoms: C_14  and  N_15 
REMARK    8  A    between atoms: C_17  and  N_18 
REMARK    9  A    between atoms: C_20  and  C_21 
REMARK   10  A    between atoms: C_21  and  N_22 
REMARK       I    between atoms: C_29  and  N_30 
REMARK   11  A    between atoms: N_30  and  C_31 
ROOT
HETATM    1  N   UNL     1     -42.287  57.953 -54.810  1.00  0.00    -0.328 N 
HETATM    2  C   UNL     1     -41.982  59.322 -54.923  1.00  0.00     0.265 C 
HETATM    3  O   UNL     1     -41.101  59.829 -54.231  1.00  0.00    -0.267 OA
ENDROOT
BRANCH   1   4
HETATM    4  C   UNL     1     -41.550  57.170 -53.797  1.00  0.00     0.213 C 
BRANCH   4   5
HETATM    5  C   UNL     1     -41.367  55.681 -54.044  1.00  0.00    -0.026 A 
HETATM    6  C   UNL     1     -40.341  55.164 -54.845  1.00  0.00     0.012 A 
HETATM    7  C   UNL     1     -40.124  53.785 -54.930  1.00  0.00     0.037 A 
HETATM    8  C   UNL     1     -40.903  52.893 -54.196  1.00  0.00     0.068 A 
HETATM    9  C   UNL     1     -41.939  53.386 -53.409  1.00  0.00     0.037 A 
HETATM   10  C   UNL     1     -42.165  54.765 -53.330  1.00  0.00     0.012 A 
BRANCH   8  11
HETATM   11  O   UNL     1     -40.560  51.578 -54.331  1.00  0.00    -0.356 OA
HETATM   12  C   UNL     1     -39.441  51.135 -53.570  1.00  0.00     0.210 C 
ENDBRANCH   8  11
ENDBRANCH   4   5
BRANCH   4  13
HETATM   13  C   UNL     1     -42.014  57.625 -52.396  1.00  0.00     0.245 C 
HETATM   14  N   UNL     1     -43.247  58.214 -52.303  1.00  0.00    -0.354 N 
HETATM   15  H   UNL     1     -43.620  58.569 -53.184  1.00  0.00     0.162 HD
HETATM   16  O   UNL     1     -41.209  57.541 -51.461  1.00  0.00    -0.271 OA
BRANCH  14  17
HETATM   17  C   UNL     1     -43.871  58.754 -51.100  1.00  0.00     0.084 C 
HETATM   18  C   UNL     1     -43.665  60.261 -50.920  1.00  0.00     0.025 C 
HETATM   19  C   UNL     1     -45.045  60.911 -51.000  1.00  0.00     0.002 C 
HETATM   20  C   UNL     1     -46.014  59.833 -51.461  1.00  0.00     0.002 C 
HETATM   21  C   UNL     1     -45.379  58.525 -51.021  1.00  0.00     0.025 C 
ENDBRANCH  14  17
ENDBRANCH   4  13
ENDBRANCH   1   4
BRANCH   1  22
HETATM   22  C   UNL     1     -43.307  57.252 -55.614  1.00  0.00     0.155 C 
BRANCH  22  23
HETATM   23  C   UNL     1     -42.851  56.787 -57.017  1.00  0.00     0.255 C 
BRANCH  23  24
HETATM   24  N   UNL     1     -43.982  56.420 -57.951  1.00  0.00    -0.066 N 
HETATM   25  H   UNL     1     -44.630  55.764 -57.467  1.00  0.00     0.280 HD
HETATM   26  C   UNL     1     -44.802  57.604 -58.440  1.00  0.00     0.261 C 
HETATM   27  C   UNL     1     -45.905  57.124 -59.390  1.00  0.00     0.195 C 
HETATM   28  O   UNL     1     -45.344  56.415 -60.501  1.00  0.00    -0.388 OA
HETATM   29  C   UNL     1     -44.642  55.245 -60.067  1.00  0.00     0.195 C 
HETATM   30  C   UNL     1     -43.471  55.618 -59.150  1.00  0.00     0.261 C 
ENDBRANCH  23  24
ENDBRANCH  22  23
ENDBRANCH   1  22
BRANCH   2  31
HETATM   31  C   UNL     1     -42.717  60.095 -55.885  1.00  0.00     0.115 A 
HETATM   32  S   UNL     1     -44.224  60.767 -55.458  1.00  0.00     0.019 SA
HETATM   33  N   UNL     1     -44.560  61.409 -56.947  1.00  0.00    -0.203 NA
HETATM   34  C   UNL     1     -43.506  61.221 -57.758  1.00  0.00     0.155 A 
HETATM   35  C   UNL     1     -42.408  60.481 -57.170  1.00  0.00     0.065 A 
BRANCH  34  36
HETATM   36  C   UNL     1     -43.528  61.756 -59.130  1.00  0.00     0.270 C 
HETATM   37  N   UNL     1     -43.268  60.850 -60.119  1.00  0.00    -0.365 N 
HETATM   38  H   UNL     1     -43.146  59.870 -59.889  1.00  0.00     0.159 HD
HETATM   39  H   UNL     1     -43.331  61.135 -61.085  1.00  0.00     0.159 HD
HETATM   40  O   UNL     1     -43.760  62.935 -59.384  1.00  0.00    -0.266 OA
ENDBRANCH  34  36
BRANCH  35  41
HETATM   41  N   UNL     1     -41.234  60.184 -57.799  1.00  0.00    -0.299 NA
HETATM   42  H   UNL     1     -40.941  59.197 -57.750  1.00  0.00     0.124 HD
HETATM   43  H   UNL     1     -41.115  60.509 -58.761  1.00  0.00     0.124 HD
ENDBRANCH  35  41
ENDBRANCH   2  31
TORSDOF 11
ENDMDL
MODEL 6
REMARK VINA RESULT:      -7.1      2.820      6.661
REMARK  11 active torsions:
REMARK  status: ('A' for Active; 'I' for Inactive)
REMARK    1  A    between atoms: O_2  and  C_3 
REMARK    2  A    between atoms: C_6  and  C_7 
REMARK    3  A    between atoms: C_7  and  N_8 
REMARK    4  A    between atoms: C_7  and  C_29 
REMARK       I    between atoms: N_8  and  C_9 
REMARK    5  A    between atoms: N_8  and  C_20 
REMARK    6  A    between atoms: C_9  and  C_10 
REMARK    7  A    between atoms: C_13  and  C_14 
REMARK       I    between atoms: C_14  and  N_15 
REMARK    8  A    between atoms: C_17  and  N_18 
REMARK    9  A    between atoms: C_20  and  C_21 
REMARK   10  A    between atoms: C_21  and  N_22 
REMARK       I    between atoms: C_29  and  N_30 
REMARK   11  A    between atoms: N_30  and  C_31 
ROOT
HETATM    1  N   UNL     1     -42.964  58.703 -55.477  1.00  0.00    -0.328 N 
HETATM    2  C   UNL     1     -42.394  58.686 -54.190  1.00  0.00     0.265 C 
HETATM    3  O   UNL     1     -41.277  58.205 -54.004  1.00  0.00    -0.267 OA
ENDROOT
BRANCH   1   4
HETATM    4  C   UNL     1     -42.198  58.076 -56.573  1.00  0.00     0.213 C 
BRANCH   4   5
HETATM    5  C   UNL     1     -42.229  58.746 -57.937  1.00  0.00    -0.026 A 
HETATM    6  C   UNL     1     -42.184  60.136 -58.101  1.00  0.00     0.012 A 
HETATM    7  C   UNL     1     -42.072  60.704 -59.374  1.00  0.00     0.037 A 
HETATM    8  C   UNL     1     -41.971  59.900 -60.509  1.00  0.00     0.068 A 
HETATM    9  C   UNL     1     -42.033  58.517 -60.367  1.00  0.00     0.037 A 
HETATM   10  C   UNL     1     -42.156  57.947 -59.095  1.00  0.00     0.012 A 
BRANCH   8  11
HETATM   11  O   UNL     1     -41.821  60.576 -61.686  1.00  0.00    -0.356 OA
HETATM   12  C   UNL     1     -41.204  61.856 -61.604  1.00  0.00     0.210 C 
ENDBRANCH   8  11
ENDBRANCH   4   5
BRANCH   4  13
HETATM   13  C   UNL     1     -42.413  56.547 -56.506  1.00  0.00     0.245 C 
HETATM   14  N   UNL     1     -41.544  55.824 -55.734  1.00  0.00    -0.354 N 
HETATM   15  H   UNL     1     -40.667  56.299 -55.515  1.00  0.00     0.162 HD
HETATM   16  O   UNL     1     -43.277  56.049 -57.237  1.00  0.00    -0.271 OA
BRANCH  14  17
HETATM   17  C   UNL     1     -41.528  54.376 -55.554  1.00  0.00     0.084 C 
HETATM   18  C   UNL     1     -40.182  53.828 -55.073  1.00  0.00     0.025 C 
HETATM   19  C   UNL     1     -40.416  53.226 -53.688  1.00  0.00     0.002 C 
HETATM   20  C   UNL     1     -41.819  53.631 -53.264  1.00  0.00     0.002 C 
HETATM   21  C   UNL     1     -42.570  53.857 -54.565  1.00  0.00     0.025 C 
ENDBRANCH  14  17
ENDBRANCH   4  13
ENDBRANCH   1   4
BRANCH   1  22
HETATM   22  C   UNL     1     -44.284  59.280 -55.801  1.00  0.00     0.155 C 
BRANCH  22  23
HETATM   23  C   UNL     1     -45.451  58.270 -55.898  1.00  0.00     0.255 C 
BRANCH  23  24
HETATM   24  N   UNL     1     -46.423  58.547 -57.022  1.00  0.00    -0.066 N 
HETATM   25  H   UNL     1     -47.338  58.102 -56.804  1.00  0.00     0.280 HD
HETATM   26  C   UNL     1     -46.678  60.025 -57.282  1.00  0.00     0.261 C 
HETATM   27  C   UNL     1     -47.659  60.192 -58.448  1.00  0.00     0.195 C 
HETATM   28  O   UNL     1     -47.154  59.558 -59.629  1.00  0.00    -0.388 OA
HETATM   29  C   UNL     1     -46.992  58.150 -59.433  1.00  0.00     0.195 C 
HETATM   30  C   UNL     1     -45.978  57.866 -58.318  1.00  0.00     0.261 C 
ENDBRANCH  23  24
ENDBRANCH  22  23
ENDBRANCH   1  22
BRANCH   2  31
HETATM   31  C   UNL     1     -43.148  59.267 -53.114  1.00  0.00     0.115 A 
HETATM   32  S   UNL     1     -42.932  60.911 -52.720  1.00  0.00     0.019 SA
HETATM   33  N   UNL     1     -43.957  60.917 -51.420  1.00  0.00    -0.203 NA
HETATM   34  C   UNL     1     -44.556  59.719 -51.322  1.00  0.00     0.155 A 
HETATM   35  C   UNL     1     -44.128  58.741 -52.302  1.00  0.00     0.065 A 
BRANCH  34  36
HETATM   36  C   UNL     1     -45.566  59.484 -50.276  1.00  0.00     0.270 C 
HETATM   37  N   UNL     1     -45.366  60.158 -49.104  1.00  0.00    -0.365 N 
HETATM   38  H   UNL     1     -44.605  60.823 -49.026  1.00  0.00     0.159 HD
HETATM   39  H   UNL     1     -46.055  60.093 -48.369  1.00  0.00     0.159 HD
HETATM   40  O   UNL     1     -46.525  58.733 -50.430  1.00  0.00    -0.266 OA
ENDBRANCH  34  36
BRANCH  35  41
HETATM   41  N   UNL     1     -44.607  57.467 -52.403  1.00  0.00    -0.299 NA
HETATM   42  H   UNL     1     -44.837  57.007 -51.510  1.00  0.00     0.124 HD
HETATM   43  H   UNL     1     -45.373  57.299 -53.060  1.00  0.00     0.124 HD
ENDBRANCH  35  41
ENDBRANCH   2  31
TORSDOF 11
ENDMDL
MODEL 7
REMARK VINA RESULT:      -7.0      2.766      7.096
REMARK  11 active torsions:
REMARK  status: ('A' for Active; 'I' for Inactive)
REMARK    1  A    between atoms: O_2  and  C_3 
REMARK    2  A    between atoms: C_6  and  C_7 
REMARK    3  A    between atoms: C_7  and  N_8 
REMARK    4  A    between atoms: C_7  and  C_29 
REMARK       I    between atoms: N_8  and  C_9 
REMARK    5  A    between atoms: N_8  and  C_20 
REMARK    6  A    between atoms: C_9  and  C_10 
REMARK    7  A    between atoms: C_13  and  C_14 
REMARK       I    between atoms: C_14  and  N_15 
REMARK    8  A    between atoms: C_17  and  N_18 
REMARK    9  A    between atoms: C_20  and  C_21 
REMARK   10  A    between atoms: C_21  and  N_22 
REMARK       I    between atoms: C_29  and  N_30 
REMARK   11  A    between atoms: N_30  and  C_31 
ROOT
HETATM    1  N   UNL     1     -43.366  58.142 -54.867  1.00  0.00    -0.328 N 
HETATM    2  C   UNL     1     -44.526  58.902 -55.105  1.00  0.00     0.265 C 
HETATM    3  O   UNL     1     -45.286  59.195 -54.184  1.00  0.00    -0.267 OA
ENDROOT
BRANCH   1   4
HETATM    4  C   UNL     1     -43.130  57.668 -53.488  1.00  0.00     0.213 C 
BRANCH   4   5
HETATM    5  C   UNL     1     -41.931  58.226 -52.739  1.00  0.00    -0.026 A 
HETATM    6  C   UNL     1     -41.886  58.322 -51.342  1.00  0.00     0.012 A 
HETATM    7  C   UNL     1     -40.711  58.708 -50.688  1.00  0.00     0.037 A 
HETATM    8  C   UNL     1     -39.548  58.977 -51.409  1.00  0.00     0.068 A 
HETATM    9  C   UNL     1     -39.579  58.906 -52.798  1.00  0.00     0.037 A 
HETATM   10  C   UNL     1     -40.756  58.530 -53.455  1.00  0.00     0.012 A 
BRANCH   8  11
HETATM   11  O   UNL     1     -38.459  59.299 -50.650  1.00  0.00    -0.356 OA
HETATM   12  C   UNL     1     -38.625  60.372 -49.729  1.00  0.00     0.210 C 
ENDBRANCH   8  11
ENDBRANCH   4   5
BRANCH   4  13
HETATM   13  C   UNL     1     -43.369  56.142 -53.449  1.00  0.00     0.245 C 
HETATM   14  N   UNL     1     -42.318  55.352 -53.070  1.00  0.00    -0.354 N 
HETATM   15  H   UNL     1     -41.402  55.796 -53.135  1.00  0.00     0.162 HD
HETATM   16  O   UNL     1     -44.450  55.713 -53.869  1.00  0.00    -0.271 OA
BRANCH  14  17
HETATM   17  C   UNL     1     -42.299  53.894 -52.999  1.00  0.00     0.084 C 
HETATM   18  C   UNL     1     -41.740  53.221 -54.255  1.00  0.00     0.025 C 
HETATM   19  C   UNL     1     -40.464  52.492 -53.837  1.00  0.00     0.002 C 
HETATM   20  C   UNL     1     -40.151  52.930 -52.415  1.00  0.00     0.002 C 
HETATM   21  C   UNL     1     -41.492  53.336 -51.828  1.00  0.00     0.025 C 
ENDBRANCH  14  17
ENDBRANCH   4  13
ENDBRANCH   1   4
BRANCH   1  22
HETATM   22  C   UNL     1     -42.384  57.765 -55.902  1.00  0.00     0.155 C 
BRANCH  22  23
HETATM   23  C   UNL     1     -42.589  56.374 -56.546  1.00  0.00     0.255 C 
BRANCH  23  24
HETATM   24  N   UNL     1     -42.510  56.367 -58.055  1.00  0.00    -0.066 N 
HETATM   25  H   UNL     1     -41.690  55.800 -58.355  1.00  0.00     0.280 HD
HETATM   26  C   UNL     1     -43.742  55.803 -58.747  1.00  0.00     0.261 C 
HETATM   27  C   UNL     1     -43.564  55.861 -60.269  1.00  0.00     0.195 C 
HETATM   28  O   UNL     1     -43.323  57.205 -60.700  1.00  0.00    -0.388 OA
HETATM   29  C   UNL     1     -42.117  57.724 -60.129  1.00  0.00     0.195 C 
HETATM   30  C   UNL     1     -42.210  57.767 -58.599  1.00  0.00     0.261 C 
ENDBRANCH  23  24
ENDBRANCH  22  23
ENDBRANCH   1  22
BRANCH   2  31
HETATM   31  C   UNL     1     -44.776  59.340 -56.451  1.00  0.00     0.115 A 
HETATM   32  S   UNL     1     -43.978  60.719 -57.054  1.00  0.00     0.019 SA
HETATM   33  N   UNL     1     -44.735  60.730 -58.527  1.00  0.00    -0.203 NA
HETATM   34  C   UNL     1     -45.519  59.645 -58.631  1.00  0.00     0.155 A 
HETATM   35  C   UNL     1     -45.552  58.802 -57.453  1.00  0.00     0.065 A 
BRANCH  34  36
HETATM   36  C   UNL     1     -46.259  59.388 -59.878  1.00  0.00     0.270 C 
HETATM   37  N   UNL     1     -45.500  59.335 -61.013  1.00  0.00    -0.365 N 
HETATM   38  H   UNL     1     -44.490  59.399 -60.950  1.00  0.00     0.159 HD
HETATM   39  H   UNL     1     -45.935  59.098 -61.892  1.00  0.00     0.159 HD
HETATM   40  O   UNL     1     -47.477  59.233 -59.912  1.00  0.00    -0.266 OA
ENDBRANCH  34  36
BRANCH  35  41
HETATM   41  N   UNL     1     -46.265  57.644 -57.335  1.00  0.00    -0.299 NA
HETATM   42  H   UNL     1     -46.011  56.896 -57.997  1.00  0.00     0.124 HD
HETATM   43  H   UNL     1     -46.353  57.234 -56.402  1.00  0.00     0.124 HD
ENDBRANCH  35  41
ENDBRANCH   2  31
TORSDOF 11
ENDMDL
MODEL 8
REMARK VINA RESULT:      -7.0      2.638      7.242
REMARK  11 active torsions:
REMARK  status: ('A' for Active; 'I' for Inactive)
REMARK    1  A    between atoms: O_2  and  C_3 
REMARK    2  A    between atoms: C_6  and  C_7 
REMARK    3  A    between atoms: C_7  and  N_8 
REMARK    4  A    between atoms: C_7  and  C_29 
REMARK       I    between atoms: N_8  and  C_9 
REMARK    5  A    between atoms: N_8  and  C_20 
REMARK    6  A    between atoms: C_9  and  C_10 
REMARK    7  A    between atoms: C_13  and  C_14 
REMARK       I    between atoms: C_14  and  N_15 
REMARK    8  A    between atoms: C_17  and  N_18 
REMARK    9  A    between atoms: C_20  and  C_21 
REMARK   10  A    between atoms: C_21  and  N_22 
REMARK       I    between atoms: C_29  and  N_30 
REMARK   11  A    between atoms: N_30  and  C_31 
ROOT
HETATM    1  N   UNL     1     -43.149  57.744 -53.349  1.00  0.00    -0.328 N 
HETATM    2  C   UNL     1     -41.981  57.930 -54.112  1.00  0.00     0.265 C 
HETATM    3  O   UNL     1     -40.872  57.904 -53.580  1.00  0.00    -0.267 OA
ENDROOT
BRANCH   1   4
HETATM    4  C   UNL     1     -42.993  57.576 -51.889  1.00  0.00     0.213 C 
BRANCH   4   5
HETATM    5  C   UNL     1     -42.437  56.256 -51.381  1.00  0.00    -0.026 A 
HETATM    6  C   UNL     1     -42.694  55.031 -52.009  1.00  0.00     0.012 A 
HETATM    7  C   UNL     1     -42.049  53.862 -51.592  1.00  0.00     0.037 A 
HETATM    8  C   UNL     1     -41.111  53.893 -50.561  1.00  0.00     0.068 A 
HETATM    9  C   UNL     1     -40.855  55.097 -49.913  1.00  0.00     0.037 A 
HETATM   10  C   UNL     1     -41.507  56.267 -50.322  1.00  0.00     0.012 A 
BRANCH   8  11
HETATM   11  O   UNL     1     -40.519  52.695 -50.281  1.00  0.00    -0.356 OA
HETATM   12  C   UNL     1     -39.897  52.026 -51.373  1.00  0.00     0.210 C 
ENDBRANCH   8  11
ENDBRANCH   4   5
BRANCH   4  13
HETATM   13  C   UNL     1     -44.245  58.157 -51.195  1.00  0.00     0.245 C 
HETATM   14  N   UNL     1     -44.198  59.470 -50.810  1.00  0.00    -0.354 N 
HETATM   15  H   UNL     1     -43.259  59.863 -50.742  1.00  0.00     0.162 HD
HETATM   16  O   UNL     1     -45.169  57.382 -50.921  1.00  0.00    -0.271 OA
BRANCH  14  17
HETATM   17  C   UNL     1     -45.237  60.215 -50.108  1.00  0.00     0.084 C 
HETATM   18  C   UNL     1     -44.699  61.158 -49.029  1.00  0.00     0.025 C 
HETATM   19  C   UNL     1     -45.050  62.579 -49.465  1.00  0.00     0.002 C 
HETATM   20  C   UNL     1     -45.569  62.487 -50.892  1.00  0.00     0.002 C 
HETATM   21  C   UNL     1     -46.114  61.074 -51.017  1.00  0.00     0.025 C 
ENDBRANCH  14  17
ENDBRANCH   4  13
ENDBRANCH   1   4
BRANCH   1  22
HETATM   22  C   UNL     1     -44.517  57.732 -53.901  1.00  0.00     0.155 C 
BRANCH  22  23
HETATM   23  C   UNL     1     -45.170  59.119 -54.104  1.00  0.00     0.255 C 
BRANCH  23  24
HETATM   24  N   UNL     1     -45.942  59.261 -55.396  1.00  0.00    -0.066 N 
HETATM   25  H   UNL     1     -46.962  59.232 -55.194  1.00  0.00     0.280 HD
HETATM   26  C   UNL     1     -45.659  60.547 -56.160  1.00  0.00     0.261 C 
HETATM   27  C   UNL     1     -46.475  60.580 -57.457  1.00  0.00     0.195 C 
HETATM   28  O   UNL     1     -46.176  59.442 -58.272  1.00  0.00    -0.388 OA
HETATM   29  C   UNL     1     -46.520  58.222 -57.606  1.00  0.00     0.195 C 
HETATM   30  C   UNL     1     -45.711  58.058 -56.314  1.00  0.00     0.261 C 
ENDBRANCH  23  24
ENDBRANCH  22  23
ENDBRANCH   1  22
BRANCH   2  31
HETATM   31  C   UNL     1     -42.129  58.124 -55.528  1.00  0.00     0.115 A 
HETATM   32  S   UNL     1     -42.132  59.703 -56.169  1.00  0.00     0.019 SA
HETATM   33  N   UNL     1     -42.417  59.256 -57.737  1.00  0.00    -0.203 NA
HETATM   34  C   UNL     1     -42.411  57.915 -57.824  1.00  0.00     0.155 A 
HETATM   35  C   UNL     1     -42.224  57.224 -56.564  1.00  0.00     0.065 A 
BRANCH  34  36
HETATM   36  C   UNL     1     -42.583  57.261 -59.132  1.00  0.00     0.270 C 
HETATM   37  N   UNL     1     -41.703  57.649 -60.104  1.00  0.00    -0.365 N 
HETATM   38  H   UNL     1     -40.950  58.290 -59.879  1.00  0.00     0.159 HD
HETATM   39  H   UNL     1     -41.723  57.193 -61.004  1.00  0.00     0.159 HD
HETATM   40  O   UNL     1     -43.455  56.425 -59.352  1.00  0.00    -0.266 OA
ENDBRANCH  34  36
BRANCH  35  41
HETATM   41  N   UNL     1     -42.170  55.869 -56.412  1.00  0.00    -0.299 NA
HETATM   42  H   UNL     1     -41.484  55.382 -57.008  1.00  0.00     0.124 HD
HETATM   43  H   UNL     1     -42.091  55.501 -55.461  1.00  0.00     0.124 HD
ENDBRANCH  35  41
ENDBRANCH   2  31
TORSDOF 11
ENDMDL
MODEL 9
REMARK VINA RESULT:      -7.0      2.436      3.268
REMARK  11 active torsions:
REMARK  status: ('A' for Active; 'I' for Inactive)
REMARK    1  A    between atoms: O_2  and  C_3 
REMARK    2  A    between atoms: C_6  and  C_7 
REMARK    3  A    between atoms: C_7  and  N_8 
REMARK    4  A    between atoms: C_7  and  C_29 
REMARK       I    between atoms: N_8  and  C_9 
REMARK    5  A    between atoms: N_8  and  C_20 
REMARK    6  A    between atoms: C_9  and  C_10 
REMARK    7  A    between atoms: C_13  and  C_14 
REMARK       I    between atoms: C_14  and  N_15 
REMARK    8  A    between atoms: C_17  and  N_18 
REMARK    9  A    between atoms: C_20  and  C_21 
REMARK   10  A    between atoms: C_21  and  N_22 
REMARK       I    between atoms: C_29  and  N_30 
REMARK   11  A    between atoms: N_30  and  C_31 
ROOT
HETATM    1  N   UNL     1     -43.161  57.784 -53.236  1.00  0.00    -0.328 N 
HETATM    2  C   UNL     1     -44.300  58.610 -53.205  1.00  0.00     0.265 C 
HETATM    3  O   UNL     1     -45.009  58.741 -54.201  1.00  0.00    -0.267 OA
ENDROOT
BRANCH   1   4
HETATM    4  C   UNL     1     -42.824  57.131 -54.518  1.00  0.00     0.213 C 
BRANCH   4   5
HETATM    5  C   UNL     1     -42.132  55.779 -54.467  1.00  0.00    -0.026 A 
HETATM    6  C   UNL     1     -42.834  54.567 -54.425  1.00  0.00     0.012 A 
HETATM    7  C   UNL     1     -42.161  53.345 -54.523  1.00  0.00     0.037 A 
HETATM    8  C   UNL     1     -40.778  53.303 -54.696  1.00  0.00     0.068 A 
HETATM    9  C   UNL     1     -40.062  54.496 -54.722  1.00  0.00     0.037 A 
HETATM   10  C   UNL     1     -40.732  55.720 -54.614  1.00  0.00     0.012 A 
BRANCH   8  11
HETATM   11  O   UNL     1     -40.249  52.051 -54.824  1.00  0.00    -0.356 OA
HETATM   12  C   UNL     1     -39.641  51.500 -53.660  1.00  0.00     0.210 C 
ENDBRANCH   8  11
ENDBRANCH   4   5
BRANCH   4  13
HETATM   13  C   UNL     1     -42.263  58.203 -55.478  1.00  0.00     0.245 C 
HETATM   14  N   UNL     1     -42.546  58.063 -56.810  1.00  0.00    -0.354 N 
HETATM   15  H   UNL     1     -42.840  57.127 -57.090  1.00  0.00     0.162 HD
HETATM   16  O   UNL     1     -41.498  59.057 -55.013  1.00  0.00    -0.271 OA
BRANCH  14  17
HETATM   17  C   UNL     1     -42.093  58.924 -57.898  1.00  0.00     0.084 C 
HETATM   18  C   UNL     1     -41.820  58.176 -59.205  1.00  0.00     0.025 C 
HETATM   19  C   UNL     1     -42.820  58.701 -60.234  1.00  0.00     0.002 C 
HETATM   20  C   UNL     1     -43.818  59.564 -59.478  1.00  0.00     0.002 C 
HETATM   21  C   UNL     1     -43.064  60.049 -58.252  1.00  0.00     0.025 C 
ENDBRANCH  14  17
ENDBRANCH   4  13
ENDBRANCH   1   4
BRANCH   1  22
HETATM   22  C   UNL     1     -42.267  57.545 -52.086  1.00  0.00     0.155 C 
BRANCH  22  23
HETATM   23  C   UNL     1     -42.697  56.409 -51.128  1.00  0.00     0.255 C 
BRANCH  23  24
HETATM   24  N   UNL     1     -41.612  55.398 -50.834  1.00  0.00    -0.066 N 
HETATM   25  H   UNL     1     -40.858  55.483 -51.547  1.00  0.00     0.280 HD
HETATM   26  C   UNL     1     -40.971  55.545 -49.462  1.00  0.00     0.261 C 
HETATM   27  C   UNL     1     -39.903  54.464 -49.261  1.00  0.00     0.195 C 
HETATM   28  O   UNL     1     -40.471  53.157 -49.407  1.00  0.00    -0.388 OA
HETATM   29  C   UNL     1     -41.001  52.967 -50.723  1.00  0.00     0.195 C 
HETATM   30  C   UNL     1     -42.127  53.967 -51.010  1.00  0.00     0.261 C 
ENDBRANCH  23  24
ENDBRANCH  22  23
ENDBRANCH   1  22
BRANCH   2  31
HETATM   31  C   UNL     1     -44.614  59.272 -51.969  1.00  0.00     0.115 A 
HETATM   32  S   UNL     1     -45.792  58.610 -50.930  1.00  0.00     0.019 SA
HETATM   33  N   UNL     1     -45.744  59.828 -49.810  1.00  0.00    -0.203 NA
HETATM   34  C   UNL     1     -44.774  60.696 -50.140  1.00  0.00     0.155 A 
HETATM   35  C   UNL     1     -44.081  60.394 -51.377  1.00  0.00     0.065 A 
BRANCH  34  36
HETATM   36  C   UNL     1     -44.485  61.845 -49.266  1.00  0.00     0.270 C 
HETATM   37  N   UNL     1     -44.210  63.019 -49.910  1.00  0.00    -0.365 N 
HETATM   38  H   UNL     1     -44.284  63.073 -50.919  1.00  0.00     0.159 HD
HETATM   39  H   UNL     1     -44.068  63.861 -49.370  1.00  0.00     0.159 HD
HETATM   40  O   UNL     1     -44.484  61.769 -48.040  1.00  0.00    -0.266 OA
ENDBRANCH  34  36
BRANCH  35  41
HETATM   41  N   UNL     1     -43.055  61.126 -51.902  1.00  0.00    -0.299 NA
HETATM   42  H   UNL     1     -43.019  62.114 -51.609  1.00  0.00     0.124 HD
HETATM   43  H   UNL     1     -42.112  60.735 -51.838  1.00  0.00     0.124 HD
ENDBRANCH  35  41
ENDBRANCH   2  31
TORSDOF 11
ENDMDL
MODEL 10
REMARK VINA RESULT:      -6.8      3.027      8.013
REMARK  11 active torsions:
REMARK  status: ('A' for Active; 'I' for Inactive)
REMARK    1  A    between atoms: O_2  and  C_3 
REMARK    2  A    between atoms: C_6  and  C_7 
REMARK    3  A    between atoms: C_7  and  N_8 
REMARK    4  A    between atoms: C_7  and  C_29 
REMARK       I    between atoms: N_8  and  C_9 
REMARK    5  A    between atoms: N_8  and  C_20 
REMARK    6  A    between atoms: C_9  and  C_10 
REMARK    7  A    between atoms: C_13  and  C_14 
REMARK       I    between atoms: C_14  and  N_15 
REMARK    8  A    between atoms: C_17  and  N_18 
REMARK    9  A    between atoms: C_20  and  C_21 
REMARK   10  A    between atoms: C_21  and  N_22 
REMARK       I    between atoms: C_29  and  N_30 
REMARK   11  A    between atoms: N_30  and  C_31 
ROOT
HETATM    1  N   UNL     1     -43.069  57.942 -54.123  1.00  0.00    -0.328 N 
HETATM    2  C   UNL     1     -43.945  57.147 -54.885  1.00  0.00     0.265 C 
HETATM    3  O   UNL     1     -44.732  56.378 -54.338  1.00  0.00    -0.267 OA
ENDROOT
BRANCH   1   4
HETATM    4  C   UNL     1     -43.095  57.774 -52.656  1.00  0.00     0.213 C 
BRANCH   4   5
HETATM    5  C   UNL     1     -43.642  58.918 -51.818  1.00  0.00    -0.026 A 
HETATM    6  C   UNL     1     -42.820  59.777 -51.077  1.00  0.00     0.012 A 
HETATM    7  C   UNL     1     -43.351  60.901 -50.435  1.00  0.00     0.037 A 
HETATM    8  C   UNL     1     -44.706  61.211 -50.544  1.00  0.00     0.068 A 
HETATM    9  C   UNL     1     -45.542  60.360 -51.260  1.00  0.00     0.037 A 
HETATM   10  C   UNL     1     -45.014  59.229 -51.895  1.00  0.00     0.012 A 
BRANCH   8  11
HETATM   11  O   UNL     1     -45.090  62.358 -49.909  1.00  0.00    -0.356 OA
HETATM   12  C   UNL     1     -46.417  62.382 -49.395  1.00  0.00     0.210 C 
ENDBRANCH   8  11
ENDBRANCH   4   5
BRANCH   4  13
HETATM   13  C   UNL     1     -41.766  57.119 -52.217  1.00  0.00     0.245 C 
HETATM   14  N   UNL     1     -41.832  56.153 -51.248  1.00  0.00    -0.354 N 
HETATM   15  H   UNL     1     -42.690  56.159 -50.695  1.00  0.00     0.162 HD
HETATM   16  O   UNL     1     -40.713  57.577 -52.674  1.00  0.00    -0.271 OA
BRANCH  14  17
HETATM   17  C   UNL     1     -40.714  55.431 -50.653  1.00  0.00     0.084 C 
HETATM   18  C   UNL     1     -40.928  55.062 -49.182  1.00  0.00     0.025 C 
HETATM   19  C   UNL     1     -40.955  53.537 -49.106  1.00  0.00     0.002 C 
HETATM   20  C   UNL     1     -40.999  53.025 -50.538  1.00  0.00     0.002 C 
HETATM   21  C   UNL     1     -40.361  54.127 -51.365  1.00  0.00     0.025 C 
ENDBRANCH  14  17
ENDBRANCH   4  13
ENDBRANCH   1   4
BRANCH   1  22
HETATM   22  C   UNL     1     -42.111  58.912 -54.689  1.00  0.00     0.155 C 
BRANCH  22  23
HETATM   23  C   UNL     1     -42.601  60.377 -54.757  1.00  0.00     0.255 C 
BRANCH  23  24
HETATM   24  N   UNL     1     -42.188  61.115 -56.011  1.00  0.00    -0.066 N 
HETATM   25  H   UNL     1     -41.388  61.744 -55.793  1.00  0.00     0.280 HD
HETATM   26  C   UNL     1     -41.768  60.212 -57.161  1.00  0.00     0.261 C 
HETATM   27  C   UNL     1     -41.389  61.058 -58.382  1.00  0.00     0.195 C 
HETATM   28  O   UNL     1     -42.483  61.892 -58.779  1.00  0.00    -0.388 OA
HETATM   29  C   UNL     1     -42.836  62.812 -57.741  1.00  0.00     0.195 C 
HETATM   30  C   UNL     1     -43.291  62.067 -56.481  1.00  0.00     0.261 C 
ENDBRANCH  23  24
ENDBRANCH  22  23
ENDBRANCH   1  22
BRANCH   2  31
HETATM   31  C   UNL     1     -43.903  57.284 -56.315  1.00  0.00     0.115 A 
HETATM   32  S   UNL     1     -44.944  58.388 -57.090  1.00  0.00     0.019 SA
HETATM   33  N   UNL     1     -44.485  58.008 -58.635  1.00  0.00    -0.203 NA
HETATM   34  C   UNL     1     -43.474  57.125 -58.592  1.00  0.00     0.155 A 
HETATM   35  C   UNL     1     -43.094  56.697 -57.261  1.00  0.00     0.065 A 
BRANCH  34  36
HETATM   36  C   UNL     1     -42.842  56.669 -59.842  1.00  0.00     0.270 C 
HETATM   37  N   UNL     1     -41.502  56.917 -59.947  1.00  0.00    -0.365 N 
HETATM   38  H   UNL     1     -40.998  57.323 -59.166  1.00  0.00     0.159 HD
HETATM   39  H   UNL     1     -40.994  56.573 -60.749  1.00  0.00     0.159 HD
HETATM   40  O   UNL     1     -43.463  56.105 -60.739  1.00  0.00    -0.266 OA
ENDBRANCH  34  36
BRANCH  35  41
HETATM   41  N   UNL     1     -42.088  55.820 -56.975  1.00  0.00    -0.299 NA
HETATM   42  H   UNL     1     -41.858  55.720 -55.975  1.00  0.00     0.124 HD
HETATM   43  H   UNL     1     -42.140  54.887 -57.390  1.00  0.00     0.124 HD
ENDBRANCH  35  41
ENDBRANCH   2  31
TORSDOF 11
ENDMDL
