MODEL 1
REMARK VINA RESULT:      -8.8      0.000      0.000
REMARK  2 active torsions:
REMARK  status: ('A' for Active; 'I' for Inactive)
REMARK    1  A    between atoms: C_2  and  C_3 
REMARK    2  A    between atoms: C_7  and  C_8 
REMARK       I    between atoms: C_8  and  N_9 
ROOT
HETATM    1  C   UNL     1     -42.815  57.653 -56.368  1.00  0.00     0.271 C 
HETATM    2  N   UNL     1     -42.565  56.637 -55.437  1.00  0.00    -0.347 N 
HETATM    3  C   UNL     1     -43.605  55.738 -54.950  1.00  0.00     0.128 C 
HETATM    4  C   UNL     1     -43.017  54.374 -54.618  1.00  0.00     0.055 C 
HETATM    5  C   UNL     1     -41.866  54.482 -53.595  1.00  0.00     0.100 C 
HETATM    6  N   UNL     1     -42.441  54.895 -52.278  1.00  0.00    -0.273 NA
HETATM    7  C   UNL     1     -41.587  54.649 -51.174  1.00  0.00     0.036 A 
HETATM    8  C   UNL     1     -40.628  53.622 -51.189  1.00  0.00     0.056 A 
HETATM    9  N   UNL     1     -40.453  52.857 -52.346  1.00  0.00    -0.324 N 
HETATM   10  C   UNL     1     -41.136  53.112 -53.509  1.00  0.00     0.245 C 
HETATM   11  O   UNL     1     -41.065  52.317 -54.446  1.00  0.00    -0.271 OA
HETATM   12  C   UNL     1     -41.828  55.326 -49.976  1.00  0.00     0.026 A 
HETATM   13  C   UNL     1     -41.085  55.028 -48.832  1.00  0.00     0.002 A 
HETATM   14  C   UNL     1     -40.114  54.028 -48.869  1.00  0.00     0.002 A 
HETATM   15  C   UNL     1     -39.888  53.316 -50.047  1.00  0.00     0.031 A 
HETATM   16  C   UNL     1     -40.836  55.531 -54.072  1.00  0.00     0.055 C 
HETATM   17  C   UNL     1     -41.481  56.851 -54.484  1.00  0.00     0.128 C 
HETATM   18  O   UNL     1     -42.240  58.740 -56.298  1.00  0.00    -0.266 OA
HETATM   19  H   UNL     1     -43.294  54.361 -52.088  1.00  0.00     0.129 HD
HETATM   20  H   UNL     1     -39.884  52.022 -52.328  1.00  0.00     0.169 HD
ENDROOT
BRANCH   1  21
HETATM   21  C   UNL     1     -43.742  57.398 -57.444  1.00  0.00     0.119 A 
HETATM   22  N   UNL     1     -44.947  58.045 -57.509  1.00  0.00    -0.273 N 
HETATM   23  N   UNL     1     -45.712  57.688 -58.554  1.00  0.00    -0.179 NA
HETATM   24  H   UNL     1     -45.301  58.737 -56.853  1.00  0.00     0.189 HD
HETATM   25  C   UNL     1     -44.949  56.822 -59.231  1.00  0.00     0.060 A 
HETATM   26  C   UNL     1     -43.692  56.647 -58.602  1.00  0.00     0.066 A 
BRANCH  25  27
HETATM   27  C   UNL     1     -45.429  56.174 -60.499  1.00  0.00     0.031 C 
HETATM   28  C   UNL     1     -46.953  56.211 -60.603  1.00  0.00     0.016 C 
HETATM   29  C   UNL     1     -44.915  54.740 -60.662  1.00  0.00     0.016 C 
ENDBRANCH  25  27
ENDBRANCH   1  21
TORSDOF 2
ENDMDL
MODEL 2
REMARK VINA RESULT:      -8.4      4.396      6.307
REMARK  2 active torsions:
REMARK  status: ('A' for Active; 'I' for Inactive)
REMARK    1  A    between atoms: C_2  and  C_3 
REMARK    2  A    between atoms: C_7  and  C_8 
REMARK       I    between atoms: C_8  and  N_9 
ROOT
HETATM    1  C   UNL     1     -43.702  57.208 -52.610  1.00  0.00     0.271 C 
HETATM    2  N   UNL     1     -42.788  56.229 -52.202  1.00  0.00    -0.347 N 
HETATM    3  C   UNL     1     -41.351  56.472 -52.120  1.00  0.00     0.128 C 
HETATM    4  C   UNL     1     -40.732  55.630 -51.014  1.00  0.00     0.055 C 
HETATM    5  C   UNL     1     -41.020  54.127 -51.209  1.00  0.00     0.100 C 
HETATM    6  N   UNL     1     -40.266  53.653 -52.411  1.00  0.00    -0.273 NA
HETATM    7  C   UNL     1     -40.114  52.246 -52.478  1.00  0.00     0.036 A 
HETATM    8  C   UNL     1     -40.101  51.443 -51.325  1.00  0.00     0.056 A 
HETATM    9  N   UNL     1     -40.312  52.029 -50.073  1.00  0.00    -0.324 N 
HETATM   10  C   UNL     1     -40.605  53.361 -49.922  1.00  0.00     0.245 C 
HETATM   11  O   UNL     1     -40.625  53.858 -48.796  1.00  0.00    -0.271 OA
HETATM   12  C   UNL     1     -39.788  51.665 -53.706  1.00  0.00     0.026 A 
HETATM   13  C   UNL     1     -39.515  50.298 -53.793  1.00  0.00     0.002 A 
HETATM   14  C   UNL     1     -39.536  49.506 -52.645  1.00  0.00     0.002 A 
HETATM   15  C   UNL     1     -39.821  50.079 -51.405  1.00  0.00     0.031 A 
HETATM   16  C   UNL     1     -42.535  53.906 -51.418  1.00  0.00     0.055 C 
HETATM   17  C   UNL     1     -43.132  54.835 -52.469  1.00  0.00     0.128 C 
HETATM   18  O   UNL     1     -44.687  56.920 -53.289  1.00  0.00    -0.266 OA
HETATM   19  H   UNL     1     -39.315  54.031 -52.396  1.00  0.00     0.129 HD
HETATM   20  H   UNL     1     -40.153  51.500 -49.226  1.00  0.00     0.169 HD
ENDROOT
BRANCH   1  21
HETATM   21  C   UNL     1     -43.491  58.573 -52.191  1.00  0.00     0.119 A 
HETATM   22  N   UNL     1     -43.102  59.536 -53.085  1.00  0.00    -0.273 N 
HETATM   23  N   UNL     1     -42.924  60.753 -52.544  1.00  0.00    -0.179 NA
HETATM   24  H   UNL     1     -42.935  59.408 -54.079  1.00  0.00     0.189 HD
HETATM   25  C   UNL     1     -43.271  60.591 -51.263  1.00  0.00     0.060 A 
HETATM   26  C   UNL     1     -43.679  59.259 -51.007  1.00  0.00     0.066 A 
BRANCH  25  27
HETATM   27  C   UNL     1     -43.226  61.731 -50.285  1.00  0.00     0.031 C 
HETATM   28  C   UNL     1     -44.371  61.647 -49.276  1.00  0.00     0.016 C 
HETATM   29  C   UNL     1     -43.217  63.100 -50.972  1.00  0.00     0.016 C 
ENDBRANCH  25  27
ENDBRANCH   1  21
TORSDOF 2
ENDMDL
MODEL 3
REMARK VINA RESULT:      -8.2      4.392      6.200
REMARK  2 active torsions:
REMARK  status: ('A' for Active; 'I' for Inactive)
REMARK    1  A    between atoms: C_2  and  C_3 
REMARK    2  A    between atoms: C_7  and  C_8 
REMARK       I    between atoms: C_8  and  N_9 
ROOT
HETATM    1  C   UNL     1     -42.092  59.370 -51.151  1.00  0.00     0.271 C 
HETATM    2  N   UNL     1     -42.191  58.077 -51.678  1.00  0.00    -0.347 N 
HETATM    3  C   UNL     1     -43.209  57.123 -51.248  1.00  0.00     0.128 C 
HETATM    4  C   UNL     1     -43.587  56.195 -52.393  1.00  0.00     0.055 C 
HETATM    5  C   UNL     1     -42.356  55.459 -52.963  1.00  0.00     0.100 C 
HETATM    6  N   UNL     1     -41.867  54.490 -51.935  1.00  0.00    -0.273 NA
HETATM    7  C   UNL     1     -41.015  53.483 -52.452  1.00  0.00     0.036 A 
HETATM    8  C   UNL     1     -41.096  53.052 -53.787  1.00  0.00     0.056 A 
HETATM    9  N   UNL     1     -41.992  53.675 -54.660  1.00  0.00    -0.324 N 
HETATM   10  C   UNL     1     -42.759  54.751 -54.287  1.00  0.00     0.245 C 
HETATM   11  O   UNL     1     -43.643  55.161 -55.039  1.00  0.00    -0.271 OA
HETATM   12  C   UNL     1     -40.199  52.775 -51.566  1.00  0.00     0.026 A 
HETATM   13  C   UNL     1     -39.432  51.698 -52.015  1.00  0.00     0.002 A 
HETATM   14  C   UNL     1     -39.497  51.301 -53.350  1.00  0.00     0.002 A 
HETATM   15  C   UNL     1     -40.337  51.972 -54.239  1.00  0.00     0.031 A 
HETATM   16  C   UNL     1     -41.243  56.478 -53.298  1.00  0.00     0.055 C 
HETATM   17  C   UNL     1     -40.963  57.448 -52.155  1.00  0.00     0.128 C 
HETATM   18  O   UNL     1     -40.997  59.902 -50.967  1.00  0.00    -0.266 OA
HETATM   19  H   UNL     1     -42.660  53.992 -51.522  1.00  0.00     0.129 HD
HETATM   20  H   UNL     1     -42.176  53.282 -55.573  1.00  0.00     0.169 HD
ENDROOT
BRANCH   1  21
HETATM   21  C   UNL     1     -43.304  60.095 -50.854  1.00  0.00     0.119 A 
HETATM   22  N   UNL     1     -43.600  60.486 -49.575  1.00  0.00    -0.273 N 
HETATM   23  N   UNL     1     -44.771  61.131 -49.451  1.00  0.00    -0.179 NA
HETATM   24  H   UNL     1     -43.035  60.324 -48.745  1.00  0.00     0.189 HD
HETATM   25  C   UNL     1     -45.225  61.221 -50.705  1.00  0.00     0.060 A 
HETATM   26  C   UNL     1     -44.319  60.631 -51.621  1.00  0.00     0.066 A 
BRANCH  25  27
HETATM   27  C   UNL     1     -46.530  61.894 -51.024  1.00  0.00     0.031 C 
HETATM   28  C   UNL     1     -47.103  61.401 -52.353  1.00  0.00     0.016 C 
HETATM   29  C   UNL     1     -46.425  63.422 -51.021  1.00  0.00     0.016 C 
ENDBRANCH  25  27
ENDBRANCH   1  21
TORSDOF 2
ENDMDL
MODEL 4
REMARK VINA RESULT:      -8.2      4.669      8.154
REMARK  2 active torsions:
REMARK  status: ('A' for Active; 'I' for Inactive)
REMARK    1  A    between atoms: C_2  and  C_3 
REMARK    2  A    between atoms: C_7  and  C_8 
REMARK       I    between atoms: C_8  and  N_9 
ROOT
HETATM    1  C   UNL     1     -42.944  55.235 -50.861  1.00  0.00     0.271 C 
HETATM    2  N   UNL     1     -42.662  56.537 -51.295  1.00  0.00    -0.347 N 
HETATM    3  C   UNL     1     -41.387  57.197 -51.039  1.00  0.00     0.128 C 
HETATM    4  C   UNL     1     -41.053  58.165 -52.165  1.00  0.00     0.055 C 
HETATM    5  C   UNL     1     -42.173  59.205 -52.377  1.00  0.00     0.100 C 
HETATM    6  N   UNL     1     -42.202  60.116 -51.191  1.00  0.00    -0.273 NA
HETATM    7  C   UNL     1     -42.890  61.334 -51.418  1.00  0.00     0.036 A 
HETATM    8  C   UNL     1     -42.991  61.904 -52.699  1.00  0.00     0.056 A 
HETATM    9  N   UNL     1     -42.463  61.225 -53.801  1.00  0.00    -0.324 N 
HETATM   10  C   UNL     1     -41.903  59.977 -53.699  1.00  0.00     0.245 C 
HETATM   11  O   UNL     1     -41.313  59.491 -54.664  1.00  0.00    -0.271 OA
HETATM   12  C   UNL     1     -43.319  62.077 -50.316  1.00  0.00     0.026 A 
HETATM   13  C   UNL     1     -43.895  63.337 -50.491  1.00  0.00     0.002 A 
HETATM   14  C   UNL     1     -44.019  63.878 -51.770  1.00  0.00     0.002 A 
HETATM   15  C   UNL     1     -43.560  63.166 -52.878  1.00  0.00     0.031 A 
HETATM   16  C   UNL     1     -43.534  58.488 -52.523  1.00  0.00     0.055 C 
HETATM   17  C   UNL     1     -43.785  57.460 -51.425  1.00  0.00     0.128 C 
HETATM   18  O   UNL     1     -44.068  54.921 -50.470  1.00  0.00    -0.266 OA
HETATM   19  H   UNL     1     -41.248  60.383 -50.935  1.00  0.00     0.129 HD
HETATM   20  H   UNL     1     -42.388  61.685 -54.698  1.00  0.00     0.169 HD
ENDROOT
BRANCH   1  21
HETATM   21  C   UNL     1     -41.896  54.244 -50.908  1.00  0.00     0.119 A 
HETATM   22  N   UNL     1     -41.254  53.837 -49.769  1.00  0.00    -0.273 N 
HETATM   23  N   UNL     1     -40.288  52.927 -49.973  1.00  0.00    -0.179 NA
HETATM   24  H   UNL     1     -41.435  54.161 -48.823  1.00  0.00     0.189 HD
HETATM   25  C   UNL     1     -40.345  52.685 -51.287  1.00  0.00     0.060 A 
HETATM   26  C   UNL     1     -41.365  53.448 -51.905  1.00  0.00     0.066 A 
BRANCH  25  27
HETATM   27  C   UNL     1     -39.421  51.700 -51.948  1.00  0.00     0.031 C 
HETATM   28  C   UNL     1     -39.670  51.624 -53.454  1.00  0.00     0.016 C 
HETATM   29  C   UNL     1     -39.496  50.305 -51.320  1.00  0.00     0.016 C 
ENDBRANCH  25  27
ENDBRANCH   1  21
TORSDOF 2
ENDMDL
MODEL 5
REMARK VINA RESULT:      -8.1      2.695      3.984
REMARK  2 active torsions:
REMARK  status: ('A' for Active; 'I' for Inactive)
REMARK    1  A    between atoms: C_2  and  C_3 
REMARK    2  A    between atoms: C_7  and  C_8 
REMARK       I    between atoms: C_8  and  N_9 
ROOT
HETATM    1  C   UNL     1     -42.798  55.689 -56.663  1.00  0.00     0.271 C 
HETATM    2  N   UNL     1     -42.220  55.312 -55.443  1.00  0.00    -0.347 N 
HETATM    3  C   UNL     1     -40.886  55.741 -55.034  1.00  0.00     0.128 C 
HETATM    4  C   UNL     1     -40.811  55.869 -53.519  1.00  0.00     0.055 C 
HETATM    5  C   UNL     1     -41.202  54.554 -52.814  1.00  0.00     0.100 C 
HETATM    6  N   UNL     1     -40.140  53.536 -53.086  1.00  0.00    -0.273 NA
HETATM    7  C   UNL     1     -40.157  52.434 -52.197  1.00  0.00     0.036 A 
HETATM    8  C   UNL     1     -40.655  52.541 -50.887  1.00  0.00     0.056 A 
HETATM    9  N   UNL     1     -41.216  53.748 -50.459  1.00  0.00    -0.324 N 
HETATM   10  C   UNL     1     -41.370  54.827 -51.292  1.00  0.00     0.245 C 
HETATM   11  O   UNL     1     -41.723  55.911 -50.829  1.00  0.00    -0.271 OA
HETATM   12  C   UNL     1     -39.496  51.261 -52.571  1.00  0.00     0.026 A 
HETATM   13  C   UNL     1     -39.388  50.193 -51.678  1.00  0.00     0.002 A 
HETATM   14  C   UNL     1     -39.914  50.301 -50.391  1.00  0.00     0.002 A 
HETATM   15  C   UNL     1     -40.543  51.480 -49.989  1.00  0.00     0.031 A 
HETATM   16  C   UNL     1     -42.562  54.053 -53.352  1.00  0.00     0.055 C 
HETATM   17  C   UNL     1     -42.624  54.030 -54.876  1.00  0.00     0.128 C 
HETATM   18  O   UNL     1     -43.508  54.912 -57.300  1.00  0.00    -0.266 OA
HETATM   19  H   UNL     1     -39.216  53.962 -52.978  1.00  0.00     0.129 HD
HETATM   20  H   UNL     1     -41.436  53.893 -49.483  1.00  0.00     0.169 HD
ENDROOT
BRANCH   1  21
HETATM   21  C   UNL     1     -42.574  57.027 -57.154  1.00  0.00     0.119 A 
HETATM   22  N   UNL     1     -41.920  57.248 -58.337  1.00  0.00    -0.273 N 
HETATM   23  N   UNL     1     -41.768  58.545 -58.652  1.00  0.00    -0.179 NA
HETATM   24  H   UNL     1     -41.547  56.541 -58.965  1.00  0.00     0.189 HD
HETATM   25  C   UNL     1     -42.402  59.192 -57.669  1.00  0.00     0.060 A 
HETATM   26  C   UNL     1     -42.963  58.285 -56.736  1.00  0.00     0.066 A 
BRANCH  25  27
HETATM   27  C   UNL     1     -42.482  60.693 -57.637  1.00  0.00     0.031 C 
HETATM   28  C   UNL     1     -41.198  61.332 -58.167  1.00  0.00     0.016 C 
HETATM   29  C   UNL     1     -42.818  61.239 -56.246  1.00  0.00     0.016 C 
ENDBRANCH  25  27
ENDBRANCH   1  21
TORSDOF 2
ENDMDL
MODEL 6
REMARK VINA RESULT:      -8.0      4.179      7.335
REMARK  2 active torsions:
REMARK  status: ('A' for Active; 'I' for Inactive)
REMARK    1  A    between atoms: C_2  and  C_3 
REMARK    2  A    between atoms: C_7  and  C_8 
REMARK       I    between atoms: C_8  and  N_9 
ROOT
HETATM    1  C   UNL     1     -41.720  55.086 -54.003  1.00  0.00     0.271 C 
HETATM    2  N   UNL     1     -41.924  56.122 -53.083  1.00  0.00    -0.347 N 
HETATM    3  C   UNL     1     -42.229  55.882 -51.676  1.00  0.00     0.128 C 
HETATM    4  C   UNL     1     -41.670  57.002 -50.812  1.00  0.00     0.055 C 
HETATM    5  C   UNL     1     -42.194  58.384 -51.256  1.00  0.00     0.100 C 
HETATM    6  N   UNL     1     -43.655  58.458 -50.943  1.00  0.00    -0.273 NA
HETATM    7  C   UNL     1     -44.173  59.777 -50.922  1.00  0.00     0.036 A 
HETATM    8  C   UNL     1     -43.369  60.888 -50.616  1.00  0.00     0.056 A 
HETATM    9  N   UNL     1     -42.001  60.710 -50.391  1.00  0.00    -0.324 N 
HETATM   10  C   UNL     1     -41.384  59.491 -50.525  1.00  0.00     0.245 C 
HETATM   11  O   UNL     1     -40.215  59.355 -50.164  1.00  0.00    -0.271 OA
HETATM   12  C   UNL     1     -45.555  59.956 -51.031  1.00  0.00     0.026 A 
HETATM   13  C   UNL     1     -46.117  61.227 -50.899  1.00  0.00     0.002 A 
HETATM   14  C   UNL     1     -45.305  62.327 -50.626  1.00  0.00     0.002 A 
HETATM   15  C   UNL     1     -43.928  62.159 -50.476  1.00  0.00     0.031 A 
HETATM   16  C   UNL     1     -41.972  58.567 -52.775  1.00  0.00     0.055 C 
HETATM   17  C   UNL     1     -42.464  57.379 -53.594  1.00  0.00     0.128 C 
HETATM   18  O   UNL     1     -42.109  55.179 -55.168  1.00  0.00    -0.266 OA
HETATM   19  H   UNL     1     -43.829  58.081 -50.007  1.00  0.00     0.129 HD
HETATM   20  H   UNL     1     -41.440  61.465 -50.020  1.00  0.00     0.169 HD
ENDROOT
BRANCH   1  21
HETATM   21  C   UNL     1     -41.011  53.905 -53.575  1.00  0.00     0.119 A 
HETATM   22  N   UNL     1     -40.495  53.808 -52.309  1.00  0.00    -0.273 N 
HETATM   23  N   UNL     1     -39.842  52.660 -52.064  1.00  0.00    -0.179 NA
HETATM   24  H   UNL     1     -40.554  54.509 -51.576  1.00  0.00     0.189 HD
HETATM   25  C   UNL     1     -39.994  51.956 -53.191  1.00  0.00     0.060 A 
HETATM   26  C   UNL     1     -40.757  52.672 -54.144  1.00  0.00     0.066 A 
BRANCH  25  27
HETATM   27  C   UNL     1     -39.413  50.577 -53.341  1.00  0.00     0.031 C 
HETATM   28  C   UNL     1     -39.929  49.889 -54.605  1.00  0.00     0.016 C 
HETATM   29  C   UNL     1     -39.657  49.695 -52.113  1.00  0.00     0.016 C 
ENDBRANCH  25  27
ENDBRANCH   1  21
TORSDOF 2
ENDMDL
MODEL 7
REMARK VINA RESULT:      -7.6     15.700     19.316
REMARK  2 active torsions:
REMARK  status: ('A' for Active; 'I' for Inactive)
REMARK    1  A    between atoms: C_2  and  C_3 
REMARK    2  A    between atoms: C_7  and  C_8 
REMARK       I    between atoms: C_8  and  N_9 
ROOT
HETATM    1  C   UNL     1     -32.348  40.038 -54.210  1.00  0.00     0.271 C 
HETATM    2  N   UNL     1     -33.513  40.140 -54.981  1.00  0.00    -0.347 N 
HETATM    3  C   UNL     1     -34.745  39.430 -54.650  1.00  0.00     0.128 C 
HETATM    4  C   UNL     1     -35.957  40.232 -55.101  1.00  0.00     0.055 C 
HETATM    5  C   UNL     1     -35.901  40.554 -56.609  1.00  0.00     0.100 C 
HETATM    6  N   UNL     1     -36.078  39.280 -57.372  1.00  0.00    -0.273 NA
HETATM    7  C   UNL     1     -36.444  39.467 -58.728  1.00  0.00     0.036 A 
HETATM    8  C   UNL     1     -37.148  40.604 -59.159  1.00  0.00     0.056 A 
HETATM    9  N   UNL     1     -37.442  41.621 -58.247  1.00  0.00    -0.324 N 
HETATM   10  C   UNL     1     -37.008  41.593 -56.945  1.00  0.00     0.245 C 
HETATM   11  O   UNL     1     -37.425  42.430 -56.144  1.00  0.00    -0.271 OA
HETATM   12  C   UNL     1     -36.259  38.410 -59.624  1.00  0.00     0.026 A 
HETATM   13  C   UNL     1     -36.713  38.511 -60.940  1.00  0.00     0.002 A 
HETATM   14  C   UNL     1     -37.382  39.657 -61.365  1.00  0.00     0.002 A 
HETATM   15  C   UNL     1     -37.610  40.705 -60.472  1.00  0.00     0.031 A 
HETATM   16  C   UNL     1     -34.538  41.193 -56.959  1.00  0.00     0.055 C 
HETATM   17  C   UNL     1     -33.355  40.406 -56.407  1.00  0.00     0.128 C 
HETATM   18  O   UNL     1     -31.234  40.032 -54.734  1.00  0.00    -0.266 OA
HETATM   19  H   UNL     1     -36.834  38.729 -56.957  1.00  0.00     0.129 HD
HETATM   20  H   UNL     1     -38.076  42.367 -58.498  1.00  0.00     0.169 HD
ENDROOT
BRANCH   1  21
HETATM   21  C   UNL     1     -32.468  39.971 -52.773  1.00  0.00     0.119 A 
HETATM   22  N   UNL     1     -33.075  40.974 -52.066  1.00  0.00    -0.273 N 
HETATM   23  N   UNL     1     -33.091  40.782 -50.736  1.00  0.00    -0.179 NA
HETATM   24  H   UNL     1     -33.487  41.822 -52.447  1.00  0.00     0.189 HD
HETATM   25  C   UNL     1     -32.531  39.578 -50.577  1.00  0.00     0.060 A 
HETATM   26  C   UNL     1     -32.170  39.012 -51.824  1.00  0.00     0.066 A 
BRANCH  25  27
HETATM   27  C   UNL     1     -32.358  38.963 -49.217  1.00  0.00     0.031 C 
HETATM   28  C   UNL     1     -33.700  38.534 -48.623  1.00  0.00     0.016 C 
HETATM   29  C   UNL     1     -31.611  39.880 -48.244  1.00  0.00     0.016 C 
ENDBRANCH  25  27
ENDBRANCH   1  21
TORSDOF 2
ENDMDL
MODEL 8
REMARK VINA RESULT:      -7.6     16.242     17.458
REMARK  2 active torsions:
REMARK  status: ('A' for Active; 'I' for Inactive)
REMARK    1  A    between atoms: C_2  and  C_3 
REMARK    2  A    between atoms: C_7  and  C_8 
REMARK       I    between atoms: C_8  and  N_9 
ROOT
HETATM    1  C   UNL     1     -37.786  40.497 -56.809  1.00  0.00     0.271 C 
HETATM    2  N   UNL     1     -36.628  40.247 -56.062  1.00  0.00    -0.347 N 
HETATM    3  C   UNL     1     -35.898  38.985 -56.132  1.00  0.00     0.128 C 
HETATM    4  C   UNL     1     -34.413  39.216 -55.892  1.00  0.00     0.055 C 
HETATM    5  C   UNL     1     -34.154  39.922 -54.545  1.00  0.00     0.100 C 
HETATM    6  N   UNL     1     -34.497  38.974 -53.440  1.00  0.00    -0.273 NA
HETATM    7  C   UNL     1     -33.943  39.328 -52.185  1.00  0.00     0.036 A 
HETATM    8  C   UNL     1     -32.756  40.073 -52.078  1.00  0.00     0.056 A 
HETATM    9  N   UNL     1     -32.131  40.544 -53.236  1.00  0.00    -0.324 N 
HETATM   10  C   UNL     1     -32.666  40.371 -54.487  1.00  0.00     0.245 C 
HETATM   11  O   UNL     1     -32.003  40.663 -55.482  1.00  0.00    -0.271 OA
HETATM   12  C   UNL     1     -34.492  38.768 -51.029  1.00  0.00     0.026 A 
HETATM   13  C   UNL     1     -33.904  38.997 -49.783  1.00  0.00     0.002 A 
HETATM   14  C   UNL     1     -32.744  39.765 -49.687  1.00  0.00     0.002 A 
HETATM   15  C   UNL     1     -32.162  40.299 -50.837  1.00  0.00     0.031 A 
HETATM   16  C   UNL     1     -35.030  41.191 -54.441  1.00  0.00     0.055 C 
HETATM   17  C   UNL     1     -36.493  40.932 -54.780  1.00  0.00     0.128 C 
HETATM   18  O   UNL     1     -38.717  41.154 -56.343  1.00  0.00    -0.266 OA
HETATM   19  H   UNL     1     -34.125  38.045 -53.652  1.00  0.00     0.129 HD
HETATM   20  H   UNL     1     -31.203  40.945 -53.191  1.00  0.00     0.169 HD
ENDROOT
BRANCH   1  21
HETATM   21  C   UNL     1     -37.865  39.995 -58.160  1.00  0.00     0.119 A 
HETATM   22  N   UNL     1     -37.208  40.620 -59.187  1.00  0.00    -0.273 N 
HETATM   23  N   UNL     1     -37.394  40.051 -60.389  1.00  0.00    -0.179 NA
HETATM   24  H   UNL     1     -36.626  41.450 -59.118  1.00  0.00     0.189 HD
HETATM   25  C   UNL     1     -38.147  38.977 -60.126  1.00  0.00     0.060 A 
HETATM   26  C   UNL     1     -38.426  38.874 -58.741  1.00  0.00     0.066 A 
BRANCH  25  27
HETATM   27  C   UNL     1     -38.586  38.037 -61.213  1.00  0.00     0.031 C 
HETATM   28  C   UNL     1     -37.940  38.392 -62.553  1.00  0.00     0.016 C 
HETATM   29  C   UNL     1     -40.109  37.966 -61.355  1.00  0.00     0.016 C 
ENDBRANCH  25  27
ENDBRANCH   1  21
TORSDOF 2
ENDMDL
MODEL 9
REMARK VINA RESULT:      -7.5      3.249      4.766
REMARK  2 active torsions:
REMARK  status: ('A' for Active; 'I' for Inactive)
REMARK    1  A    between atoms: C_2  and  C_3 
REMARK    2  A    between atoms: C_7  and  C_8 
REMARK       I    between atoms: C_8  and  N_9 
ROOT
HETATM    1  C   UNL     1     -43.364  57.140 -60.151  1.00  0.00     0.271 C 
HETATM    2  N   UNL     1     -43.056  56.948 -58.798  1.00  0.00    -0.347 N 
HETATM    3  C   UNL     1     -42.051  57.740 -58.096  1.00  0.00     0.128 C 
HETATM    4  C   UNL     1     -42.423  57.891 -56.628  1.00  0.00     0.055 C 
HETATM    5  C   UNL     1     -42.615  56.522 -55.943  1.00  0.00     0.100 C 
HETATM    6  N   UNL     1     -41.283  55.848 -55.852  1.00  0.00    -0.273 NA
HETATM    7  C   UNL     1     -41.236  54.790 -54.911  1.00  0.00     0.036 A 
HETATM    8  C   UNL     1     -42.077  54.757 -53.785  1.00  0.00     0.056 A 
HETATM    9  N   UNL     1     -43.040  55.755 -53.614  1.00  0.00    -0.324 N 
HETATM   10  C   UNL     1     -43.253  56.742 -54.543  1.00  0.00     0.245 C 
HETATM   11  O   UNL     1     -44.000  57.684 -54.274  1.00  0.00    -0.271 OA
HETATM   12  C   UNL     1     -40.204  53.852 -55.007  1.00  0.00     0.026 A 
HETATM   13  C   UNL     1     -40.053  52.863 -54.033  1.00  0.00     0.002 A 
HETATM   14  C   UNL     1     -40.914  52.822 -52.937  1.00  0.00     0.002 A 
HETATM   15  C   UNL     1     -41.925  53.775 -52.806  1.00  0.00     0.031 A 
HETATM   16  C   UNL     1     -43.589  55.653 -56.770  1.00  0.00     0.055 C 
HETATM   17  C   UNL     1     -43.231  55.606 -58.252  1.00  0.00     0.128 C 
HETATM   18  O   UNL     1     -43.637  56.190 -60.885  1.00  0.00    -0.266 OA
HETATM   19  H   UNL     1     -40.574  56.520 -55.545  1.00  0.00     0.129 HD
HETATM   20  H   UNL     1     -43.545  55.836 -52.742  1.00  0.00     0.169 HD
ENDROOT
BRANCH   1  21
HETATM   21  C   UNL     1     -43.391  58.484 -60.675  1.00  0.00     0.119 A 
HETATM   22  N   UNL     1     -44.576  59.138 -60.888  1.00  0.00    -0.273 N 
HETATM   23  N   UNL     1     -44.442  60.373 -61.399  1.00  0.00    -0.179 NA
HETATM   24  H   UNL     1     -45.509  58.776 -60.710  1.00  0.00     0.189 HD
HETATM   25  C   UNL     1     -43.119  60.555 -61.460  1.00  0.00     0.060 A 
HETATM   26  C   UNL     1     -42.422  59.422 -60.974  1.00  0.00     0.066 A 
BRANCH  25  27
HETATM   27  C   UNL     1     -42.523  61.835 -61.976  1.00  0.00     0.031 C 
HETATM   28  C   UNL     1     -42.331  61.791 -63.492  1.00  0.00     0.016 C 
HETATM   29  C   UNL     1     -41.209  62.199 -61.279  1.00  0.00     0.016 C 
ENDBRANCH  25  27
ENDBRANCH   1  21
TORSDOF 2
ENDMDL
MODEL 10
REMARK VINA RESULT:      -7.4     15.375     17.421
REMARK  2 active torsions:
REMARK  status: ('A' for Active; 'I' for Inactive)
REMARK    1  A    between atoms: C_2  and  C_3 
REMARK    2  A    between atoms: C_7  and  C_8 
REMARK       I    between atoms: C_8  and  N_9 
ROOT
HETATM    1  C   UNL     1     -37.451  41.183 -53.287  1.00  0.00     0.271 C 
HETATM    2  N   UNL     1     -36.273  40.712 -52.695  1.00  0.00    -0.347 N 
HETATM    3  C   UNL     1     -35.506  39.595 -53.239  1.00  0.00     0.128 C 
HETATM    4  C   UNL     1     -34.025  39.769 -52.938  1.00  0.00     0.055 C 
HETATM    5  C   UNL     1     -33.763  39.926 -51.426  1.00  0.00     0.100 C 
HETATM    6  N   UNL     1     -34.057  38.621 -50.757  1.00  0.00    -0.273 NA
HETATM    7  C   UNL     1     -33.491  38.496 -49.464  1.00  0.00     0.036 A 
HETATM    8  C   UNL     1     -32.326  39.187 -49.091  1.00  0.00     0.056 A 
HETATM    9  N   UNL     1     -31.735  40.081 -49.990  1.00  0.00    -0.324 N 
HETATM   10  C   UNL     1     -32.288  40.371 -51.211  1.00  0.00     0.245 C 
HETATM   11  O   UNL     1     -31.652  41.039 -52.027  1.00  0.00    -0.271 OA
HETATM   12  C   UNL     1     -34.002  37.524 -48.600  1.00  0.00     0.026 A 
HETATM   13  C   UNL     1     -33.399  37.289 -47.363  1.00  0.00     0.002 A 
HETATM   14  C   UNL     1     -32.261  38.004 -46.991  1.00  0.00     0.002 A 
HETATM   15  C   UNL     1     -31.716  38.950 -47.859  1.00  0.00     0.031 A 
HETATM   16  C   UNL     1     -34.674  41.032 -50.847  1.00  0.00     0.055 C 
HETATM   17  C   UNL     1     -36.135  40.869 -51.251  1.00  0.00     0.128 C 
HETATM   18  O   UNL     1     -38.393  41.585 -52.603  1.00  0.00    -0.266 OA
HETATM   19  H   UNL     1     -33.661  37.853 -51.305  1.00  0.00     0.129 HD
HETATM   20  H   UNL     1     -30.820  40.466 -49.802  1.00  0.00     0.169 HD
ENDROOT
BRANCH   1  21
HETATM   21  C   UNL     1     -37.539  41.223 -54.727  1.00  0.00     0.119 A 
HETATM   22  N   UNL     1     -36.984  42.251 -55.442  1.00  0.00    -0.273 N 
HETATM   23  N   UNL     1     -37.166  42.163 -56.770  1.00  0.00    -0.179 NA
HETATM   24  H   UNL     1     -36.476  43.047 -55.065  1.00  0.00     0.189 HD
HETATM   25  C   UNL     1     -37.808  41.001 -56.931  1.00  0.00     0.060 A 
HETATM   26  C   UNL     1     -38.020  40.356 -55.688  1.00  0.00     0.066 A 
BRANCH  25  27
HETATM   27  C   UNL     1     -38.205  40.502 -58.292  1.00  0.00     0.031 C 
HETATM   28  C   UNL     1     -38.076  38.982 -58.390  1.00  0.00     0.016 C 
HETATM   29  C   UNL     1     -37.423  41.180 -59.422  1.00  0.00     0.016 C 
ENDBRANCH  25  27
ENDBRANCH   1  21
TORSDOF 2
ENDMDL
