MODEL 1
REMARK VINA RESULT:      -8.2      0.000      0.000
REMARK  5 active torsions:
REMARK  status: ('A' for Active; 'I' for Inactive)
REMARK    1  A    between atoms: C_2  and  C_3 
REMARK    2  A    between atoms: C_4  and  N_5 
REMARK       I    between atoms: N_5  and  C_6 
REMARK    3  A    between atoms: C_6  and  C_7 
REMARK    4  A    between atoms: C_10  and  O_11 
REMARK    5  A    between atoms: C_20  and  C_21 
ROOT
HETATM    1  C   UNL     1     -41.398  54.425 -52.619  1.00  0.00     0.018 A 
HETATM    2  C   UNL     1     -41.517  55.582 -53.366  1.00  0.00     0.133 A 
HETATM    3  N   UNL     1     -40.767  55.398 -54.487  1.00  0.00    -0.261 N 
HETATM    4  H   UNL     1     -40.604  56.067 -55.236  1.00  0.00     0.191 HD
HETATM    5  N   UNL     1     -40.254  54.173 -54.586  1.00  0.00    -0.172 NA
HETATM    6  C   UNL     1     -40.626  53.532 -53.460  1.00  0.00     0.097 A 
ENDROOT
BRANCH   2   7
HETATM    7  N   UNL     1     -42.275  56.694 -53.030  1.00  0.00    -0.307 N 
HETATM    8  C   UNL     1     -43.637  56.829 -53.454  1.00  0.00     0.260 C 
HETATM    9  O   UNL     1     -44.111  56.016 -54.233  1.00  0.00    -0.267 OA
HETATM   10  H   UNL     1     -41.862  57.392 -52.422  1.00  0.00     0.170 HD
BRANCH   8  11
HETATM   11  C   UNL     1     -44.410  57.971 -52.928  1.00  0.00     0.073 A 
HETATM   12  C   UNL     1     -44.802  58.010 -51.589  1.00  0.00     0.165 A 
HETATM   13  F   UNL     1     -44.410  57.024 -50.765  1.00  0.00    -0.202 F 
HETATM   14  C   UNL     1     -45.578  59.066 -51.105  1.00  0.00     0.107 A 
HETATM   15  C   UNL     1     -45.912  60.113 -51.970  1.00  0.00     0.040 A 
HETATM   16  C   UNL     1     -45.520  60.083 -53.311  1.00  0.00     0.004 A 
HETATM   17  C   UNL     1     -44.781  59.005 -53.796  1.00  0.00     0.020 A 
BRANCH  14  18
HETATM   18  O   UNL     1     -46.039  59.209 -49.827  1.00  0.00    -0.353 OA
HETATM   19  C   UNL     1     -45.613  60.375 -49.128  1.00  0.00     0.210 C 
ENDBRANCH  14  18
ENDBRANCH   8  11
ENDBRANCH   2   7
BRANCH   1  20
HETATM   20  C   UNL     1     -41.963  54.219 -51.252  1.00  0.00     0.040 C 
HETATM   21  C   UNL     1     -43.447  53.889 -51.268  1.00  0.00     0.010 C 
ENDBRANCH   1  20
BRANCH   6  22
HETATM   22  C   UNL     1     -40.222  52.117 -53.295  1.00  0.00    -0.002 A 
HETATM   23  C   UNL     1     -40.336  51.241 -54.387  1.00  0.00     0.033 A 
HETATM   24  C   UNL     1     -39.985  49.909 -54.241  1.00  0.00     0.117 A 
HETATM   25  N   UNL     1     -39.524  49.385 -53.090  1.00  0.00    -0.273 NA
HETATM   26  C   UNL     1     -39.417  50.229 -52.047  1.00  0.00     0.117 A 
HETATM   27  C   UNL     1     -39.751  51.577 -52.098  1.00  0.00     0.033 A 
ENDBRANCH   6  22
TORSDOF 5
ENDMDL
MODEL 2
REMARK VINA RESULT:      -7.6      2.203      2.713
REMARK  5 active torsions:
REMARK  status: ('A' for Active; 'I' for Inactive)
REMARK    1  A    between atoms: C_2  and  C_3 
REMARK    2  A    between atoms: C_4  and  N_5 
REMARK       I    between atoms: N_5  and  C_6 
REMARK    3  A    between atoms: C_6  and  C_7 
REMARK    4  A    between atoms: C_10  and  O_11 
REMARK    5  A    between atoms: C_20  and  C_21 
ROOT
HETATM    1  C   UNL     1     -41.537  54.169 -51.202  1.00  0.00     0.018 A 
HETATM    2  C   UNL     1     -41.165  55.256 -50.433  1.00  0.00     0.133 A 
HETATM    3  N   UNL     1     -39.960  54.944 -49.881  1.00  0.00    -0.261 N 
HETATM    4  H   UNL     1     -39.416  55.506 -49.232  1.00  0.00     0.191 HD
HETATM    5  N   UNL     1     -39.463  53.786 -50.313  1.00  0.00    -0.172 NA
HETATM    6  C   UNL     1     -40.398  53.276 -51.140  1.00  0.00     0.097 A 
ENDROOT
BRANCH   2   7
HETATM    7  N   UNL     1     -41.884  56.432 -50.283  1.00  0.00    -0.307 N 
HETATM    8  C   UNL     1     -41.741  57.521 -51.203  1.00  0.00     0.260 C 
HETATM    9  O   UNL     1     -40.878  57.472 -52.067  1.00  0.00    -0.267 OA
HETATM   10  H   UNL     1     -42.565  56.487 -49.535  1.00  0.00     0.170 HD
BRANCH   8  11
HETATM   11  C   UNL     1     -42.651  58.673 -51.052  1.00  0.00     0.073 A 
HETATM   12  C   UNL     1     -44.012  58.548 -51.336  1.00  0.00     0.165 A 
HETATM   13  F   UNL     1     -44.497  57.346 -51.688  1.00  0.00    -0.202 F 
HETATM   14  C   UNL     1     -44.862  59.652 -51.242  1.00  0.00     0.107 A 
HETATM   15  C   UNL     1     -44.340  60.874 -50.806  1.00  0.00     0.040 A 
HETATM   16  C   UNL     1     -42.980  61.006 -50.516  1.00  0.00     0.004 A 
HETATM   17  C   UNL     1     -42.130  59.910 -50.652  1.00  0.00     0.020 A 
BRANCH  14  18
HETATM   18  O   UNL     1     -46.202  59.664 -51.511  1.00  0.00    -0.353 OA
HETATM   19  C   UNL     1     -46.714  60.845 -52.119  1.00  0.00     0.210 C 
ENDBRANCH  14  18
ENDBRANCH   8  11
ENDBRANCH   2   7
BRANCH   1  20
HETATM   20  C   UNL     1     -42.846  54.019 -51.906  1.00  0.00     0.040 C 
HETATM   21  C   UNL     1     -42.805  54.508 -53.345  1.00  0.00     0.010 C 
ENDBRANCH   1  20
BRANCH   6  22
HETATM   22  C   UNL     1     -40.110  51.987 -51.808  1.00  0.00    -0.002 A 
HETATM   23  C   UNL     1     -39.885  50.844 -51.023  1.00  0.00     0.033 A 
HETATM   24  C   UNL     1     -39.591  49.636 -51.634  1.00  0.00     0.117 A 
HETATM   25  N   UNL     1     -39.509  49.479 -52.969  1.00  0.00    -0.273 NA
HETATM   26  C   UNL     1     -39.727  50.578 -53.716  1.00  0.00     0.117 A 
HETATM   27  C   UNL     1     -40.020  51.831 -53.191  1.00  0.00     0.033 A 
ENDBRANCH   6  22
TORSDOF 5
ENDMDL
MODEL 3
REMARK VINA RESULT:      -7.6      1.358      1.890
REMARK  5 active torsions:
REMARK  status: ('A' for Active; 'I' for Inactive)
REMARK    1  A    between atoms: C_2  and  C_3 
REMARK    2  A    between atoms: C_4  and  N_5 
REMARK       I    between atoms: N_5  and  C_6 
REMARK    3  A    between atoms: C_6  and  C_7 
REMARK    4  A    between atoms: C_10  and  O_11 
REMARK    5  A    between atoms: C_20  and  C_21 
ROOT
HETATM    1  C   UNL     1     -41.468  54.388 -52.526  1.00  0.00     0.018 A 
HETATM    2  C   UNL     1     -41.585  55.575 -53.225  1.00  0.00     0.133 A 
HETATM    3  N   UNL     1     -40.801  55.452 -54.331  1.00  0.00    -0.261 N 
HETATM    4  H   UNL     1     -40.629  56.155 -55.045  1.00  0.00     0.191 HD
HETATM    5  N   UNL     1     -40.266  54.240 -54.469  1.00  0.00    -0.172 NA
HETATM    6  C   UNL     1     -40.659  53.544 -53.383  1.00  0.00     0.097 A 
ENDROOT
BRANCH   2   7
HETATM    7  N   UNL     1     -42.369  56.660 -52.861  1.00  0.00    -0.307 N 
HETATM    8  C   UNL     1     -43.703  56.821 -53.359  1.00  0.00     0.260 C 
HETATM    9  O   UNL     1     -44.122  56.062 -54.220  1.00  0.00    -0.267 OA
HETATM   10  H   UNL     1     -41.999  57.316 -52.183  1.00  0.00     0.170 HD
BRANCH   8  11
HETATM   11  C   UNL     1     -44.515  57.923 -52.806  1.00  0.00     0.073 A 
HETATM   12  C   UNL     1     -44.873  59.012 -53.602  1.00  0.00     0.165 A 
HETATM   13  F   UNL     1     -44.525  59.015 -54.899  1.00  0.00    -0.202 F 
HETATM   14  C   UNL     1     -45.596  60.078 -53.063  1.00  0.00     0.107 A 
HETATM   15  C   UNL     1     -46.004  60.014 -51.727  1.00  0.00     0.040 A 
HETATM   16  C   UNL     1     -45.652  58.926 -50.926  1.00  0.00     0.004 A 
HETATM   17  C   UNL     1     -44.895  57.884 -51.459  1.00  0.00     0.020 A 
BRANCH  14  18
HETATM   18  O   UNL     1     -45.989  61.205 -53.729  1.00  0.00    -0.353 OA
HETATM   19  C   UNL     1     -45.075  62.297 -53.718  1.00  0.00     0.210 C 
ENDBRANCH  14  18
ENDBRANCH   8  11
ENDBRANCH   2   7
BRANCH   1  20
HETATM   20  C   UNL     1     -42.067  54.114 -51.186  1.00  0.00     0.040 C 
HETATM   21  C   UNL     1     -43.567  53.874 -51.245  1.00  0.00     0.010 C 
ENDBRANCH   1  20
BRANCH   6  22
HETATM   22  C   UNL     1     -40.238  52.130 -53.269  1.00  0.00    -0.002 A 
HETATM   23  C   UNL     1     -40.342  51.292 -54.391  1.00  0.00     0.033 A 
HETATM   24  C   UNL     1     -39.974  49.960 -54.293  1.00  0.00     0.117 A 
HETATM   25  N   UNL     1     -39.506  49.400 -53.161  1.00  0.00    -0.273 NA
HETATM   26  C   UNL     1     -39.407  50.209 -52.089  1.00  0.00     0.117 A 
HETATM   27  C   UNL     1     -39.759  51.553 -52.092  1.00  0.00     0.033 A 
ENDBRANCH   6  22
TORSDOF 5
ENDMDL
MODEL 4
REMARK VINA RESULT:      -7.5      2.174      2.408
REMARK  5 active torsions:
REMARK  status: ('A' for Active; 'I' for Inactive)
REMARK    1  A    between atoms: C_2  and  C_3 
REMARK    2  A    between atoms: C_4  and  N_5 
REMARK       I    between atoms: N_5  and  C_6 
REMARK    3  A    between atoms: C_6  and  C_7 
REMARK    4  A    between atoms: C_10  and  O_11 
REMARK    5  A    between atoms: C_20  and  C_21 
ROOT
HETATM    1  C   UNL     1     -41.049  54.596 -52.851  1.00  0.00     0.018 A 
HETATM    2  C   UNL     1     -41.100  55.729 -53.642  1.00  0.00     0.133 A 
HETATM    3  N   UNL     1     -40.452  55.422 -54.799  1.00  0.00    -0.261 N 
HETATM    4  H   UNL     1     -40.273  56.039 -55.587  1.00  0.00     0.191 HD
HETATM    5  N   UNL     1     -40.075  54.147 -54.873  1.00  0.00    -0.172 NA
HETATM    6  C   UNL     1     -40.433  53.594 -53.696  1.00  0.00     0.097 A 
ENDROOT
BRANCH   2   7
HETATM    7  N   UNL     1     -41.715  56.927 -53.309  1.00  0.00    -0.307 N 
HETATM    8  C   UNL     1     -40.969  58.142 -53.181  1.00  0.00     0.260 C 
HETATM    9  O   UNL     1     -39.749  58.112 -53.239  1.00  0.00    -0.267 OA
HETATM   10  H   UNL     1     -42.725  56.939 -53.214  1.00  0.00     0.170 HD
BRANCH   8  11
HETATM   11  C   UNL     1     -41.724  59.393 -52.969  1.00  0.00     0.073 A 
HETATM   12  C   UNL     1     -42.027  59.833 -51.679  1.00  0.00     0.165 A 
HETATM   13  F   UNL     1     -41.565  59.137 -50.628  1.00  0.00    -0.202 F 
HETATM   14  C   UNL     1     -42.786  60.989 -51.482  1.00  0.00     0.107 A 
HETATM   15  C   UNL     1     -43.193  61.730 -52.596  1.00  0.00     0.040 A 
HETATM   16  C   UNL     1     -42.891  61.298 -53.889  1.00  0.00     0.004 A 
HETATM   17  C   UNL     1     -42.169  60.121 -54.080  1.00  0.00     0.020 A 
BRANCH  14  18
HETATM   18  O   UNL     1     -43.163  61.510 -50.277  1.00  0.00    -0.353 OA
HETATM   19  C   UNL     1     -44.385  61.022 -49.732  1.00  0.00     0.210 C 
ENDBRANCH  14  18
ENDBRANCH   8  11
ENDBRANCH   2   7
BRANCH   1  20
HETATM   20  C   UNL     1     -41.538  54.505 -51.442  1.00  0.00     0.040 C 
HETATM   21  C   UNL     1     -42.997  54.091 -51.346  1.00  0.00     0.010 C 
ENDBRANCH   1  20
BRANCH   6  22
HETATM   22  C   UNL     1     -40.166  52.152 -53.493  1.00  0.00    -0.002 A 
HETATM   23  C   UNL     1     -39.732  51.707 -52.233  1.00  0.00     0.033 A 
HETATM   24  C   UNL     1     -39.455  50.365 -52.034  1.00  0.00     0.117 A 
HETATM   25  N   UNL     1     -39.582  49.430 -52.995  1.00  0.00    -0.273 NA
HETATM   26  C   UNL     1     -39.999  49.863 -54.200  1.00  0.00     0.117 A 
HETATM   27  C   UNL     1     -40.293  51.189 -54.494  1.00  0.00     0.033 A 
ENDBRANCH   6  22
TORSDOF 5
ENDMDL
MODEL 5
REMARK VINA RESULT:      -7.5      4.128      5.956
REMARK  5 active torsions:
REMARK  status: ('A' for Active; 'I' for Inactive)
REMARK    1  A    between atoms: C_2  and  C_3 
REMARK    2  A    between atoms: C_4  and  N_5 
REMARK       I    between atoms: N_5  and  C_6 
REMARK    3  A    between atoms: C_6  and  C_7 
REMARK    4  A    between atoms: C_10  and  O_11 
REMARK    5  A    between atoms: C_20  and  C_21 
ROOT
HETATM    1  C   UNL     1     -42.615  54.548 -53.581  1.00  0.00     0.018 A 
HETATM    2  C   UNL     1     -43.522  55.422 -54.152  1.00  0.00     0.133 A 
HETATM    3  N   UNL     1     -44.090  56.114 -53.127  1.00  0.00    -0.261 N 
HETATM    4  H   UNL     1     -44.825  56.814 -53.188  1.00  0.00     0.191 HD
HETATM    5  N   UNL     1     -43.551  55.841 -51.940  1.00  0.00    -0.172 NA
HETATM    6  C   UNL     1     -42.628  54.886 -52.172  1.00  0.00     0.097 A 
ENDROOT
BRANCH   2   7
HETATM    7  N   UNL     1     -43.772  55.564 -55.509  1.00  0.00    -0.307 N 
HETATM    8  C   UNL     1     -43.498  56.789 -56.198  1.00  0.00     0.260 C 
HETATM    9  O   UNL     1     -43.156  57.776 -55.563  1.00  0.00    -0.267 OA
HETATM   10  H   UNL     1     -44.103  54.756 -56.023  1.00  0.00     0.170 HD
BRANCH   8  11
HETATM   11  C   UNL     1     -43.657  56.803 -57.665  1.00  0.00     0.073 A 
HETATM   12  C   UNL     1     -44.563  57.672 -58.276  1.00  0.00     0.165 A 
HETATM   13  F   UNL     1     -45.244  58.544 -57.515  1.00  0.00    -0.202 F 
HETATM   14  C   UNL     1     -44.750  57.647 -59.660  1.00  0.00     0.107 A 
HETATM   15  C   UNL     1     -43.976  56.775 -60.432  1.00  0.00     0.040 A 
HETATM   16  C   UNL     1     -43.065  55.905 -59.829  1.00  0.00     0.004 A 
HETATM   17  C   UNL     1     -42.914  55.907 -58.443  1.00  0.00     0.020 A 
BRANCH  14  18
HETATM   18  O   UNL     1     -45.616  58.429 -60.371  1.00  0.00    -0.353 OA
HETATM   19  C   UNL     1     -46.997  58.098 -60.267  1.00  0.00     0.210 C 
ENDBRANCH  14  18
ENDBRANCH   8  11
ENDBRANCH   2   7
BRANCH   1  20
HETATM   20  C   UNL     1     -41.838  53.508 -54.319  1.00  0.00     0.040 C 
HETATM   21  C   UNL     1     -40.558  54.051 -54.935  1.00  0.00     0.010 C 
ENDBRANCH   1  20
BRANCH   6  22
HETATM   22  C   UNL     1     -41.829  54.393 -51.027  1.00  0.00    -0.002 A 
HETATM   23  C   UNL     1     -41.760  55.167 -49.856  1.00  0.00     0.033 A 
HETATM   24  C   UNL     1     -40.998  54.730 -48.786  1.00  0.00     0.117 A 
HETATM   25  N   UNL     1     -40.301  53.578 -48.792  1.00  0.00    -0.273 NA
HETATM   26  C   UNL     1     -40.372  52.840 -49.916  1.00  0.00     0.117 A 
HETATM   27  C   UNL     1     -41.104  53.201 -51.040  1.00  0.00     0.033 A 
ENDBRANCH   6  22
TORSDOF 5
ENDMDL
MODEL 6
REMARK VINA RESULT:      -7.4      2.779      3.197
REMARK  5 active torsions:
REMARK  status: ('A' for Active; 'I' for Inactive)
REMARK    1  A    between atoms: C_2  and  C_3 
REMARK    2  A    between atoms: C_4  and  N_5 
REMARK       I    between atoms: N_5  and  C_6 
REMARK    3  A    between atoms: C_6  and  C_7 
REMARK    4  A    between atoms: C_10  and  O_11 
REMARK    5  A    between atoms: C_20  and  C_21 
ROOT
HETATM    1  C   UNL     1     -41.078  54.609 -53.027  1.00  0.00     0.018 A 
HETATM    2  C   UNL     1     -41.128  55.675 -53.907  1.00  0.00     0.133 A 
HETATM    3  N   UNL     1     -40.429  55.297 -55.012  1.00  0.00    -0.261 N 
HETATM    4  H   UNL     1     -40.236  55.855 -55.840  1.00  0.00     0.191 HD
HETATM    5  N   UNL     1     -40.017  54.031 -54.971  1.00  0.00    -0.172 NA
HETATM    6  C   UNL     1     -40.404  53.562 -53.769  1.00  0.00     0.097 A 
ENDROOT
BRANCH   2   7
HETATM    7  N   UNL     1     -41.786  56.877 -53.693  1.00  0.00    -0.307 N 
HETATM    8  C   UNL     1     -41.067  58.092 -53.450  1.00  0.00     0.260 C 
HETATM    9  O   UNL     1     -39.855  58.057 -53.300  1.00  0.00    -0.267 OA
HETATM   10  H   UNL     1     -42.797  56.892 -53.770  1.00  0.00     0.170 HD
BRANCH   8  11
HETATM   11  C   UNL     1     -41.842  59.346 -53.379  1.00  0.00     0.073 A 
HETATM   12  C   UNL     1     -42.165  60.051 -54.540  1.00  0.00     0.165 A 
HETATM   13  F   UNL     1     -41.816  59.539 -55.732  1.00  0.00    -0.202 F 
HETATM   14  C   UNL     1     -42.853  61.264 -54.467  1.00  0.00     0.107 A 
HETATM   15  C   UNL     1     -43.262  61.737 -53.216  1.00  0.00     0.040 A 
HETATM   16  C   UNL     1     -42.947  61.035 -52.050  1.00  0.00     0.004 A 
HETATM   17  C   UNL     1     -42.223  59.846 -52.128  1.00  0.00     0.020 A 
BRANCH  14  18
HETATM   18  O   UNL     1     -43.209  62.055 -55.523  1.00  0.00    -0.353 OA
HETATM   19  C   UNL     1     -44.459  61.761 -56.139  1.00  0.00     0.210 C 
ENDBRANCH  14  18
ENDBRANCH   8  11
ENDBRANCH   2   7
BRANCH   1  20
HETATM   20  C   UNL     1     -41.617  54.615 -51.634  1.00  0.00     0.040 C 
HETATM   21  C   UNL     1     -43.047  54.105 -51.549  1.00  0.00     0.010 C 
ENDBRANCH   1  20
BRANCH   6  22
HETATM   22  C   UNL     1     -40.109  52.149 -53.441  1.00  0.00    -0.002 A 
HETATM   23  C   UNL     1     -40.282  51.166 -54.430  1.00  0.00     0.033 A 
HETATM   24  C   UNL     1     -40.032  49.837 -54.131  1.00  0.00     0.117 A 
HETATM   25  N   UNL     1     -39.619  49.412 -52.922  1.00  0.00    -0.273 NA
HETATM   26  C   UNL     1     -39.454  50.359 -51.979  1.00  0.00     0.117 A 
HETATM   27  C   UNL     1     -39.687  51.713 -52.185  1.00  0.00     0.033 A 
ENDBRANCH   6  22
TORSDOF 5
ENDMDL
MODEL 7
REMARK VINA RESULT:      -7.4      4.713      6.313
REMARK  5 active torsions:
REMARK  status: ('A' for Active; 'I' for Inactive)
REMARK    1  A    between atoms: C_2  and  C_3 
REMARK    2  A    between atoms: C_4  and  N_5 
REMARK       I    between atoms: N_5  and  C_6 
REMARK    3  A    between atoms: C_6  and  C_7 
REMARK    4  A    between atoms: C_10  and  O_11 
REMARK    5  A    between atoms: C_20  and  C_21 
ROOT
HETATM    1  C   UNL     1     -42.597  55.103 -54.432  1.00  0.00     0.018 A 
HETATM    2  C   UNL     1     -42.323  54.975 -55.781  1.00  0.00     0.133 A 
HETATM    3  N   UNL     1     -40.984  54.753 -55.885  1.00  0.00    -0.261 N 
HETATM    4  H   UNL     1     -40.441  54.649 -56.738  1.00  0.00     0.191 HD
HETATM    5  N   UNL     1     -40.377  54.617 -54.706  1.00  0.00    -0.172 NA
HETATM    6  C   UNL     1     -41.336  54.814 -53.780  1.00  0.00     0.097 A 
ENDROOT
BRANCH   2   7
HETATM    7  N   UNL     1     -43.250  55.043 -56.810  1.00  0.00    -0.307 N 
HETATM    8  C   UNL     1     -43.225  56.104 -57.774  1.00  0.00     0.260 C 
HETATM    9  O   UNL     1     -42.455  57.040 -57.622  1.00  0.00    -0.267 OA
HETATM   10  H   UNL     1     -43.920  54.289 -56.905  1.00  0.00     0.170 HD
BRANCH   8  11
HETATM   11  C   UNL     1     -44.156  56.016 -58.916  1.00  0.00     0.073 A 
HETATM   12  C   UNL     1     -45.182  56.950 -59.072  1.00  0.00     0.165 A 
HETATM   13  F   UNL     1     -45.272  57.971 -58.203  1.00  0.00    -0.202 F 
HETATM   14  C   UNL     1     -46.093  56.836 -60.124  1.00  0.00     0.107 A 
HETATM   15  C   UNL     1     -45.931  55.802 -61.051  1.00  0.00     0.040 A 
HETATM   16  C   UNL     1     -44.905  54.866 -60.904  1.00  0.00     0.004 A 
HETATM   17  C   UNL     1     -44.024  54.962 -59.828  1.00  0.00     0.020 A 
BRANCH  14  18
HETATM   18  O   UNL     1     -47.147  57.670 -60.373  1.00  0.00    -0.353 OA
HETATM   19  C   UNL     1     -47.902  57.400 -61.549  1.00  0.00     0.210 C 
ENDBRANCH  14  18
ENDBRANCH   8  11
ENDBRANCH   2   7
BRANCH   1  20
HETATM   20  C   UNL     1     -43.925  55.467 -53.853  1.00  0.00     0.040 C 
HETATM   21  C   UNL     1     -44.185  56.965 -53.861  1.00  0.00     0.010 C 
ENDBRANCH   1  20
BRANCH   6  22
HETATM   22  C   UNL     1     -40.962  54.694 -52.352  1.00  0.00    -0.002 A 
HETATM   23  C   UNL     1     -40.332  53.521 -51.906  1.00  0.00     0.033 A 
HETATM   24  C   UNL     1     -39.999  53.385 -50.568  1.00  0.00     0.117 A 
HETATM   25  N   UNL     1     -40.243  54.331 -49.642  1.00  0.00    -0.273 NA
HETATM   26  C   UNL     1     -40.847  55.453 -50.076  1.00  0.00     0.117 A 
HETATM   27  C   UNL     1     -41.223  55.675 -51.395  1.00  0.00     0.033 A 
ENDBRANCH   6  22
TORSDOF 5
ENDMDL
MODEL 8
REMARK VINA RESULT:      -7.2      2.624      2.857
REMARK  5 active torsions:
REMARK  status: ('A' for Active; 'I' for Inactive)
REMARK    1  A    between atoms: C_2  and  C_3 
REMARK    2  A    between atoms: C_4  and  N_5 
REMARK       I    between atoms: N_5  and  C_6 
REMARK    3  A    between atoms: C_6  and  C_7 
REMARK    4  A    between atoms: C_10  and  O_11 
REMARK    5  A    between atoms: C_20  and  C_21 
ROOT
HETATM    1  C   UNL     1     -41.516  54.222 -51.208  1.00  0.00     0.018 A 
HETATM    2  C   UNL     1     -41.184  55.314 -50.428  1.00  0.00     0.133 A 
HETATM    3  N   UNL     1     -40.018  55.000 -49.800  1.00  0.00    -0.261 N 
HETATM    4  H   UNL     1     -39.511  55.565 -49.123  1.00  0.00     0.191 HD
HETATM    5  N   UNL     1     -39.503  53.835 -50.189  1.00  0.00    -0.172 NA
HETATM    6  C   UNL     1     -40.389  53.323 -51.067  1.00  0.00     0.097 A 
ENDROOT
BRANCH   2   7
HETATM    7  N   UNL     1     -41.903  56.497 -50.334  1.00  0.00    -0.307 N 
HETATM    8  C   UNL     1     -41.698  57.573 -51.256  1.00  0.00     0.260 C 
HETATM    9  O   UNL     1     -40.786  57.510 -52.067  1.00  0.00    -0.267 OA
HETATM   10  H   UNL     1     -42.627  56.565 -49.627  1.00  0.00     0.170 HD
BRANCH   8  11
HETATM   11  C   UNL     1     -42.608  58.733 -51.172  1.00  0.00     0.073 A 
HETATM   12  C   UNL     1     -42.128  59.989 -50.796  1.00  0.00     0.165 A 
HETATM   13  F   UNL     1     -40.812  60.145 -50.576  1.00  0.00    -0.202 F 
HETATM   14  C   UNL     1     -42.999  61.073 -50.666  1.00  0.00     0.107 A 
HETATM   15  C   UNL     1     -44.352  60.895 -50.970  1.00  0.00     0.040 A 
HETATM   16  C   UNL     1     -44.839  59.642 -51.350  1.00  0.00     0.004 A 
HETATM   17  C   UNL     1     -43.971  58.555 -51.438  1.00  0.00     0.020 A 
BRANCH  14  18
HETATM   18  O   UNL     1     -42.658  62.341 -50.290  1.00  0.00    -0.353 OA
HETATM   19  C   UNL     1     -43.705  63.145 -49.755  1.00  0.00     0.210 C 
ENDBRANCH  14  18
ENDBRANCH   8  11
ENDBRANCH   2   7
BRANCH   1  20
HETATM   20  C   UNL     1     -42.780  54.074 -51.991  1.00  0.00     0.040 C 
HETATM   21  C   UNL     1     -43.997  53.832 -51.112  1.00  0.00     0.010 C 
ENDBRANCH   1  20
BRANCH   6  22
HETATM   22  C   UNL     1     -40.070  52.025 -51.704  1.00  0.00    -0.002 A 
HETATM   23  C   UNL     1     -39.991  51.950 -53.104  1.00  0.00     0.033 A 
HETATM   24  C   UNL     1     -39.717  50.738 -53.715  1.00  0.00     0.117 A 
HETATM   25  N   UNL     1     -39.512  49.593 -53.035  1.00  0.00    -0.273 NA
HETATM   26  C   UNL     1     -39.589  49.671 -51.693  1.00  0.00     0.117 A 
HETATM   27  C   UNL     1     -39.865  50.841 -50.995  1.00  0.00     0.033 A 
ENDBRANCH   6  22
TORSDOF 5
ENDMDL
MODEL 9
REMARK VINA RESULT:      -7.2      3.063      8.630
REMARK  5 active torsions:
REMARK  status: ('A' for Active; 'I' for Inactive)
REMARK    1  A    between atoms: C_2  and  C_3 
REMARK    2  A    between atoms: C_4  and  N_5 
REMARK       I    between atoms: N_5  and  C_6 
REMARK    3  A    between atoms: C_6  and  C_7 
REMARK    4  A    between atoms: C_10  and  O_11 
REMARK    5  A    between atoms: C_20  and  C_21 
ROOT
HETATM    1  C   UNL     1     -43.328  58.200 -51.526  1.00  0.00     0.018 A 
HETATM    2  C   UNL     1     -43.490  56.829 -51.615  1.00  0.00     0.133 A 
HETATM    3  N   UNL     1     -44.736  56.556 -51.139  1.00  0.00    -0.261 N 
HETATM    4  H   UNL     1     -45.166  55.642 -51.029  1.00  0.00     0.191 HD
HETATM    5  N   UNL     1     -45.443  57.647 -50.848  1.00  0.00    -0.172 NA
HETATM    6  C   UNL     1     -44.619  58.687 -51.082  1.00  0.00     0.097 A 
ENDROOT
BRANCH   2   7
HETATM    7  N   UNL     1     -42.559  55.930 -52.113  1.00  0.00    -0.307 N 
HETATM    8  C   UNL     1     -42.536  54.562 -51.688  1.00  0.00     0.260 C 
HETATM    9  O   UNL     1     -43.264  54.201 -50.775  1.00  0.00    -0.267 OA
HETATM   10  H   UNL     1     -41.923  56.247 -52.836  1.00  0.00     0.170 HD
BRANCH   8  11
HETATM   11  C   UNL     1     -41.608  53.644 -52.377  1.00  0.00     0.073 A 
HETATM   12  C   UNL     1     -40.754  52.815 -51.649  1.00  0.00     0.165 A 
HETATM   13  F   UNL     1     -40.832  52.814 -50.308  1.00  0.00    -0.202 F 
HETATM   14  C   UNL     1     -39.841  51.985 -52.303  1.00  0.00     0.107 A 
HETATM   15  C   UNL     1     -39.831  51.957 -53.701  1.00  0.00     0.040 A 
HETATM   16  C   UNL     1     -40.686  52.781 -54.437  1.00  0.00     0.004 A 
HETATM   17  C   UNL     1     -41.566  53.637 -53.777  1.00  0.00     0.020 A 
BRANCH  14  18
HETATM   18  O   UNL     1     -38.943  51.145 -51.706  1.00  0.00    -0.353 OA
HETATM   19  C   UNL     1     -39.453  49.897 -51.248  1.00  0.00     0.210 C 
ENDBRANCH  14  18
ENDBRANCH   8  11
ENDBRANCH   2   7
BRANCH   1  20
HETATM   20  C   UNL     1     -42.068  58.941 -51.833  1.00  0.00     0.040 C 
HETATM   21  C   UNL     1     -41.330  59.399 -50.585  1.00  0.00     0.010 C 
ENDBRANCH   1  20
BRANCH   6  22
HETATM   22  C   UNL     1     -45.144  60.055 -50.873  1.00  0.00    -0.002 A 
HETATM   23  C   UNL     1     -46.133  60.549 -51.740  1.00  0.00     0.033 A 
HETATM   24  C   UNL     1     -46.616  61.836 -51.571  1.00  0.00     0.117 A 
HETATM   25  N   UNL     1     -46.191  62.668 -50.602  1.00  0.00    -0.273 NA
HETATM   26  C   UNL     1     -45.243  62.189 -49.774  1.00  0.00     0.117 A 
HETATM   27  C   UNL     1     -44.695  60.916 -49.870  1.00  0.00     0.033 A 
ENDBRANCH   6  22
TORSDOF 5
ENDMDL
MODEL 10
REMARK VINA RESULT:      -7.1      3.028      8.711
REMARK  5 active torsions:
REMARK  status: ('A' for Active; 'I' for Inactive)
REMARK    1  A    between atoms: C_2  and  C_3 
REMARK    2  A    between atoms: C_4  and  N_5 
REMARK       I    between atoms: N_5  and  C_6 
REMARK    3  A    between atoms: C_6  and  C_7 
REMARK    4  A    between atoms: C_10  and  O_11 
REMARK    5  A    between atoms: C_20  and  C_21 
ROOT
HETATM    1  C   UNL     1     -43.584  58.597 -51.742  1.00  0.00     0.018 A 
HETATM    2  C   UNL     1     -43.813  57.244 -51.913  1.00  0.00     0.133 A 
HETATM    3  N   UNL     1     -44.926  56.945 -51.190  1.00  0.00    -0.261 N 
HETATM    4  H   UNL     1     -45.353  56.031 -51.066  1.00  0.00     0.191 HD
HETATM    5  N   UNL     1     -45.507  58.014 -50.646  1.00  0.00    -0.172 NA
HETATM    6  C   UNL     1     -44.720  59.059 -50.969  1.00  0.00     0.097 A 
ENDROOT
BRANCH   2   7
HETATM    7  N   UNL     1     -43.054  56.383 -52.692  1.00  0.00    -0.307 N 
HETATM    8  C   UNL     1     -41.877  55.749 -52.178  1.00  0.00     0.260 C 
HETATM    9  O   UNL     1     -41.453  56.062 -51.077  1.00  0.00    -0.267 OA
HETATM   10  H   UNL     1     -43.383  56.163 -53.625  1.00  0.00     0.170 HD
BRANCH   8  11
HETATM   11  C   UNL     1     -41.216  54.737 -53.027  1.00  0.00     0.073 A 
HETATM   12  C   UNL     1     -40.982  53.447 -52.547  1.00  0.00     0.165 A 
HETATM   13  F   UNL     1     -41.425  53.117 -51.323  1.00  0.00    -0.202 F 
HETATM   14  C   UNL     1     -40.310  52.508 -53.332  1.00  0.00     0.107 A 
HETATM   15  C   UNL     1     -39.923  52.861 -54.628  1.00  0.00     0.040 A 
HETATM   16  C   UNL     1     -40.157  54.148 -55.117  1.00  0.00     0.004 A 
HETATM   17  C   UNL     1     -40.791  55.094 -54.313  1.00  0.00     0.020 A 
BRANCH  14  18
HETATM   18  O   UNL     1     -40.005  51.226 -52.971  1.00  0.00    -0.353 OA
HETATM   19  C   UNL     1     -39.753  50.313 -54.035  1.00  0.00     0.210 C 
ENDBRANCH  14  18
ENDBRANCH   8  11
ENDBRANCH   2   7
BRANCH   1  20
HETATM   20  C   UNL     1     -42.401  59.345 -52.264  1.00  0.00     0.040 C 
HETATM   21  C   UNL     1     -41.391  59.688 -51.180  1.00  0.00     0.010 C 
ENDBRANCH   1  20
BRANCH   6  22
HETATM   22  C   UNL     1     -45.133  60.409 -50.523  1.00  0.00    -0.002 A 
HETATM   23  C   UNL     1     -44.455  61.013 -49.451  1.00  0.00     0.033 A 
HETATM   24  C   UNL     1     -44.846  62.265 -49.007  1.00  0.00     0.117 A 
HETATM   25  N   UNL     1     -45.859  62.964 -49.553  1.00  0.00    -0.273 NA
HETATM   26  C   UNL     1     -46.505  62.380 -50.580  1.00  0.00     0.117 A 
HETATM   27  C   UNL     1     -46.188  61.126 -51.088  1.00  0.00     0.033 A 
ENDBRANCH   6  22
TORSDOF 5
ENDMDL
