MODEL 1
REMARK VINA RESULT:      -8.5      0.000      0.000
REMARK  7 active torsions:
REMARK  status: ('A' for Active; 'I' for Inactive)
REMARK    1  A    between atoms: C_2  and  N_3 
REMARK    2  A    between atoms: N_3  and  C_4 
REMARK    3  A    between atoms: C_4  and  N_5 
REMARK    4  A    between atoms: N_5  and  N_6 
REMARK    5  A    between atoms: N_6  and  C_7 
REMARK    6  A    between atoms: N_8  and  C_9 
REMARK    7  A    between atoms: C_10  and  O_11 
ROOT
HETATM    1  C   UNL     1     -42.121  56.763 -56.374  1.00  0.00     0.729 C 
HETATM    2  N   UNL     1     -42.344  58.101 -56.084  1.00  0.00    -0.105 N 
HETATM    3  C   UNL     1     -41.943  58.625 -54.864  1.00  0.00     0.276 C 
HETATM    4  O   UNL     1     -41.668  59.812 -54.689  1.00  0.00    -0.266 OA
HETATM    5  C   UNL     1     -41.735  57.641 -53.766  1.00  0.00     0.050 C 
HETATM    6  C   UNL     1     -41.587  56.362 -54.164  1.00  0.00     0.099 C 
HETATM    7  C   UNL     1     -41.241  55.332 -53.147  1.00  0.00     0.000 A 
HETATM    8  C   UNL     1     -41.394  55.609 -51.781  1.00  0.00    -0.044 A 
HETATM    9  C   UNL     1     -41.092  54.632 -50.819  1.00  0.00     0.008 A 
HETATM   10  C   UNL     1     -40.619  53.382 -51.211  1.00  0.00     0.001 A 
HETATM   11  C   UNL     1     -40.452  53.098 -52.562  1.00  0.00     0.001 A 
HETATM   12  C   UNL     1     -40.764  54.066 -53.522  1.00  0.00     0.014 A 
HETATM   13  C   UNL     1     -41.965  56.934 -51.357  1.00  0.00     0.054 C 
HETATM   14  C   UNL     1     -41.598  58.118 -52.307  1.00  0.00    -0.002 C 
HETATM   15  C   UNL     1     -40.126  58.572 -52.085  1.00  0.00     0.015 C 
HETATM   16  C   UNL     1     -39.861  59.199 -50.714  1.00  0.00     0.001 C 
HETATM   17  C   UNL     1     -40.838  60.326 -50.403  1.00  0.00     0.000 C 
HETATM   18  C   UNL     1     -42.289  59.879 -50.544  1.00  0.00     0.001 C 
HETATM   19  C   UNL     1     -42.559  59.289 -51.932  1.00  0.00     0.015 C 
HETATM   20  N   UNL     1     -41.710  55.927 -55.460  1.00  0.00    -0.061 NA
ENDROOT
BRANCH   1  21
HETATM   21  N   UNL     1     -42.355  56.302 -57.660  1.00  0.00    -0.127 N 
HETATM   22  H   UNL     1     -41.917  56.823 -58.420  1.00  0.00     0.205 HD
BRANCH  21  23
HETATM   23  N   UNL     1     -43.660  55.871 -57.948  1.00  0.00    -0.262 N 
HETATM   24  H   UNL     1     -44.252  55.815 -57.121  1.00  0.00     0.190 HD
BRANCH  23  25
HETATM   25  C   UNL     1     -44.203  56.125 -59.181  1.00  0.00     0.186 C 
HETATM   26  S   UNL     1     -43.535  57.132 -60.341  1.00  0.00    -0.040 SA
BRANCH  25  27
HETATM   27  N   UNL     1     -45.345  55.450 -59.497  1.00  0.00    -0.366 N 
HETATM   28  H   UNL     1     -45.788  55.006 -58.701  1.00  0.00     0.161 HD
BRANCH  27  29
HETATM   29  C   UNL     1     -46.136  55.561 -60.712  1.00  0.00     0.117 C 
HETATM   30  C   UNL     1     -47.307  56.512 -60.535  1.00  0.00     0.026 C 
ENDBRANCH  27  29
ENDBRANCH  25  27
ENDBRANCH  23  25
ENDBRANCH  21  23
ENDBRANCH   1  21
BRANCH   2  31
HETATM   31  C   UNL     1     -42.729  59.037 -57.093  1.00  0.00     0.094 A 
HETATM   32  C   UNL     1     -44.096  59.318 -57.301  1.00  0.00     0.096 A 
HETATM   33  C   UNL     1     -44.459  60.228 -58.297  1.00  0.00     0.039 A 
HETATM   34  C   UNL     1     -43.480  60.854 -59.077  1.00  0.00     0.003 A 
HETATM   35  C   UNL     1     -42.131  60.575 -58.869  1.00  0.00     0.002 A 
HETATM   36  C   UNL     1     -41.754  59.670 -57.880  1.00  0.00     0.034 A 
BRANCH  32  37
HETATM   37  O   UNL     1     -44.983  58.607 -56.531  1.00  0.00    -0.354 OA
HETATM   38  C   UNL     1     -46.268  58.351 -57.081  1.00  0.00     0.210 C 
ENDBRANCH  32  37
ENDBRANCH   2  31
TORSDOF 7
ENDMDL
MODEL 2
REMARK VINA RESULT:      -7.9      2.495      6.981
REMARK  7 active torsions:
REMARK  status: ('A' for Active; 'I' for Inactive)
REMARK    1  A    between atoms: C_2  and  N_3 
REMARK    2  A    between atoms: N_3  and  C_4 
REMARK    3  A    between atoms: C_4  and  N_5 
REMARK    4  A    between atoms: N_5  and  N_6 
REMARK    5  A    between atoms: N_6  and  C_7 
REMARK    6  A    between atoms: N_8  and  C_9 
REMARK    7  A    between atoms: C_10  and  O_11 
ROOT
HETATM    1  C   UNL     1     -41.764  56.248 -54.991  1.00  0.00     0.729 C 
HETATM    2  N   UNL     1     -41.956  57.496 -54.414  1.00  0.00    -0.105 N 
HETATM    3  C   UNL     1     -42.923  58.353 -54.917  1.00  0.00     0.276 C 
HETATM    4  O   UNL     1     -43.480  59.222 -54.245  1.00  0.00    -0.266 OA
HETATM    5  C   UNL     1     -43.362  58.095 -56.316  1.00  0.00     0.050 C 
HETATM    6  C   UNL     1     -43.070  56.868 -56.791  1.00  0.00     0.099 C 
HETATM    7  C   UNL     1     -43.589  56.476 -58.129  1.00  0.00     0.000 A 
HETATM    8  C   UNL     1     -44.075  57.453 -59.011  1.00  0.00    -0.044 A 
HETATM    9  C   UNL     1     -44.543  57.091 -60.284  1.00  0.00     0.008 A 
HETATM   10  C   UNL     1     -44.548  55.755 -60.678  1.00  0.00     0.001 A 
HETATM   11  C   UNL     1     -44.080  54.776 -59.809  1.00  0.00     0.001 A 
HETATM   12  C   UNL     1     -43.602  55.136 -58.546  1.00  0.00     0.014 A 
HETATM   13  C   UNL     1     -44.011  58.901 -58.614  1.00  0.00     0.054 C 
HETATM   14  C   UNL     1     -44.184  59.149 -57.082  1.00  0.00    -0.002 C 
HETATM   15  C   UNL     1     -45.675  58.999 -56.660  1.00  0.00     0.015 C 
HETATM   16  C   UNL     1     -46.604  60.069 -57.239  1.00  0.00     0.001 C 
HETATM   17  C   UNL     1     -46.094  61.478 -56.966  1.00  0.00     0.000 C 
HETATM   18  C   UNL     1     -44.656  61.667 -57.441  1.00  0.00     0.001 C 
HETATM   19  C   UNL     1     -43.723  60.618 -56.826  1.00  0.00     0.015 C 
HETATM   20  N   UNL     1     -42.338  55.923 -56.117  1.00  0.00    -0.061 NA
ENDROOT
BRANCH   1  21
HETATM   21  N   UNL     1     -40.931  55.335 -54.365  1.00  0.00    -0.127 N 
HETATM   22  H   UNL     1     -40.086  55.064 -54.869  1.00  0.00     0.205 HD
BRANCH  21  23
HETATM   23  N   UNL     1     -41.553  54.271 -53.692  1.00  0.00    -0.262 N 
HETATM   24  H   UNL     1     -42.313  53.852 -54.226  1.00  0.00     0.190 HD
BRANCH  23  25
HETATM   25  C   UNL     1     -40.837  53.523 -52.793  1.00  0.00     0.186 C 
HETATM   26  S   UNL     1     -40.799  53.779 -51.138  1.00  0.00    -0.040 SA
BRANCH  25  27
HETATM   27  N   UNL     1     -40.157  52.452 -53.292  1.00  0.00    -0.366 N 
HETATM   28  H   UNL     1     -39.403  52.134 -52.693  1.00  0.00     0.161 HD
BRANCH  27  29
HETATM   29  C   UNL     1     -40.569  51.557 -54.360  1.00  0.00     0.117 C 
HETATM   30  C   UNL     1     -39.815  50.239 -54.311  1.00  0.00     0.026 C 
ENDBRANCH  27  29
ENDBRANCH  25  27
ENDBRANCH  23  25
ENDBRANCH  21  23
ENDBRANCH   1  21
BRANCH   2  31
HETATM   31  C   UNL     1     -41.387  57.836 -53.148  1.00  0.00     0.094 A 
HETATM   32  C   UNL     1     -41.943  57.305 -51.966  1.00  0.00     0.096 A 
HETATM   33  C   UNL     1     -41.381  57.654 -50.734  1.00  0.00     0.039 A 
HETATM   34  C   UNL     1     -40.281  58.516 -50.675  1.00  0.00     0.003 A 
HETATM   35  C   UNL     1     -39.732  59.037 -51.845  1.00  0.00     0.002 A 
HETATM   36  C   UNL     1     -40.282  58.700 -53.079  1.00  0.00     0.034 A 
BRANCH  32  37
HETATM   37  O   UNL     1     -43.059  56.522 -52.122  1.00  0.00    -0.354 OA
HETATM   38  C   UNL     1     -43.781  56.170 -50.949  1.00  0.00     0.210 C 
ENDBRANCH  32  37
ENDBRANCH   2  31
TORSDOF 7
ENDMDL
MODEL 3
REMARK VINA RESULT:      -7.6      2.326      7.045
REMARK  7 active torsions:
REMARK  status: ('A' for Active; 'I' for Inactive)
REMARK    1  A    between atoms: C_2  and  N_3 
REMARK    2  A    between atoms: N_3  and  C_4 
REMARK    3  A    between atoms: C_4  and  N_5 
REMARK    4  A    between atoms: N_5  and  N_6 
REMARK    5  A    between atoms: N_6  and  C_7 
REMARK    6  A    between atoms: N_8  and  C_9 
REMARK    7  A    between atoms: C_10  and  O_11 
ROOT
HETATM    1  C   UNL     1     -41.980  56.816 -54.438  1.00  0.00     0.729 C 
HETATM    2  N   UNL     1     -41.643  58.139 -54.186  1.00  0.00    -0.105 N 
HETATM    3  C   UNL     1     -42.001  59.130 -55.085  1.00  0.00     0.276 C 
HETATM    4  O   UNL     1     -42.174  60.309 -54.769  1.00  0.00    -0.266 OA
HETATM    5  C   UNL     1     -42.296  58.681 -56.474  1.00  0.00     0.050 C 
HETATM    6  C   UNL     1     -42.553  57.364 -56.606  1.00  0.00     0.099 C 
HETATM    7  C   UNL     1     -42.989  56.850 -57.933  1.00  0.00     0.000 A 
HETATM    8  C   UNL     1     -42.818  57.632 -59.084  1.00  0.00    -0.044 A 
HETATM    9  C   UNL     1     -43.205  57.141 -60.341  1.00  0.00     0.008 A 
HETATM   10  C   UNL     1     -43.783  55.880 -60.456  1.00  0.00     0.001 A 
HETATM   11  C   UNL     1     -43.969  55.098 -59.320  1.00  0.00     0.001 A 
HETATM   12  C   UNL     1     -43.572  55.580 -58.069  1.00  0.00     0.014 A 
HETATM   13  C   UNL     1     -42.136  58.967 -58.973  1.00  0.00     0.054 C 
HETATM   14  C   UNL     1     -42.397  59.704 -57.621  1.00  0.00    -0.002 C 
HETATM   15  C   UNL     1     -43.825  60.322 -57.592  1.00  0.00     0.015 C 
HETATM   16  C   UNL     1     -44.039  61.459 -58.595  1.00  0.00     0.001 C 
HETATM   17  C   UNL     1     -42.970  62.537 -58.473  1.00  0.00     0.000 C 
HETATM   18  C   UNL     1     -41.562  61.960 -58.573  1.00  0.00     0.001 C 
HETATM   19  C   UNL     1     -41.340  60.850 -57.540  1.00  0.00     0.015 C 
HETATM   20  N   UNL     1     -42.464  56.444 -55.591  1.00  0.00    -0.061 NA
ENDROOT
BRANCH   1  21
HETATM   21  N   UNL     1     -41.782  55.868 -53.447  1.00  0.00    -0.127 N 
HETATM   22  H   UNL     1     -41.885  56.185 -52.482  1.00  0.00     0.205 HD
BRANCH  21  23
HETATM   23  N   UNL     1     -40.720  54.969 -53.636  1.00  0.00    -0.262 N 
HETATM   24  H   UNL     1     -39.814  55.430 -53.696  1.00  0.00     0.190 HD
BRANCH  23  25
HETATM   25  C   UNL     1     -40.821  53.687 -53.159  1.00  0.00     0.186 C 
HETATM   26  S   UNL     1     -40.204  52.325 -53.914  1.00  0.00    -0.040 SA
BRANCH  25  27
HETATM   27  N   UNL     1     -41.418  53.532 -51.943  1.00  0.00    -0.366 N 
HETATM   28  H   UNL     1     -42.430  53.562 -51.981  1.00  0.00     0.161 HD
BRANCH  27  29
HETATM   29  C   UNL     1     -40.821  53.028 -50.718  1.00  0.00     0.117 C 
HETATM   30  C   UNL     1     -39.807  54.003 -50.143  1.00  0.00     0.026 C 
ENDBRANCH  27  29
ENDBRANCH  25  27
ENDBRANCH  23  25
ENDBRANCH  21  23
ENDBRANCH   1  21
BRANCH   2  31
HETATM   31  C   UNL     1     -41.176  58.566 -52.905  1.00  0.00     0.094 A 
HETATM   32  C   UNL     1     -42.092  58.730 -51.846  1.00  0.00     0.096 A 
HETATM   33  C   UNL     1     -41.623  59.157 -50.601  1.00  0.00     0.039 A 
HETATM   34  C   UNL     1     -40.262  59.417 -50.407  1.00  0.00     0.003 A 
HETATM   35  C   UNL     1     -39.358  59.253 -51.454  1.00  0.00     0.002 A 
HETATM   36  C   UNL     1     -39.811  58.828 -52.700  1.00  0.00     0.034 A 
BRANCH  32  37
HETATM   37  O   UNL     1     -43.413  58.514 -52.151  1.00  0.00    -0.354 OA
HETATM   38  C   UNL     1     -44.137  57.612 -51.324  1.00  0.00     0.210 C 
ENDBRANCH  32  37
ENDBRANCH   2  31
TORSDOF 7
ENDMDL
MODEL 4
REMARK VINA RESULT:      -7.6      1.349      1.933
REMARK  7 active torsions:
REMARK  status: ('A' for Active; 'I' for Inactive)
REMARK    1  A    between atoms: C_2  and  N_3 
REMARK    2  A    between atoms: N_3  and  C_4 
REMARK    3  A    between atoms: C_4  and  N_5 
REMARK    4  A    between atoms: N_5  and  N_6 
REMARK    5  A    between atoms: N_6  and  C_7 
REMARK    6  A    between atoms: N_8  and  C_9 
REMARK    7  A    between atoms: C_10  and  O_11 
ROOT
HETATM    1  C   UNL     1     -43.722  57.374 -55.562  1.00  0.00     0.729 C 
HETATM    2  N   UNL     1     -43.674  58.668 -55.063  1.00  0.00    -0.105 N 
HETATM    3  C   UNL     1     -42.761  58.998 -54.074  1.00  0.00     0.276 C 
HETATM    4  O   UNL     1     -42.322  60.137 -53.903  1.00  0.00    -0.266 OA
HETATM    5  C   UNL     1     -42.221  57.864 -53.275  1.00  0.00     0.050 C 
HETATM    6  C   UNL     1     -42.376  56.646 -53.834  1.00  0.00     0.099 C 
HETATM    7  C   UNL     1     -41.749  55.471 -53.171  1.00  0.00     0.000 A 
HETATM    8  C   UNL     1     -41.302  55.563 -51.844  1.00  0.00    -0.044 A 
HETATM    9  C   UNL     1     -40.733  54.449 -51.208  1.00  0.00     0.008 A 
HETATM   10  C   UNL     1     -40.586  53.246 -51.892  1.00  0.00     0.001 A 
HETATM   11  C   UNL     1     -41.015  53.144 -53.211  1.00  0.00     0.001 A 
HETATM   12  C   UNL     1     -41.594  54.248 -53.843  1.00  0.00     0.014 A 
HETATM   13  C   UNL     1     -41.517  56.840 -51.082  1.00  0.00     0.054 C 
HETATM   14  C   UNL     1     -41.454  58.127 -51.965  1.00  0.00    -0.002 C 
HETATM   15  C   UNL     1     -39.983  58.478 -52.330  1.00  0.00     0.015 C 
HETATM   16  C   UNL     1     -39.121  58.897 -51.136  1.00  0.00     0.001 C 
HETATM   17  C   UNL     1     -39.769  60.013 -50.327  1.00  0.00     0.000 C 
HETATM   18  C   UNL     1     -41.188  59.656 -49.896  1.00  0.00     0.001 C 
HETATM   19  C   UNL     1     -42.058  59.277 -51.100  1.00  0.00     0.015 C 
HETATM   20  N   UNL     1     -43.058  56.402 -54.998  1.00  0.00    -0.061 NA
ENDROOT
BRANCH   1  21
HETATM   21  N   UNL     1     -44.504  57.107 -56.674  1.00  0.00    -0.127 N 
HETATM   22  H   UNL     1     -45.406  56.659 -56.503  1.00  0.00     0.205 HD
BRANCH  21  23
HETATM   23  N   UNL     1     -43.840  56.622 -57.812  1.00  0.00    -0.262 N 
HETATM   24  H   UNL     1     -43.268  55.801 -57.620  1.00  0.00     0.190 HD
BRANCH  23  25
HETATM   25  C   UNL     1     -44.388  56.816 -59.054  1.00  0.00     0.186 C 
HETATM   26  S   UNL     1     -43.667  57.663 -60.307  1.00  0.00    -0.040 SA
BRANCH  25  27
HETATM   27  N   UNL     1     -45.587  56.213 -59.294  1.00  0.00    -0.366 N 
HETATM   28  H   UNL     1     -45.638  55.259 -58.951  1.00  0.00     0.161 HD
BRANCH  27  29
HETATM   29  C   UNL     1     -46.842  56.845 -59.665  1.00  0.00     0.117 C 
HETATM   30  C   UNL     1     -47.303  56.413 -61.046  1.00  0.00     0.026 C 
ENDBRANCH  27  29
ENDBRANCH  25  27
ENDBRANCH  23  25
ENDBRANCH  21  23
ENDBRANCH   1  21
BRANCH   2  31
HETATM   31  C   UNL     1     -44.342  59.751 -55.713  1.00  0.00     0.094 A 
HETATM   32  C   UNL     1     -43.852  60.238 -56.942  1.00  0.00     0.096 A 
HETATM   33  C   UNL     1     -44.511  61.304 -57.563  1.00  0.00     0.039 A 
HETATM   34  C   UNL     1     -45.642  61.878 -56.973  1.00  0.00     0.003 A 
HETATM   35  C   UNL     1     -46.125  61.394 -55.759  1.00  0.00     0.002 A 
HETATM   36  C   UNL     1     -45.479  60.334 -55.129  1.00  0.00     0.034 A 
BRANCH  32  37
HETATM   37  O   UNL     1     -42.701  59.653 -57.408  1.00  0.00    -0.354 OA
HETATM   38  C   UNL     1     -41.885  60.420 -58.284  1.00  0.00     0.210 C 
ENDBRANCH  32  37
ENDBRANCH   2  31
TORSDOF 7
ENDMDL
MODEL 5
REMARK VINA RESULT:      -7.3      2.809      8.099
REMARK  7 active torsions:
REMARK  status: ('A' for Active; 'I' for Inactive)
REMARK    1  A    between atoms: C_2  and  N_3 
REMARK    2  A    between atoms: N_3  and  C_4 
REMARK    3  A    between atoms: C_4  and  N_5 
REMARK    4  A    between atoms: N_5  and  N_6 
REMARK    5  A    between atoms: N_6  and  C_7 
REMARK    6  A    between atoms: N_8  and  C_9 
REMARK    7  A    between atoms: C_10  and  O_11 
ROOT
HETATM    1  C   UNL     1     -41.818  59.237 -54.617  1.00  0.00     0.729 C 
HETATM    2  N   UNL     1     -42.685  58.153 -54.617  1.00  0.00    -0.105 N 
HETATM    3  C   UNL     1     -43.156  57.639 -55.815  1.00  0.00     0.276 C 
HETATM    4  O   UNL     1     -43.516  56.471 -55.961  1.00  0.00    -0.266 OA
HETATM    5  C   UNL     1     -43.095  58.554 -56.989  1.00  0.00     0.050 C 
HETATM    6  C   UNL     1     -42.262  59.605 -56.852  1.00  0.00     0.099 C 
HETATM    7  C   UNL     1     -42.036  60.495 -58.023  1.00  0.00     0.000 A 
HETATM    8  C   UNL     1     -42.906  60.450 -59.123  1.00  0.00    -0.044 A 
HETATM    9  C   UNL     1     -42.711  61.305 -60.218  1.00  0.00     0.008 A 
HETATM   10  C   UNL     1     -41.640  62.194 -60.235  1.00  0.00     0.001 A 
HETATM   11  C   UNL     1     -40.763  62.240 -59.157  1.00  0.00     0.001 A 
HETATM   12  C   UNL     1     -40.963  61.399 -58.059  1.00  0.00     0.014 A 
HETATM   13  C   UNL     1     -44.100  59.538 -59.080  1.00  0.00     0.054 C 
HETATM   14  C   UNL     1     -43.864  58.217 -58.280  1.00  0.00    -0.002 C 
HETATM   15  C   UNL     1     -43.006  57.214 -59.105  1.00  0.00     0.015 C 
HETATM   16  C   UNL     1     -43.698  56.680 -60.362  1.00  0.00     0.001 C 
HETATM   17  C   UNL     1     -45.074  56.104 -60.056  1.00  0.00     0.000 C 
HETATM   18  C   UNL     1     -45.957  57.100 -59.311  1.00  0.00     0.001 C 
HETATM   19  C   UNL     1     -45.277  57.602 -58.032  1.00  0.00     0.015 C 
HETATM   20  N   UNL     1     -41.574  59.914 -55.706  1.00  0.00    -0.061 NA
ENDROOT
BRANCH   1  21
HETATM   21  N   UNL     1     -41.211  59.618 -53.430  1.00  0.00    -0.127 N 
HETATM   22  H   UNL     1     -40.573  58.944 -53.006  1.00  0.00     0.205 HD
BRANCH  21  23
HETATM   23  N   UNL     1     -42.014  60.299 -52.501  1.00  0.00    -0.262 N 
HETATM   24  H   UNL     1     -42.884  60.642 -52.903  1.00  0.00     0.190 HD
BRANCH  23  25
HETATM   25  C   UNL     1     -41.939  59.973 -51.171  1.00  0.00     0.186 C 
HETATM   26  S   UNL     1     -40.590  59.342 -50.406  1.00  0.00    -0.040 SA
BRANCH  25  27
HETATM   27  N   UNL     1     -43.037  60.250 -50.412  1.00  0.00    -0.366 N 
HETATM   28  H   UNL     1     -42.831  60.366 -49.426  1.00  0.00     0.161 HD
BRANCH  27  29
HETATM   29  C   UNL     1     -44.342  60.700 -50.866  1.00  0.00     0.117 C 
HETATM   30  C   UNL     1     -45.467  59.924 -50.203  1.00  0.00     0.026 C 
ENDBRANCH  27  29
ENDBRANCH  25  27
ENDBRANCH  23  25
ENDBRANCH  21  23
ENDBRANCH   1  21
BRANCH   2  31
HETATM   31  C   UNL     1     -42.905  57.365 -53.445  1.00  0.00     0.094 A 
HETATM   32  C   UNL     1     -41.899  56.486 -52.995  1.00  0.00     0.096 A 
HETATM   33  C   UNL     1     -42.131  55.715 -51.852  1.00  0.00     0.039 A 
HETATM   34  C   UNL     1     -43.345  55.815 -51.164  1.00  0.00     0.003 A 
HETATM   35  C   UNL     1     -44.337  56.685 -51.610  1.00  0.00     0.002 A 
HETATM   36  C   UNL     1     -44.120  57.459 -52.747  1.00  0.00     0.034 A 
BRANCH  32  37
HETATM   37  O   UNL     1     -40.770  56.410 -53.772  1.00  0.00    -0.354 OA
HETATM   38  C   UNL     1     -40.543  55.198 -54.479  1.00  0.00     0.210 C 
ENDBRANCH  32  37
ENDBRANCH   2  31
TORSDOF 7
ENDMDL
MODEL 6
REMARK VINA RESULT:      -7.2      2.146      5.051
REMARK  7 active torsions:
REMARK  status: ('A' for Active; 'I' for Inactive)
REMARK    1  A    between atoms: C_2  and  N_3 
REMARK    2  A    between atoms: N_3  and  C_4 
REMARK    3  A    between atoms: C_4  and  N_5 
REMARK    4  A    between atoms: N_5  and  N_6 
REMARK    5  A    between atoms: N_6  and  C_7 
REMARK    6  A    between atoms: N_8  and  C_9 
REMARK    7  A    between atoms: C_10  and  O_11 
ROOT
HETATM    1  C   UNL     1     -44.178  59.410 -55.623  1.00  0.00     0.729 C 
HETATM    2  N   UNL     1     -44.035  58.231 -56.342  1.00  0.00    -0.105 N 
HETATM    3  C   UNL     1     -43.484  57.112 -55.738  1.00  0.00     0.276 C 
HETATM    4  O   UNL     1     -43.728  55.957 -56.091  1.00  0.00    -0.266 OA
HETATM    5  C   UNL     1     -42.650  57.362 -54.530  1.00  0.00     0.050 C 
HETATM    6  C   UNL     1     -42.833  58.564 -53.948  1.00  0.00     0.099 C 
HETATM    7  C   UNL     1     -42.143  58.848 -52.660  1.00  0.00     0.000 A 
HETATM    8  C   UNL     1     -41.080  58.037 -52.235  1.00  0.00    -0.044 A 
HETATM    9  C   UNL     1     -40.411  58.316 -51.034  1.00  0.00     0.008 A 
HETATM   10  C   UNL     1     -40.807  59.390 -50.240  1.00  0.00     0.001 A 
HETATM   11  C   UNL     1     -41.866  60.195 -50.645  1.00  0.00     0.001 A 
HETATM   12  C   UNL     1     -42.526  59.926 -51.847  1.00  0.00     0.014 A 
HETATM   13  C   UNL     1     -40.609  56.917 -53.120  1.00  0.00     0.054 C 
HETATM   14  C   UNL     1     -41.742  56.253 -53.964  1.00  0.00    -0.002 C 
HETATM   15  C   UNL     1     -42.617  55.317 -53.081  1.00  0.00     0.015 C 
HETATM   16  C   UNL     1     -41.882  54.083 -52.552  1.00  0.00     0.001 C 
HETATM   17  C   UNL     1     -41.195  53.305 -53.667  1.00  0.00     0.000 C 
HETATM   18  C   UNL     1     -40.275  54.192 -54.499  1.00  0.00     0.001 C 
HETATM   19  C   UNL     1     -41.026  55.404 -55.061  1.00  0.00     0.015 C 
HETATM   20  N   UNL     1     -43.638  59.559 -54.444  1.00  0.00    -0.061 NA
ENDROOT
BRANCH   1  21
HETATM   21  N   UNL     1     -44.898  60.457 -56.177  1.00  0.00    -0.127 N 
HETATM   22  H   UNL     1     -45.576  60.214 -56.900  1.00  0.00     0.205 HD
BRANCH  21  23
HETATM   23  N   UNL     1     -44.189  61.639 -56.442  1.00  0.00    -0.262 N 
HETATM   24  H   UNL     1     -43.945  62.155 -55.598  1.00  0.00     0.190 HD
BRANCH  23  25
HETATM   25  C   UNL     1     -43.406  61.726 -57.564  1.00  0.00     0.186 C 
HETATM   26  S   UNL     1     -43.974  61.748 -59.139  1.00  0.00    -0.040 SA
BRANCH  25  27
HETATM   27  N   UNL     1     -42.064  61.868 -57.364  1.00  0.00    -0.366 N 
HETATM   28  H   UNL     1     -41.820  62.120 -56.412  1.00  0.00     0.161 HD
BRANCH  27  29
HETATM   29  C   UNL     1     -40.984  61.404 -58.218  1.00  0.00     0.117 C 
HETATM   30  C   UNL     1     -40.223  62.562 -58.840  1.00  0.00     0.026 C 
ENDBRANCH  27  29
ENDBRANCH  25  27
ENDBRANCH  23  25
ENDBRANCH  21  23
ENDBRANCH   1  21
BRANCH   2  31
HETATM   31  C   UNL     1     -44.678  58.035 -57.602  1.00  0.00     0.094 A 
HETATM   32  C   UNL     1     -43.909  58.014 -58.784  1.00  0.00     0.096 A 
HETATM   33  C   UNL     1     -44.552  57.830 -60.011  1.00  0.00     0.039 A 
HETATM   34  C   UNL     1     -45.941  57.667 -60.066  1.00  0.00     0.003 A 
HETATM   35  C   UNL     1     -46.698  57.687 -58.897  1.00  0.00     0.002 A 
HETATM   36  C   UNL     1     -46.072  57.870 -57.668  1.00  0.00     0.034 A 
BRANCH  32  37
HETATM   37  O   UNL     1     -42.564  58.246 -58.634  1.00  0.00    -0.354 OA
HETATM   38  C   UNL     1     -41.734  58.042 -59.769  1.00  0.00     0.210 C 
ENDBRANCH  32  37
ENDBRANCH   2  31
TORSDOF 7
ENDMDL
MODEL 7
REMARK VINA RESULT:      -7.2      2.288      4.634
REMARK  7 active torsions:
REMARK  status: ('A' for Active; 'I' for Inactive)
REMARK    1  A    between atoms: C_2  and  N_3 
REMARK    2  A    between atoms: N_3  and  C_4 
REMARK    3  A    between atoms: C_4  and  N_5 
REMARK    4  A    between atoms: N_5  and  N_6 
REMARK    5  A    between atoms: N_6  and  C_7 
REMARK    6  A    between atoms: N_8  and  C_9 
REMARK    7  A    between atoms: C_10  and  O_11 
ROOT
HETATM    1  C   UNL     1     -42.592  59.641 -55.983  1.00  0.00     0.729 C 
HETATM    2  N   UNL     1     -42.551  58.402 -56.606  1.00  0.00    -0.105 N 
HETATM    3  C   UNL     1     -42.490  57.244 -55.847  1.00  0.00     0.276 C 
HETATM    4  O   UNL     1     -42.904  56.151 -56.235  1.00  0.00    -0.266 OA
HETATM    5  C   UNL     1     -41.994  57.401 -54.451  1.00  0.00     0.050 C 
HETATM    6  C   UNL     1     -42.028  58.660 -53.971  1.00  0.00     0.099 C 
HETATM    7  C   UNL     1     -41.679  58.890 -52.542  1.00  0.00     0.000 A 
HETATM    8  C   UNL     1     -41.017  57.895 -51.808  1.00  0.00    -0.044 A 
HETATM    9  C   UNL     1     -40.664  58.117 -50.468  1.00  0.00     0.008 A 
HETATM   10  C   UNL     1     -40.987  59.320 -49.846  1.00  0.00     0.001 A 
HETATM   11  C   UNL     1     -41.654  60.310 -50.559  1.00  0.00     0.001 A 
HETATM   12  C   UNL     1     -41.994  60.096 -51.898  1.00  0.00     0.014 A 
HETATM   13  C   UNL     1     -40.610  56.621 -52.495  1.00  0.00     0.054 C 
HETATM   14  C   UNL     1     -41.589  56.166 -53.624  1.00  0.00    -0.002 C 
HETATM   15  C   UNL     1     -42.881  55.543 -53.021  1.00  0.00     0.015 C 
HETATM   16  C   UNL     1     -42.657  54.225 -52.277  1.00  0.00     0.001 C 
HETATM   17  C   UNL     1     -41.901  53.211 -53.125  1.00  0.00     0.000 C 
HETATM   18  C   UNL     1     -40.593  53.780 -53.665  1.00  0.00     0.001 C 
HETATM   19  C   UNL     1     -40.828  55.078 -54.445  1.00  0.00     0.015 C 
HETATM   20  N   UNL     1     -42.386  59.766 -54.700  1.00  0.00    -0.061 NA
ENDROOT
BRANCH   1  21
HETATM   21  N   UNL     1     -42.842  60.773 -56.743  1.00  0.00    -0.127 N 
HETATM   22  H   UNL     1     -43.502  60.669 -57.515  1.00  0.00     0.205 HD
BRANCH  21  23
HETATM   23  N   UNL     1     -41.738  61.584 -57.049  1.00  0.00    -0.262 N 
HETATM   24  H   UNL     1     -40.954  61.446 -56.413  1.00  0.00     0.190 HD
BRANCH  23  25
HETATM   25  C   UNL     1     -41.526  61.984 -58.343  1.00  0.00     0.186 C 
HETATM   26  S   UNL     1     -40.224  62.897 -58.871  1.00  0.00    -0.040 SA
BRANCH  25  27
HETATM   27  N   UNL     1     -42.420  61.544 -59.274  1.00  0.00    -0.366 N 
HETATM   28  H   UNL     1     -43.195  61.024 -58.878  1.00  0.00     0.161 HD
BRANCH  27  29
HETATM   29  C   UNL     1     -42.561  61.987 -60.651  1.00  0.00     0.117 C 
HETATM   30  C   UNL     1     -41.738  61.137 -61.603  1.00  0.00     0.026 C 
ENDBRANCH  27  29
ENDBRANCH  25  27
ENDBRANCH  23  25
ENDBRANCH  21  23
ENDBRANCH   1  21
BRANCH   2  31
HETATM   31  C   UNL     1     -42.842  58.248 -57.997  1.00  0.00     0.094 A 
HETATM   32  C   UNL     1     -44.175  58.352 -58.447  1.00  0.00     0.096 A 
HETATM   33  C   UNL     1     -44.446  58.190 -59.809  1.00  0.00     0.039 A 
HETATM   34  C   UNL     1     -43.410  57.932 -60.713  1.00  0.00     0.003 A 
HETATM   35  C   UNL     1     -42.095  57.832 -60.265  1.00  0.00     0.002 A 
HETATM   36  C   UNL     1     -41.809  57.989 -58.912  1.00  0.00     0.034 A 
BRANCH  32  37
HETATM   37  O   UNL     1     -45.127  58.542 -57.478  1.00  0.00    -0.354 OA
HETATM   38  C   UNL     1     -46.431  58.037 -57.733  1.00  0.00     0.210 C 
ENDBRANCH  32  37
ENDBRANCH   2  31
TORSDOF 7
ENDMDL
MODEL 8
REMARK VINA RESULT:      -7.2      2.833      8.347
REMARK  7 active torsions:
REMARK  status: ('A' for Active; 'I' for Inactive)
REMARK    1  A    between atoms: C_2  and  N_3 
REMARK    2  A    between atoms: N_3  and  C_4 
REMARK    3  A    between atoms: C_4  and  N_5 
REMARK    4  A    between atoms: N_5  and  N_6 
REMARK    5  A    between atoms: N_6  and  C_7 
REMARK    6  A    between atoms: N_8  and  C_9 
REMARK    7  A    between atoms: C_10  and  O_11 
ROOT
HETATM    1  C   UNL     1     -42.115  59.532 -54.620  1.00  0.00     0.729 C 
HETATM    2  N   UNL     1     -42.934  58.411 -54.615  1.00  0.00    -0.105 N 
HETATM    3  C   UNL     1     -43.213  57.749 -55.801  1.00  0.00     0.276 C 
HETATM    4  O   UNL     1     -43.508  56.555 -55.862  1.00  0.00    -0.266 OA
HETATM    5  C   UNL     1     -43.019  58.535 -57.051  1.00  0.00     0.050 C 
HETATM    6  C   UNL     1     -42.250  59.635 -56.922  1.00  0.00     0.099 C 
HETATM    7  C   UNL     1     -41.893  60.404 -58.145  1.00  0.00     0.000 A 
HETATM    8  C   UNL     1     -42.596  60.198 -59.340  1.00  0.00    -0.044 A 
HETATM    9  C   UNL     1     -42.278  60.939 -60.489  1.00  0.00     0.008 A 
HETATM   10  C   UNL     1     -41.247  61.874 -60.460  1.00  0.00     0.001 A 
HETATM   11  C   UNL     1     -40.534  62.080 -59.284  1.00  0.00     0.001 A 
HETATM   12  C   UNL     1     -40.857  61.352 -58.135  1.00  0.00     0.014 A 
HETATM   13  C   UNL     1     -43.752  59.237 -59.358  1.00  0.00     0.054 C 
HETATM   14  C   UNL     1     -43.585  58.023 -58.390  1.00  0.00    -0.002 C 
HETATM   15  C   UNL     1     -42.584  56.982 -58.970  1.00  0.00     0.015 C 
HETATM   16  C   UNL     1     -43.072  56.281 -60.241  1.00  0.00     0.001 C 
HETATM   17  C   UNL     1     -44.457  55.673 -60.063  1.00  0.00     0.000 C 
HETATM   18  C   UNL     1     -45.471  56.698 -59.563  1.00  0.00     0.001 C 
HETATM   19  C   UNL     1     -44.996  57.367 -58.269  1.00  0.00     0.015 C 
HETATM   20  N   UNL     1     -41.743  60.099 -55.735  1.00  0.00    -0.061 NA
ENDROOT
BRANCH   1  21
HETATM   21  N   UNL     1     -41.696  60.068 -53.413  1.00  0.00    -0.127 N 
HETATM   22  H   UNL     1     -41.647  61.085 -53.355  1.00  0.00     0.205 HD
BRANCH  21  23
HETATM   23  N   UNL     1     -40.634  59.414 -52.767  1.00  0.00    -0.262 N 
HETATM   24  H   UNL     1     -39.786  59.379 -53.330  1.00  0.00     0.190 HD
BRANCH  23  25
HETATM   25  C   UNL     1     -40.562  59.424 -51.397  1.00  0.00     0.186 C 
HETATM   26  S   UNL     1     -41.735  60.039 -50.373  1.00  0.00    -0.040 SA
BRANCH  25  27
HETATM   27  N   UNL     1     -39.472  58.825 -50.838  1.00  0.00    -0.366 N 
HETATM   28  H   UNL     1     -39.620  57.850 -50.604  1.00  0.00     0.161 HD
BRANCH  27  29
HETATM   29  C   UNL     1     -38.098  59.299 -50.842  1.00  0.00     0.117 C 
HETATM   30  C   UNL     1     -37.731  59.970 -49.530  1.00  0.00     0.026 C 
ENDBRANCH  27  29
ENDBRANCH  25  27
ENDBRANCH  23  25
ENDBRANCH  21  23
ENDBRANCH   1  21
BRANCH   2  31
HETATM   31  C   UNL     1     -43.290  57.744 -53.403  1.00  0.00     0.094 A 
HETATM   32  C   UNL     1     -42.412  56.792 -52.846  1.00  0.00     0.096 A 
HETATM   33  C   UNL     1     -42.777  56.140 -51.664  1.00  0.00     0.039 A 
HETATM   34  C   UNL     1     -43.997  56.429 -51.043  1.00  0.00     0.003 A 
HETATM   35  C   UNL     1     -44.862  57.371 -51.595  1.00  0.00     0.002 A 
HETATM   36  C   UNL     1     -44.512  58.028 -52.772  1.00  0.00     0.034 A 
BRANCH  32  37
HETATM   37  O   UNL     1     -41.270  56.531 -53.561  1.00  0.00    -0.354 OA
HETATM   38  C   UNL     1     -40.913  55.168 -53.749  1.00  0.00     0.210 C 
ENDBRANCH  32  37
ENDBRANCH   2  31
TORSDOF 7
ENDMDL
MODEL 9
REMARK VINA RESULT:      -7.1      2.768      6.768
REMARK  7 active torsions:
REMARK  status: ('A' for Active; 'I' for Inactive)
REMARK    1  A    between atoms: C_2  and  N_3 
REMARK    2  A    between atoms: N_3  and  C_4 
REMARK    3  A    between atoms: C_4  and  N_5 
REMARK    4  A    between atoms: N_5  and  N_6 
REMARK    5  A    between atoms: N_6  and  C_7 
REMARK    6  A    between atoms: N_8  and  C_9 
REMARK    7  A    between atoms: C_10  and  O_11 
ROOT
HETATM    1  C   UNL     1     -43.458  57.775 -53.954  1.00  0.00     0.729 C 
HETATM    2  N   UNL     1     -43.280  59.142 -53.799  1.00  0.00    -0.105 N 
HETATM    3  C   UNL     1     -43.292  59.974 -54.908  1.00  0.00     0.276 C 
HETATM    4  O   UNL     1     -43.605  61.165 -54.864  1.00  0.00    -0.266 OA
HETATM    5  C   UNL     1     -43.017  59.323 -56.219  1.00  0.00     0.050 C 
HETATM    6  C   UNL     1     -43.167  57.983 -56.234  1.00  0.00     0.099 C 
HETATM    7  C   UNL     1     -43.045  57.265 -57.532  1.00  0.00     0.000 A 
HETATM    8  C   UNL     1     -42.465  57.901 -58.639  1.00  0.00    -0.044 A 
HETATM    9  C   UNL     1     -42.325  57.219 -59.857  1.00  0.00     0.008 A 
HETATM   10  C   UNL     1     -42.779  55.909 -59.987  1.00  0.00     0.001 A 
HETATM   11  C   UNL     1     -43.367  55.271 -58.900  1.00  0.00     0.001 A 
HETATM   12  C   UNL     1     -43.495  55.944 -57.681  1.00  0.00     0.014 A 
HETATM   13  C   UNL     1     -41.915  59.292 -58.485  1.00  0.00     0.054 C 
HETATM   14  C   UNL     1     -42.697  60.175 -57.461  1.00  0.00    -0.002 C 
HETATM   15  C   UNL     1     -44.043  60.669 -58.067  1.00  0.00     0.015 C 
HETATM   16  C   UNL     1     -43.885  61.642 -59.238  1.00  0.00     0.001 C 
HETATM   17  C   UNL     1     -42.976  62.814 -58.890  1.00  0.00     0.000 C 
HETATM   18  C   UNL     1     -41.622  62.348 -58.363  1.00  0.00     0.001 C 
HETATM   19  C   UNL     1     -41.784  61.406 -57.165  1.00  0.00     0.015 C 
HETATM   20  N   UNL     1     -43.450  57.215 -55.133  1.00  0.00    -0.061 NA
ENDROOT
BRANCH   1  21
HETATM   21  N   UNL     1     -43.631  56.984 -52.828  1.00  0.00    -0.127 N 
HETATM   22  H   UNL     1     -42.983  57.140 -52.055  1.00  0.00     0.205 HD
BRANCH  21  23
HETATM   23  N   UNL     1     -43.934  55.631 -53.048  1.00  0.00    -0.262 N 
HETATM   24  H   UNL     1     -44.737  55.497 -53.659  1.00  0.00     0.190 HD
BRANCH  23  25
HETATM   25  C   UNL     1     -42.935  54.692 -52.991  1.00  0.00     0.186 C 
HETATM   26  S   UNL     1     -42.300  54.042 -51.584  1.00  0.00    -0.040 SA
BRANCH  25  27
HETATM   27  N   UNL     1     -42.477  54.215 -54.183  1.00  0.00    -0.366 N 
HETATM   28  H   UNL     1     -42.819  54.731 -54.986  1.00  0.00     0.161 HD
BRANCH  27  29
HETATM   29  C   UNL     1     -41.358  53.315 -54.409  1.00  0.00     0.117 C 
HETATM   30  C   UNL     1     -40.196  54.021 -55.085  1.00  0.00     0.026 C 
ENDBRANCH  27  29
ENDBRANCH  25  27
ENDBRANCH  23  25
ENDBRANCH  21  23
ENDBRANCH   1  21
BRANCH   2  31
HETATM   31  C   UNL     1     -43.354  59.772 -52.518  1.00  0.00     0.094 A 
HETATM   32  C   UNL     1     -42.167  60.087 -51.826  1.00  0.00     0.096 A 
HETATM   33  C   UNL     1     -42.254  60.695 -50.570  1.00  0.00     0.039 A 
HETATM   34  C   UNL     1     -43.501  60.987 -50.008  1.00  0.00     0.003 A 
HETATM   35  C   UNL     1     -44.672  60.675 -50.695  1.00  0.00     0.002 A 
HETATM   36  C   UNL     1     -44.602  60.070 -51.947  1.00  0.00     0.034 A 
BRANCH  32  37
HETATM   37  O   UNL     1     -40.995  59.704 -52.429  1.00  0.00    -0.354 OA
HETATM   38  C   UNL     1     -40.109  58.886 -51.676  1.00  0.00     0.210 C 
ENDBRANCH  32  37
ENDBRANCH   2  31
TORSDOF 7
ENDMDL
MODEL 10
REMARK VINA RESULT:      -7.1      3.421      7.981
REMARK  7 active torsions:
REMARK  status: ('A' for Active; 'I' for Inactive)
REMARK    1  A    between atoms: C_2  and  N_3 
REMARK    2  A    between atoms: N_3  and  C_4 
REMARK    3  A    between atoms: C_4  and  N_5 
REMARK    4  A    between atoms: N_5  and  N_6 
REMARK    5  A    between atoms: N_6  and  C_7 
REMARK    6  A    between atoms: N_8  and  C_9 
REMARK    7  A    between atoms: C_10  and  O_11 
ROOT
HETATM    1  C   UNL     1     -44.509  57.931 -53.640  1.00  0.00     0.729 C 
HETATM    2  N   UNL     1     -43.610  56.957 -54.053  1.00  0.00    -0.105 N 
HETATM    3  C   UNL     1     -43.143  56.952 -55.358  1.00  0.00     0.276 C 
HETATM    4  O   UNL     1     -42.059  56.472 -55.693  1.00  0.00    -0.266 OA
HETATM    5  C   UNL     1     -43.976  57.680 -56.356  1.00  0.00     0.050 C 
HETATM    6  C   UNL     1     -44.854  58.560 -55.834  1.00  0.00     0.099 C 
HETATM    7  C   UNL     1     -45.632  59.427 -56.760  1.00  0.00     0.000 A 
HETATM    8  C   UNL     1     -45.704  59.117 -58.126  1.00  0.00    -0.044 A 
HETATM    9  C   UNL     1     -46.456  59.919 -58.998  1.00  0.00     0.008 A 
HETATM   10  C   UNL     1     -47.123  61.044 -58.520  1.00  0.00     0.001 A 
HETATM   11  C   UNL     1     -47.051  61.369 -57.170  1.00  0.00     0.001 A 
HETATM   12  C   UNL     1     -46.312  60.565 -56.298  1.00  0.00     0.014 A 
HETATM   13  C   UNL     1     -45.038  57.868 -58.634  1.00  0.00     0.054 C 
HETATM   14  C   UNL     1     -43.734  57.485 -57.865  1.00  0.00    -0.002 C 
HETATM   15  C   UNL     1     -42.550  58.403 -58.286  1.00  0.00     0.015 C 
HETATM   16  C   UNL     1     -42.101  58.224 -59.739  1.00  0.00     0.001 C 
HETATM   17  C   UNL     1     -41.812  56.766 -60.072  1.00  0.00     0.000 C 
HETATM   18  C   UNL     1     -42.990  55.858 -59.733  1.00  0.00     0.001 C 
HETATM   19  C   UNL     1     -43.410  56.012 -58.267  1.00  0.00     0.015 C 
HETATM   20  N   UNL     1     -45.078  58.739 -54.493  1.00  0.00    -0.061 NA
ENDROOT
BRANCH   1  21
HETATM   21  N   UNL     1     -44.820  58.036 -52.294  1.00  0.00    -0.127 N 
HETATM   22  H   UNL     1     -45.733  57.682 -52.005  1.00  0.00     0.205 HD
BRANCH  21  23
HETATM   23  N   UNL     1     -44.446  59.227 -51.650  1.00  0.00    -0.262 N 
HETATM   24  H   UNL     1     -43.575  59.615 -52.006  1.00  0.00     0.190 HD
BRANCH  23  25
HETATM   25  C   UNL     1     -45.411  60.045 -51.121  1.00  0.00     0.186 C 
HETATM   26  S   UNL     1     -45.358  60.740 -49.597  1.00  0.00    -0.040 SA
BRANCH  25  27
HETATM   27  N   UNL     1     -46.460  60.359 -51.934  1.00  0.00    -0.366 N 
HETATM   28  H   UNL     1     -47.282  59.788 -51.775  1.00  0.00     0.161 HD
BRANCH  27  29
HETATM   29  C   UNL     1     -46.640  61.564 -52.726  1.00  0.00     0.117 C 
HETATM   30  C   UNL     1     -48.093  62.007 -52.752  1.00  0.00     0.026 C 
ENDBRANCH  27  29
ENDBRANCH  25  27
ENDBRANCH  23  25
ENDBRANCH  21  23
ENDBRANCH   1  21
BRANCH   2  31
HETATM   31  C   UNL     1     -42.932  56.114 -53.121  1.00  0.00     0.094 A 
HETATM   32  C   UNL     1     -41.943  56.659 -52.276  1.00  0.00     0.096 A 
HETATM   33  C   UNL     1     -41.282  55.820 -51.375  1.00  0.00     0.039 A 
HETATM   34  C   UNL     1     -41.597  54.459 -51.310  1.00  0.00     0.003 A 
HETATM   35  C   UNL     1     -42.575  53.923 -52.145  1.00  0.00     0.002 A 
HETATM   36  C   UNL     1     -43.242  54.746 -53.048  1.00  0.00     0.034 A 
BRANCH  32  37
HETATM   37  O   UNL     1     -41.659  57.989 -52.458  1.00  0.00    -0.354 OA
HETATM   38  C   UNL     1     -40.438  58.315 -53.110  1.00  0.00     0.210 C 
ENDBRANCH  32  37
ENDBRANCH   2  31
TORSDOF 7
ENDMDL
