MODEL 1
REMARK VINA RESULT:      -8.2      0.000      0.000
REMARK  5 active torsions:
REMARK  status: ('A' for Active; 'I' for Inactive)
REMARK    1  A    between atoms: O_2  and  C_3 
REMARK    2  A    between atoms: C_4  and  N_5 
REMARK       I    between atoms: N_5  and  C_6 
REMARK       I    between atoms: C_6  and  N_7 
REMARK    3  A    between atoms: N_7  and  N_8 
REMARK       I    between atoms: N_8  and  C_9 
REMARK    4  A    between atoms: C_9  and  C_10 
REMARK    5  A    between atoms: C_11  and  N_12 
ROOT
HETATM    1  N   UNL     1     -42.693  54.678 -54.350  1.00  0.00    -0.262 N 
HETATM    2  C   UNL     1     -41.361  54.618 -53.975  1.00  0.00     0.272 C 
HETATM    3  O   UNL     1     -40.636  55.602 -53.872  1.00  0.00    -0.266 OA
HETATM    4  H   UNL     1     -43.303  53.868 -54.270  1.00  0.00     0.190 HD
ENDROOT
BRANCH   1   5
HETATM    5  N   UNL     1     -43.330  55.932 -54.290  1.00  0.00    -0.249 N 
HETATM    6  C   UNL     1     -43.559  56.660 -55.438  1.00  0.00     0.339 C 
HETATM    7  N   UNL     1     -42.590  56.496 -56.394  1.00  0.00    -0.305 N 
HETATM    8  O   UNL     1     -44.549  57.381 -55.514  1.00  0.00    -0.245 OA
HETATM    9  H   UNL     1     -41.690  56.191 -56.037  1.00  0.00     0.171 HD
HETATM   10  H   UNL     1     -44.024  56.045 -53.557  1.00  0.00     0.192 HD
BRANCH   7  11
HETATM   11  C   UNL     1     -42.583  57.055 -57.687  1.00  0.00     0.069 A 
HETATM   12  C   UNL     1     -43.144  56.307 -58.736  1.00  0.00     0.095 A 
HETATM   13  C   UNL     1     -43.221  56.841 -60.026  1.00  0.00     0.039 A 
HETATM   14  C   UNL     1     -42.704  58.111 -60.282  1.00  0.00     0.003 A 
HETATM   15  C   UNL     1     -42.121  58.847 -59.251  1.00  0.00     0.002 A 
HETATM   16  C   UNL     1     -42.062  58.321 -57.958  1.00  0.00     0.032 A 
BRANCH  12  17
HETATM   17  O   UNL     1     -43.619  55.051 -58.444  1.00  0.00    -0.354 OA
HETATM   18  C   UNL     1     -44.355  54.484 -59.530  1.00  0.00     0.210 C 
ENDBRANCH  12  17
ENDBRANCH   7  11
ENDBRANCH   1   5
BRANCH   2  19
HETATM   19  C   UNL     1     -40.858  53.280 -53.552  1.00  0.00     0.060 A 
HETATM   20  C   UNL     1     -40.462  52.908 -52.254  1.00  0.00     0.054 A 
HETATM   21  C   UNL     1     -39.795  51.680 -52.067  1.00  0.00     0.031 A 
HETATM   22  C   UNL     1     -39.569  50.816 -53.140  1.00  0.00     0.002 A 
HETATM   23  C   UNL     1     -40.002  51.162 -54.414  1.00  0.00     0.001 A 
HETATM   24  C   UNL     1     -40.639  52.385 -54.619  1.00  0.00     0.019 A 
BRANCH  20  25
HETATM   25  N   UNL     1     -40.755  53.686 -51.099  1.00  0.00    -0.332 N 
HETATM   26  C   UNL     1     -41.986  54.184 -50.722  1.00  0.00     0.096 A 
HETATM   27  C   UNL     1     -41.847  54.886 -49.545  1.00  0.00     0.019 A 
HETATM   28  C   UNL     1     -40.492  54.806 -49.166  1.00  0.00     0.019 A 
HETATM   29  C   UNL     1     -39.849  54.046 -50.118  1.00  0.00     0.096 A 
ENDBRANCH  20  25
ENDBRANCH   2  19
TORSDOF 5
ENDMDL
MODEL 2
REMARK VINA RESULT:      -8.1      0.985      1.815
REMARK  5 active torsions:
REMARK  status: ('A' for Active; 'I' for Inactive)
REMARK    1  A    between atoms: O_2  and  C_3 
REMARK    2  A    between atoms: C_4  and  N_5 
REMARK       I    between atoms: N_5  and  C_6 
REMARK       I    between atoms: C_6  and  N_7 
REMARK    3  A    between atoms: N_7  and  N_8 
REMARK       I    between atoms: N_8  and  C_9 
REMARK    4  A    between atoms: C_9  and  C_10 
REMARK    5  A    between atoms: C_11  and  N_12 
ROOT
HETATM    1  N   UNL     1     -42.537  54.359 -54.086  1.00  0.00    -0.262 N 
HETATM    2  C   UNL     1     -41.173  54.230 -53.889  1.00  0.00     0.272 C 
HETATM    3  O   UNL     1     -40.378  55.158 -53.991  1.00  0.00    -0.266 OA
HETATM    4  H   UNL     1     -43.182  53.611 -53.837  1.00  0.00     0.190 HD
ENDROOT
BRANCH   1   5
HETATM    5  N   UNL     1     -43.076  55.658 -54.078  1.00  0.00    -0.249 N 
HETATM    6  C   UNL     1     -43.509  56.248 -55.247  1.00  0.00     0.339 C 
HETATM    7  N   UNL     1     -42.780  55.880 -56.348  1.00  0.00    -0.305 N 
HETATM    8  O   UNL     1     -44.450  57.034 -55.220  1.00  0.00    -0.245 OA
HETATM    9  H   UNL     1     -41.843  55.549 -56.145  1.00  0.00     0.171 HD
HETATM   10  H   UNL     1     -43.588  55.925 -53.242  1.00  0.00     0.192 HD
BRANCH   7  11
HETATM   11  C   UNL     1     -43.023  56.263 -57.682  1.00  0.00     0.069 A 
HETATM   12  C   UNL     1     -42.639  57.553 -58.083  1.00  0.00     0.095 A 
HETATM   13  C   UNL     1     -42.800  57.961 -59.411  1.00  0.00     0.039 A 
HETATM   14  C   UNL     1     -43.379  57.093 -60.337  1.00  0.00     0.003 A 
HETATM   15  C   UNL     1     -43.788  55.822 -59.939  1.00  0.00     0.002 A 
HETATM   16  C   UNL     1     -43.609  55.407 -58.616  1.00  0.00     0.032 A 
BRANCH  12  17
HETATM   17  O   UNL     1     -42.094  58.383 -57.133  1.00  0.00    -0.354 OA
HETATM   18  C   UNL     1     -41.735  59.658 -57.669  1.00  0.00     0.210 C 
ENDBRANCH  12  17
ENDBRANCH   7  11
ENDBRANCH   1   5
BRANCH   2  19
HETATM   19  C   UNL     1     -40.703  52.904 -53.393  1.00  0.00     0.060 A 
HETATM   20  C   UNL     1     -40.336  52.587 -52.073  1.00  0.00     0.054 A 
HETATM   21  C   UNL     1     -39.697  51.357 -51.815  1.00  0.00     0.031 A 
HETATM   22  C   UNL     1     -39.470  50.439 -52.842  1.00  0.00     0.002 A 
HETATM   23  C   UNL     1     -39.876  50.731 -54.139  1.00  0.00     0.001 A 
HETATM   24  C   UNL     1     -40.485  51.955 -54.413  1.00  0.00     0.019 A 
BRANCH  20  25
HETATM   25  N   UNL     1     -40.633  53.424 -50.961  1.00  0.00    -0.332 N 
HETATM   26  C   UNL     1     -41.872  53.909 -50.593  1.00  0.00     0.096 A 
HETATM   27  C   UNL     1     -41.734  54.685 -49.462  1.00  0.00     0.019 A 
HETATM   28  C   UNL     1     -40.372  54.667 -49.104  1.00  0.00     0.019 A 
HETATM   29  C   UNL     1     -39.723  53.869 -50.020  1.00  0.00     0.096 A 
ENDBRANCH  20  25
ENDBRANCH   2  19
TORSDOF 5
ENDMDL
MODEL 3
REMARK VINA RESULT:      -8.0      3.142      5.122
REMARK  5 active torsions:
REMARK  status: ('A' for Active; 'I' for Inactive)
REMARK    1  A    between atoms: O_2  and  C_3 
REMARK    2  A    between atoms: C_4  and  N_5 
REMARK       I    between atoms: N_5  and  C_6 
REMARK       I    between atoms: C_6  and  N_7 
REMARK    3  A    between atoms: N_7  and  N_8 
REMARK       I    between atoms: N_8  and  C_9 
REMARK    4  A    between atoms: C_9  and  C_10 
REMARK    5  A    between atoms: C_11  and  N_12 
ROOT
HETATM    1  N   UNL     1     -41.024  55.568 -54.067  1.00  0.00    -0.262 N 
HETATM    2  C   UNL     1     -41.799  54.551 -53.534  1.00  0.00     0.272 C 
HETATM    3  O   UNL     1     -43.019  54.613 -53.415  1.00  0.00    -0.266 OA
HETATM    4  H   UNL     1     -40.044  55.421 -54.298  1.00  0.00     0.190 HD
ENDROOT
BRANCH   1   5
HETATM    5  N   UNL     1     -41.682  56.572 -54.801  1.00  0.00    -0.249 N 
HETATM    6  C   UNL     1     -41.976  57.789 -54.224  1.00  0.00     0.339 C 
HETATM    7  N   UNL     1     -42.260  57.705 -52.885  1.00  0.00    -0.305 N 
HETATM    8  O   UNL     1     -41.983  58.804 -54.913  1.00  0.00    -0.245 OA
HETATM    9  H   UNL     1     -42.578  56.793 -52.575  1.00  0.00     0.171 HD
HETATM   10  H   UNL     1     -41.483  56.600 -55.797  1.00  0.00     0.192 HD
BRANCH   7  11
HETATM   11  C   UNL     1     -42.530  58.780 -52.016  1.00  0.00     0.069 A 
HETATM   12  C   UNL     1     -41.500  59.226 -51.171  1.00  0.00     0.095 A 
HETATM   13  C   UNL     1     -41.696  60.330 -50.335  1.00  0.00     0.039 A 
HETATM   14  C   UNL     1     -42.933  60.972 -50.313  1.00  0.00     0.003 A 
HETATM   15  C   UNL     1     -43.969  60.517 -51.128  1.00  0.00     0.002 A 
HETATM   16  C   UNL     1     -43.768  59.426 -51.978  1.00  0.00     0.032 A 
BRANCH  12  17
HETATM   17  O   UNL     1     -40.304  58.550 -51.208  1.00  0.00    -0.354 OA
HETATM   18  C   UNL     1     -39.208  59.363 -50.783  1.00  0.00     0.210 C 
ENDBRANCH  12  17
ENDBRANCH   7  11
ENDBRANCH   1   5
BRANCH   2  19
HETATM   19  C   UNL     1     -41.089  53.276 -53.227  1.00  0.00     0.060 A 
HETATM   20  C   UNL     1     -40.433  52.954 -52.024  1.00  0.00     0.054 A 
HETATM   21  C   UNL     1     -39.617  51.806 -51.976  1.00  0.00     0.031 A 
HETATM   22  C   UNL     1     -39.493  50.967 -53.086  1.00  0.00     0.002 A 
HETATM   23  C   UNL     1     -40.179  51.260 -54.258  1.00  0.00     0.001 A 
HETATM   24  C   UNL     1     -40.969  52.407 -54.329  1.00  0.00     0.019 A 
BRANCH  20  25
HETATM   25  N   UNL     1     -40.599  53.700 -50.824  1.00  0.00    -0.332 N 
HETATM   26  C   UNL     1     -40.949  55.030 -50.713  1.00  0.00     0.096 A 
HETATM   27  C   UNL     1     -41.001  55.373 -49.379  1.00  0.00     0.019 A 
HETATM   28  C   UNL     1     -40.693  54.216 -48.636  1.00  0.00     0.019 A 
HETATM   29  C   UNL     1     -40.476  53.200 -49.540  1.00  0.00     0.096 A 
ENDBRANCH  20  25
ENDBRANCH   2  19
TORSDOF 5
ENDMDL
MODEL 4
REMARK VINA RESULT:      -7.9      2.449      3.699
REMARK  5 active torsions:
REMARK  status: ('A' for Active; 'I' for Inactive)
REMARK    1  A    between atoms: O_2  and  C_3 
REMARK    2  A    between atoms: C_4  and  N_5 
REMARK       I    between atoms: N_5  and  C_6 
REMARK       I    between atoms: C_6  and  N_7 
REMARK    3  A    between atoms: N_7  and  N_8 
REMARK       I    between atoms: N_8  and  C_9 
REMARK    4  A    between atoms: C_9  and  C_10 
REMARK    5  A    between atoms: C_11  and  N_12 
ROOT
HETATM    1  N   UNL     1     -41.392  55.134 -55.626  1.00  0.00    -0.262 N 
HETATM    2  C   UNL     1     -42.145  54.268 -54.851  1.00  0.00     0.272 C 
HETATM    3  O   UNL     1     -43.362  54.152 -54.943  1.00  0.00    -0.266 OA
HETATM    4  H   UNL     1     -40.376  55.089 -55.636  1.00  0.00     0.190 HD
ENDROOT
BRANCH   1   5
HETATM    5  N   UNL     1     -41.993  55.658 -56.786  1.00  0.00    -0.249 N 
HETATM    6  C   UNL     1     -42.457  56.956 -56.814  1.00  0.00     0.339 C 
HETATM    7  N   UNL     1     -42.944  57.389 -55.607  1.00  0.00    -0.305 N 
HETATM    8  O   UNL     1     -42.424  57.593 -57.862  1.00  0.00    -0.245 OA
HETATM    9  H   UNL     1     -43.244  56.649 -54.981  1.00  0.00     0.171 HD
HETATM   10  H   UNL     1     -41.640  55.304 -57.671  1.00  0.00     0.192 HD
BRANCH   7  11
HETATM   11  C   UNL     1     -43.422  58.680 -55.310  1.00  0.00     0.069 A 
HETATM   12  C   UNL     1     -42.519  59.617 -54.780  1.00  0.00     0.095 A 
HETATM   13  C   UNL     1     -42.926  60.931 -54.528  1.00  0.00     0.039 A 
HETATM   14  C   UNL     1     -44.248  61.305 -54.769  1.00  0.00     0.003 A 
HETATM   15  C   UNL     1     -45.156  60.372 -55.267  1.00  0.00     0.002 A 
HETATM   16  C   UNL     1     -44.745  59.065 -55.539  1.00  0.00     0.032 A 
BRANCH  12  17
HETATM   17  O   UNL     1     -41.233  59.199 -54.536  1.00  0.00    -0.354 OA
HETATM   18  C   UNL     1     -40.949  59.110 -53.138  1.00  0.00     0.210 C 
ENDBRANCH  12  17
ENDBRANCH   7  11
ENDBRANCH   1   5
BRANCH   2  19
HETATM   19  C   UNL     1     -41.379  53.348 -53.962  1.00  0.00     0.060 A 
HETATM   20  C   UNL     1     -41.220  53.471 -52.570  1.00  0.00     0.054 A 
HETATM   21  C   UNL     1     -40.279  52.651 -51.913  1.00  0.00     0.031 A 
HETATM   22  C   UNL     1     -39.545  51.695 -52.618  1.00  0.00     0.002 A 
HETATM   23  C   UNL     1     -39.737  51.542 -53.986  1.00  0.00     0.001 A 
HETATM   24  C   UNL     1     -40.644  52.363 -54.653  1.00  0.00     0.019 A 
BRANCH  20  25
HETATM   25  N   UNL     1     -42.009  54.344 -51.770  1.00  0.00    -0.332 N 
HETATM   26  C   UNL     1     -41.683  55.623 -51.365  1.00  0.00     0.096 A 
HETATM   27  C   UNL     1     -42.712  56.130 -50.602  1.00  0.00     0.019 A 
HETATM   28  C   UNL     1     -43.719  55.145 -50.546  1.00  0.00     0.019 A 
HETATM   29  C   UNL     1     -43.277  54.073 -51.289  1.00  0.00     0.096 A 
ENDBRANCH  20  25
ENDBRANCH   2  19
TORSDOF 5
ENDMDL
MODEL 5
REMARK VINA RESULT:      -7.6      2.337      3.251
REMARK  5 active torsions:
REMARK  status: ('A' for Active; 'I' for Inactive)
REMARK    1  A    between atoms: O_2  and  C_3 
REMARK    2  A    between atoms: C_4  and  N_5 
REMARK       I    between atoms: N_5  and  C_6 
REMARK       I    between atoms: C_6  and  N_7 
REMARK    3  A    between atoms: N_7  and  N_8 
REMARK       I    between atoms: N_8  and  C_9 
REMARK    4  A    between atoms: C_9  and  C_10 
REMARK    5  A    between atoms: C_11  and  N_12 
ROOT
HETATM    1  N   UNL     1     -41.419  55.176 -55.520  1.00  0.00    -0.262 N 
HETATM    2  C   UNL     1     -42.136  54.180 -54.880  1.00  0.00     0.272 C 
HETATM    3  O   UNL     1     -43.314  53.928 -55.115  1.00  0.00    -0.266 OA
HETATM    4  H   UNL     1     -40.409  55.251 -55.418  1.00  0.00     0.190 HD
ENDROOT
BRANCH   1   5
HETATM    5  N   UNL     1     -41.953  55.701 -56.711  1.00  0.00    -0.249 N 
HETATM    6  C   UNL     1     -42.369  57.014 -56.778  1.00  0.00     0.339 C 
HETATM    7  N   UNL     1     -42.888  57.484 -55.599  1.00  0.00    -0.305 N 
HETATM    8  O   UNL     1     -42.272  57.631 -57.834  1.00  0.00    -0.245 OA
HETATM    9  H   UNL     1     -43.238  56.767 -54.973  1.00  0.00     0.171 HD
HETATM   10  H   UNL     1     -41.579  55.319 -57.575  1.00  0.00     0.192 HD
BRANCH   7  11
HETATM   11  C   UNL     1     -43.330  58.796 -55.341  1.00  0.00     0.069 A 
HETATM   12  C   UNL     1     -44.705  59.065 -55.438  1.00  0.00     0.095 A 
HETATM   13  C   UNL     1     -45.204  60.335 -55.131  1.00  0.00     0.039 A 
HETATM   14  C   UNL     1     -44.326  61.353 -54.761  1.00  0.00     0.003 A 
HETATM   15  C   UNL     1     -42.957  61.101 -54.691  1.00  0.00     0.002 A 
HETATM   16  C   UNL     1     -42.460  59.827 -54.978  1.00  0.00     0.032 A 
BRANCH  12  17
HETATM   17  O   UNL     1     -45.532  58.039 -55.829  1.00  0.00    -0.354 OA
HETATM   18  C   UNL     1     -46.201  58.321 -57.060  1.00  0.00     0.210 C 
ENDBRANCH  12  17
ENDBRANCH   7  11
ENDBRANCH   1   5
BRANCH   2  19
HETATM   19  C   UNL     1     -41.361  53.299 -53.960  1.00  0.00     0.060 A 
HETATM   20  C   UNL     1     -41.221  53.460 -52.569  1.00  0.00     0.054 A 
HETATM   21  C   UNL     1     -40.270  52.678 -51.881  1.00  0.00     0.031 A 
HETATM   22  C   UNL     1     -39.507  51.722 -52.554  1.00  0.00     0.002 A 
HETATM   23  C   UNL     1     -39.679  51.530 -53.920  1.00  0.00     0.001 A 
HETATM   24  C   UNL     1     -40.597  52.314 -54.617  1.00  0.00     0.019 A 
BRANCH  20  25
HETATM   25  N   UNL     1     -42.038  54.335 -51.801  1.00  0.00    -0.332 N 
HETATM   26  C   UNL     1     -41.752  55.635 -51.437  1.00  0.00     0.096 A 
HETATM   27  C   UNL     1     -42.798  56.136 -50.693  1.00  0.00     0.019 A 
HETATM   28  C   UNL     1     -43.776  55.125 -50.609  1.00  0.00     0.019 A 
HETATM   29  C   UNL     1     -43.299  54.042 -51.315  1.00  0.00     0.096 A 
ENDBRANCH  20  25
ENDBRANCH   2  19
TORSDOF 5
ENDMDL
MODEL 6
REMARK VINA RESULT:      -7.6      3.071      5.121
REMARK  5 active torsions:
REMARK  status: ('A' for Active; 'I' for Inactive)
REMARK    1  A    between atoms: O_2  and  C_3 
REMARK    2  A    between atoms: C_4  and  N_5 
REMARK       I    between atoms: N_5  and  C_6 
REMARK       I    between atoms: C_6  and  N_7 
REMARK    3  A    between atoms: N_7  and  N_8 
REMARK       I    between atoms: N_8  and  C_9 
REMARK    4  A    between atoms: C_9  and  C_10 
REMARK    5  A    between atoms: C_11  and  N_12 
ROOT
HETATM    1  N   UNL     1     -42.936  54.723 -51.874  1.00  0.00    -0.262 N 
HETATM    2  C   UNL     1     -41.590  54.575 -51.584  1.00  0.00     0.272 C 
HETATM    3  O   UNL     1     -41.016  55.179 -50.684  1.00  0.00    -0.266 OA
HETATM    4  H   UNL     1     -43.413  54.093 -52.516  1.00  0.00     0.190 HD
ENDROOT
BRANCH   1   5
HETATM    5  N   UNL     1     -43.749  55.333 -50.900  1.00  0.00    -0.249 N 
HETATM    6  C   UNL     1     -44.082  56.667 -50.996  1.00  0.00     0.339 C 
HETATM    7  N   UNL     1     -43.099  57.438 -51.562  1.00  0.00    -0.305 N 
HETATM    8  O   UNL     1     -45.166  57.057 -50.574  1.00  0.00    -0.245 OA
HETATM    9  H   UNL     1     -42.164  57.048 -51.497  1.00  0.00     0.171 HD
HETATM   10  H   UNL     1     -44.452  54.739 -50.470  1.00  0.00     0.192 HD
BRANCH   7  11
HETATM   11  C   UNL     1     -43.174  58.814 -51.851  1.00  0.00     0.069 A 
HETATM   12  C   UNL     1     -43.683  59.204 -53.101  1.00  0.00     0.095 A 
HETATM   13  C   UNL     1     -43.838  60.558 -53.413  1.00  0.00     0.039 A 
HETATM   14  C   UNL     1     -43.451  61.531 -52.492  1.00  0.00     0.003 A 
HETATM   15  C   UNL     1     -42.918  61.151 -51.261  1.00  0.00     0.002 A 
HETATM   16  C   UNL     1     -42.782  59.798 -50.940  1.00  0.00     0.032 A 
BRANCH  12  17
HETATM   17  O   UNL     1     -44.030  58.213 -53.988  1.00  0.00    -0.354 OA
HETATM   18  C   UNL     1     -44.481  58.738 -55.238  1.00  0.00     0.210 C 
ENDBRANCH  12  17
ENDBRANCH   7  11
ENDBRANCH   1   5
BRANCH   2  19
HETATM   19  C   UNL     1     -40.868  53.514 -52.343  1.00  0.00     0.060 A 
HETATM   20  C   UNL     1     -40.969  53.257 -53.722  1.00  0.00     0.054 A 
HETATM   21  C   UNL     1     -40.400  52.077 -54.243  1.00  0.00     0.031 A 
HETATM   22  C   UNL     1     -39.702  51.193 -53.417  1.00  0.00     0.002 A 
HETATM   23  C   UNL     1     -39.562  51.471 -52.062  1.00  0.00     0.001 A 
HETATM   24  C   UNL     1     -40.142  52.621 -51.529  1.00  0.00     0.019 A 
BRANCH  20  25
HETATM   25  N   UNL     1     -41.568  54.164 -54.640  1.00  0.00    -0.332 N 
HETATM   26  C   UNL     1     -42.752  53.990 -55.328  1.00  0.00     0.096 A 
HETATM   27  C   UNL     1     -42.981  55.095 -56.119  1.00  0.00     0.019 A 
HETATM   28  C   UNL     1     -41.917  55.994 -55.902  1.00  0.00     0.019 A 
HETATM   29  C   UNL     1     -41.080  55.413 -54.976  1.00  0.00     0.096 A 
ENDBRANCH  20  25
ENDBRANCH   2  19
TORSDOF 5
ENDMDL
MODEL 7
REMARK VINA RESULT:      -7.6      1.545      3.688
REMARK  5 active torsions:
REMARK  status: ('A' for Active; 'I' for Inactive)
REMARK    1  A    between atoms: O_2  and  C_3 
REMARK    2  A    between atoms: C_4  and  N_5 
REMARK       I    between atoms: N_5  and  C_6 
REMARK       I    between atoms: C_6  and  N_7 
REMARK    3  A    between atoms: N_7  and  N_8 
REMARK       I    between atoms: N_8  and  C_9 
REMARK    4  A    between atoms: C_9  and  C_10 
REMARK    5  A    between atoms: C_11  and  N_12 
ROOT
HETATM    1  N   UNL     1     -43.327  56.304 -53.156  1.00  0.00    -0.262 N 
HETATM    2  C   UNL     1     -42.085  56.685 -52.676  1.00  0.00     0.272 C 
HETATM    3  O   UNL     1     -41.524  57.729 -52.989  1.00  0.00    -0.266 OA
HETATM    4  H   UNL     1     -43.832  55.516 -52.755  1.00  0.00     0.190 HD
ENDROOT
BRANCH   1   5
HETATM    5  N   UNL     1     -44.122  57.293 -53.763  1.00  0.00    -0.249 N 
HETATM    6  C   UNL     1     -44.197  57.391 -55.136  1.00  0.00     0.339 C 
HETATM    7  N   UNL     1     -43.034  57.044 -55.774  1.00  0.00    -0.305 N 
HETATM    8  O   UNL     1     -45.234  57.780 -55.664  1.00  0.00    -0.245 OA
HETATM    9  H   UNL     1     -42.198  57.122 -55.204  1.00  0.00     0.171 HD
HETATM   10  H   UNL     1     -44.965  57.559 -53.262  1.00  0.00     0.192 HD
BRANCH   7  11
HETATM   11  C   UNL     1     -42.827  56.981 -57.166  1.00  0.00     0.069 A 
HETATM   12  C   UNL     1     -42.253  58.094 -57.804  1.00  0.00     0.095 A 
HETATM   13  C   UNL     1     -41.969  58.059 -59.172  1.00  0.00     0.039 A 
HETATM   14  C   UNL     1     -42.289  56.925 -59.918  1.00  0.00     0.003 A 
HETATM   15  C   UNL     1     -42.885  55.828 -59.297  1.00  0.00     0.002 A 
HETATM   16  C   UNL     1     -43.151  55.855 -57.925  1.00  0.00     0.032 A 
BRANCH  12  17
HETATM   17  O   UNL     1     -41.976  59.199 -57.036  1.00  0.00    -0.354 OA
HETATM   18  C   UNL     1     -41.866  60.390 -57.819  1.00  0.00     0.210 C 
ENDBRANCH  12  17
ENDBRANCH   7  11
ENDBRANCH   1   5
BRANCH   2  19
HETATM   19  C   UNL     1     -41.494  55.815 -51.618  1.00  0.00     0.060 A 
HETATM   20  C   UNL     1     -40.975  54.519 -51.796  1.00  0.00     0.054 A 
HETATM   21  C   UNL     1     -40.666  53.744 -50.660  1.00  0.00     0.031 A 
HETATM   22  C   UNL     1     -40.825  54.262 -49.373  1.00  0.00     0.002 A 
HETATM   23  C   UNL     1     -41.293  55.559 -49.199  1.00  0.00     0.001 A 
HETATM   24  C   UNL     1     -41.628  56.328 -50.312  1.00  0.00     0.019 A 
BRANCH  20  25
HETATM   25  N   UNL     1     -40.685  53.966 -53.074  1.00  0.00    -0.332 N 
HETATM   26  C   UNL     1     -40.658  52.629 -53.415  1.00  0.00     0.096 A 
HETATM   27  C   UNL     1     -40.332  52.510 -54.748  1.00  0.00     0.019 A 
HETATM   28  C   UNL     1     -40.169  53.813 -55.259  1.00  0.00     0.019 A 
HETATM   29  C   UNL     1     -40.415  54.687 -54.223  1.00  0.00     0.096 A 
ENDBRANCH  20  25
ENDBRANCH   2  19
TORSDOF 5
ENDMDL
MODEL 8
REMARK VINA RESULT:      -7.5      2.053      3.718
REMARK  5 active torsions:
REMARK  status: ('A' for Active; 'I' for Inactive)
REMARK    1  A    between atoms: O_2  and  C_3 
REMARK    2  A    between atoms: C_4  and  N_5 
REMARK       I    between atoms: N_5  and  C_6 
REMARK       I    between atoms: C_6  and  N_7 
REMARK    3  A    between atoms: N_7  and  N_8 
REMARK       I    between atoms: N_8  and  C_9 
REMARK    4  A    between atoms: C_9  and  C_10 
REMARK    5  A    between atoms: C_11  and  N_12 
ROOT
HETATM    1  N   UNL     1     -42.484  56.147 -55.584  1.00  0.00    -0.262 N 
HETATM    2  C   UNL     1     -41.567  55.723 -54.637  1.00  0.00     0.272 C 
HETATM    3  O   UNL     1     -40.353  55.725 -54.813  1.00  0.00    -0.266 OA
HETATM    4  H   UNL     1     -43.465  56.282 -55.349  1.00  0.00     0.190 HD
ENDROOT
BRANCH   1   5
HETATM    5  N   UNL     1     -42.001  56.915 -56.660  1.00  0.00    -0.249 N 
HETATM    6  C   UNL     1     -42.863  57.402 -57.620  1.00  0.00     0.339 C 
HETATM    7  N   UNL     1     -43.927  56.574 -57.870  1.00  0.00    -0.305 N 
HETATM    8  O   UNL     1     -42.621  58.472 -58.169  1.00  0.00    -0.245 OA
HETATM    9  H   UNL     1     -43.774  55.601 -57.629  1.00  0.00     0.171 HD
HETATM   10  H   UNL     1     -41.193  57.499 -56.464  1.00  0.00     0.192 HD
BRANCH   7  11
HETATM   11  C   UNL     1     -45.001  56.831 -58.745  1.00  0.00     0.069 A 
HETATM   12  C   UNL     1     -45.177  55.981 -59.849  1.00  0.00     0.095 A 
HETATM   13  C   UNL     1     -46.264  56.153 -60.712  1.00  0.00     0.039 A 
HETATM   14  C   UNL     1     -47.161  57.198 -60.496  1.00  0.00     0.003 A 
HETATM   15  C   UNL     1     -46.977  58.063 -59.418  1.00  0.00     0.002 A 
HETATM   16  C   UNL     1     -45.902  57.879 -58.544  1.00  0.00     0.032 A 
BRANCH  12  17
HETATM   17  O   UNL     1     -44.255  54.979 -60.038  1.00  0.00    -0.354 OA
HETATM   18  C   UNL     1     -44.734  53.710 -59.588  1.00  0.00     0.210 C 
ENDBRANCH  12  17
ENDBRANCH   7  11
ENDBRANCH   1   5
BRANCH   2  19
HETATM   19  C   UNL     1     -42.119  55.381 -53.294  1.00  0.00     0.060 A 
HETATM   20  C   UNL     1     -42.038  54.133 -52.651  1.00  0.00     0.054 A 
HETATM   21  C   UNL     1     -42.807  53.909 -51.491  1.00  0.00     0.031 A 
HETATM   22  C   UNL     1     -43.605  54.921 -50.954  1.00  0.00     0.002 A 
HETATM   23  C   UNL     1     -43.649  56.169 -51.563  1.00  0.00     0.001 A 
HETATM   24  C   UNL     1     -42.914  56.396 -52.726  1.00  0.00     0.019 A 
BRANCH  20  25
HETATM   25  N   UNL     1     -41.164  53.093 -53.076  1.00  0.00    -0.332 N 
HETATM   26  C   UNL     1     -40.094  52.569 -52.380  1.00  0.00     0.096 A 
HETATM   27  C   UNL     1     -39.503  51.582 -53.138  1.00  0.00     0.019 A 
HETATM   28  C   UNL     1     -40.239  51.474 -54.335  1.00  0.00     0.019 A 
HETATM   29  C   UNL     1     -41.265  52.391 -54.263  1.00  0.00     0.096 A 
ENDBRANCH  20  25
ENDBRANCH   2  19
TORSDOF 5
ENDMDL
MODEL 9
REMARK VINA RESULT:      -7.4      3.504      7.335
REMARK  5 active torsions:
REMARK  status: ('A' for Active; 'I' for Inactive)
REMARK    1  A    between atoms: O_2  and  C_3 
REMARK    2  A    between atoms: C_4  and  N_5 
REMARK       I    between atoms: N_5  and  C_6 
REMARK       I    between atoms: C_6  and  N_7 
REMARK    3  A    between atoms: N_7  and  N_8 
REMARK       I    between atoms: N_8  and  C_9 
REMARK    4  A    between atoms: C_9  and  C_10 
REMARK    5  A    between atoms: C_11  and  N_12 
ROOT
HETATM    1  N   UNL     1     -42.418  57.225 -54.172  1.00  0.00    -0.262 N 
HETATM    2  C   UNL     1     -43.313  57.604 -53.186  1.00  0.00     0.272 C 
HETATM    3  O   UNL     1     -44.487  57.251 -53.158  1.00  0.00    -0.266 OA
HETATM    4  H   UNL     1     -41.420  57.402 -54.079  1.00  0.00     0.190 HD
ENDROOT
BRANCH   1   5
HETATM    5  N   UNL     1     -42.772  56.134 -54.988  1.00  0.00    -0.249 N 
HETATM    6  C   UNL     1     -42.404  54.850 -54.646  1.00  0.00     0.339 C 
HETATM    7  N   UNL     1     -41.198  54.781 -53.997  1.00  0.00    -0.305 N 
HETATM    8  O   UNL     1     -43.131  53.909 -54.947  1.00  0.00    -0.245 OA
HETATM    9  H   UNL     1     -40.578  55.565 -54.169  1.00  0.00     0.171 HD
HETATM   10  H   UNL     1     -43.654  56.216 -55.485  1.00  0.00     0.192 HD
BRANCH   7  11
HETATM   11  C   UNL     1     -40.596  53.622 -53.469  1.00  0.00     0.069 A 
HETATM   12  C   UNL     1     -40.469  53.517 -52.074  1.00  0.00     0.095 A 
HETATM   13  C   UNL     1     -39.936  52.361 -51.495  1.00  0.00     0.039 A 
HETATM   14  C   UNL     1     -39.495  51.318 -52.309  1.00  0.00     0.003 A 
HETATM   15  C   UNL     1     -39.592  51.428 -53.695  1.00  0.00     0.002 A 
HETATM   16  C   UNL     1     -40.143  52.575 -54.273  1.00  0.00     0.032 A 
BRANCH  12  17
HETATM   17  O   UNL     1     -40.894  54.578 -51.310  1.00  0.00    -0.354 OA
HETATM   18  C   UNL     1     -40.341  54.554 -49.993  1.00  0.00     0.210 C 
ENDBRANCH  12  17
ENDBRANCH   7  11
ENDBRANCH   1   5
BRANCH   2  19
HETATM   19  C   UNL     1     -42.743  58.373 -52.042  1.00  0.00     0.060 A 
HETATM   20  C   UNL     1     -43.208  59.606 -51.549  1.00  0.00     0.054 A 
HETATM   21  C   UNL     1     -42.423  60.310 -50.614  1.00  0.00     0.031 A 
HETATM   22  C   UNL     1     -41.221  59.777 -50.142  1.00  0.00     0.002 A 
HETATM   23  C   UNL     1     -40.785  58.537 -50.593  1.00  0.00     0.001 A 
HETATM   24  C   UNL     1     -41.539  57.842 -51.538  1.00  0.00     0.019 A 
BRANCH  20  25
HETATM   25  N   UNL     1     -44.472  60.157 -51.901  1.00  0.00    -0.332 N 
HETATM   26  C   UNL     1     -44.749  60.987 -52.968  1.00  0.00     0.096 A 
HETATM   27  C   UNL     1     -46.090  61.303 -52.958  1.00  0.00     0.019 A 
HETATM   28  C   UNL     1     -46.671  60.633 -51.863  1.00  0.00     0.019 A 
HETATM   29  C   UNL     1     -45.667  59.919 -51.247  1.00  0.00     0.096 A 
ENDBRANCH  20  25
ENDBRANCH   2  19
TORSDOF 5
ENDMDL
MODEL 10
REMARK VINA RESULT:      -7.3      4.965      7.400
REMARK  5 active torsions:
REMARK  status: ('A' for Active; 'I' for Inactive)
REMARK    1  A    between atoms: O_2  and  C_3 
REMARK    2  A    between atoms: C_4  and  N_5 
REMARK       I    between atoms: N_5  and  C_6 
REMARK       I    between atoms: C_6  and  N_7 
REMARK    3  A    between atoms: N_7  and  N_8 
REMARK       I    between atoms: N_8  and  C_9 
REMARK    4  A    between atoms: C_9  and  C_10 
REMARK    5  A    between atoms: C_11  and  N_12 
ROOT
HETATM    1  N   UNL     1     -43.274  57.151 -50.956  1.00  0.00    -0.262 N 
HETATM    2  C   UNL     1     -43.294  55.796 -50.669  1.00  0.00     0.272 C 
HETATM    3  O   UNL     1     -44.322  55.151 -50.494  1.00  0.00    -0.266 OA
HETATM    4  H   UNL     1     -42.419  57.617 -51.253  1.00  0.00     0.190 HD
ENDROOT
BRANCH   1   5
HETATM    5  N   UNL     1     -44.475  57.743 -51.387  1.00  0.00    -0.249 N 
HETATM    6  C   UNL     1     -44.664  59.105 -51.288  1.00  0.00     0.339 C 
HETATM    7  N   UNL     1     -44.046  59.666 -50.200  1.00  0.00    -0.305 N 
HETATM    8  O   UNL     1     -45.351  59.687 -52.122  1.00  0.00    -0.245 OA
HETATM    9  H   UNL     1     -43.859  59.021 -49.440  1.00  0.00     0.171 HD
HETATM   10  H   UNL     1     -44.935  57.296 -52.176  1.00  0.00     0.192 HD
BRANCH   7  11
HETATM   11  C   UNL     1     -44.003  61.035 -49.873  1.00  0.00     0.069 A 
HETATM   12  C   UNL     1     -44.911  61.517 -48.916  1.00  0.00     0.095 A 
HETATM   13  C   UNL     1     -44.869  62.855 -48.508  1.00  0.00     0.039 A 
HETATM   14  C   UNL     1     -43.943  63.725 -49.082  1.00  0.00     0.003 A 
HETATM   15  C   UNL     1     -43.058  63.259 -50.054  1.00  0.00     0.002 A 
HETATM   16  C   UNL     1     -43.087  61.919 -50.446  1.00  0.00     0.032 A 
BRANCH  12  17
HETATM   17  O   UNL     1     -45.823  60.631 -48.394  1.00  0.00    -0.354 OA
HETATM   18  C   UNL     1     -45.836  60.646 -46.965  1.00  0.00     0.210 C 
ENDBRANCH  12  17
ENDBRANCH   7  11
ENDBRANCH   1   5
BRANCH   2  19
HETATM   19  C   UNL     1     -41.979  55.094 -50.721  1.00  0.00     0.060 A 
HETATM   20  C   UNL     1     -41.371  54.543 -51.864  1.00  0.00     0.054 A 
HETATM   21  C   UNL     1     -40.241  53.714 -51.706  1.00  0.00     0.031 A 
HETATM   22  C   UNL     1     -39.699  53.475 -50.441  1.00  0.00     0.002 A 
HETATM   23  C   UNL     1     -40.272  54.058 -49.317  1.00  0.00     0.001 A 
HETATM   24  C   UNL     1     -41.405  54.858 -49.456  1.00  0.00     0.019 A 
BRANCH  20  25
HETATM   25  N   UNL     1     -41.801  54.830 -53.189  1.00  0.00    -0.332 N 
HETATM   26  C   UNL     1     -42.777  54.171 -53.908  1.00  0.00     0.096 A 
HETATM   27  C   UNL     1     -42.891  54.752 -55.152  1.00  0.00     0.019 A 
HETATM   28  C   UNL     1     -41.972  55.819 -55.203  1.00  0.00     0.019 A 
HETATM   29  C   UNL     1     -41.335  55.863 -53.983  1.00  0.00     0.096 A 
ENDBRANCH  20  25
ENDBRANCH   2  19
TORSDOF 5
ENDMDL
