MODEL 1
REMARK VINA RESULT:      -9.3      0.000      0.000
REMARK  8 active torsions:
REMARK  status: ('A' for Active; 'I' for Inactive)
REMARK    1  A    between atoms: N_2  and  C_3 
REMARK    2  A    between atoms: C_6  and  C_7 
REMARK    3  A    between atoms: N_8  and  C_9 
REMARK    4  A    between atoms: C_9  and  C_10 
REMARK    5  A    between atoms: C_14  and  N_15 
REMARK    6  A    between atoms: C_17  and  N_18 
REMARK    7  A    between atoms: C_19  and  C_20 
REMARK    8  A    between atoms: C_26  and  C_27 
ROOT
HETATM    1  C   UNL     1     -41.866  55.282 -55.189  1.00  0.00     0.141 A 
HETATM    2  N   UNL     1     -41.727  55.769 -53.900  1.00  0.00    -0.324 N 
HETATM    3  C   UNL     1     -41.316  54.714 -53.085  1.00  0.00     0.076 A 
HETATM    4  C   UNL     1     -41.155  53.653 -53.967  1.00  0.00     0.097 A 
HETATM    5  N   UNL     1     -41.558  54.004 -55.228  1.00  0.00    -0.227 NA
ENDROOT
BRANCH   2   6
HETATM    6  C   UNL     1     -41.896  57.168 -53.504  1.00  0.00     0.178 C 
BRANCH   6   7
HETATM    7  C   UNL     1     -43.049  57.517 -52.610  1.00  0.00     0.068 A 
HETATM    8  C   UNL     1     -42.658  58.220 -51.363  1.00  0.00     0.259 A 
HETATM    9  O   UNL     1     -41.487  58.446 -51.072  1.00  0.00    -0.267 OA
HETATM   10  N   UNL     1     -43.673  58.634 -50.564  1.00  0.00    -0.298 N 
HETATM   11  C   UNL     1     -44.970  58.449 -50.899  1.00  0.00     0.181 A 
HETATM   12  H   UNL     1     -43.421  59.166 -49.749  1.00  0.00     0.171 HD
HETATM   13  N   UNL     1     -45.330  57.832 -51.973  1.00  0.00    -0.208 NA
HETATM   14  C   UNL     1     -44.371  57.370 -52.840  1.00  0.00     0.117 A 
BRANCH  11  15
HETATM   15  N   UNL     1     -45.894  58.944 -50.039  1.00  0.00    -0.272 NA
HETATM   16  H   UNL     1     -45.567  59.600 -49.343  1.00  0.00     0.127 HD
HETATM   17  H   UNL     1     -46.484  58.214 -49.653  1.00  0.00     0.127 HD
ENDBRANCH  11  15
BRANCH  14  18
HETATM   18  N   UNL     1     -44.845  56.780 -53.994  1.00  0.00    -0.286 NA
HETATM   19  H   UNL     1     -44.887  55.768 -53.921  1.00  0.00     0.125 HD
HETATM   20  H   UNL     1     -45.780  57.147 -54.157  1.00  0.00     0.125 HD
ENDBRANCH  14  18
ENDBRANCH   6   7
ENDBRANCH   2   6
BRANCH   1  21
HETATM   21  C   UNL     1     -42.321  56.019 -56.367  1.00  0.00     0.010 A 
HETATM   22  C   UNL     1     -42.016  57.364 -56.566  1.00  0.00     0.017 A 
HETATM   23  C   UNL     1     -42.390  58.009 -57.757  1.00  0.00     0.030 A 
HETATM   24  C   UNL     1     -43.047  57.338 -58.805  1.00  0.00     0.029 A 
HETATM   25  C   UNL     1     -43.364  55.990 -58.562  1.00  0.00     0.030 A 
HETATM   26  C   UNL     1     -43.000  55.339 -57.377  1.00  0.00     0.017 A 
BRANCH  24  27
HETATM   27  N   UNL     1     -43.391  57.983 -60.003  1.00  0.00    -0.390 N 
HETATM   28  C   UNL     1     -44.796  58.328 -60.221  1.00  0.00     0.149 C 
HETATM   29  C   UNL     1     -42.427  58.910 -60.597  1.00  0.00     0.149 C 
ENDBRANCH  24  27
ENDBRANCH   1  21
BRANCH   3  30
HETATM   30  C   UNL     1     -41.214  54.762 -51.626  1.00  0.00    -0.007 A 
HETATM   31  C   UNL     1     -42.366  54.548 -50.854  1.00  0.00     0.014 A 
HETATM   32  C   UNL     1     -42.304  54.571 -49.460  1.00  0.00     0.001 A 
HETATM   33  C   UNL     1     -41.087  54.810 -48.825  1.00  0.00     0.000 A 
HETATM   34  C   UNL     1     -39.936  55.020 -49.582  1.00  0.00     0.001 A 
HETATM   35  C   UNL     1     -39.996  54.990 -50.979  1.00  0.00     0.014 A 
ENDBRANCH   3  30
BRANCH   4  36
HETATM   36  C   UNL     1     -40.662  52.310 -53.693  1.00  0.00    -0.005 A 
HETATM   37  C   UNL     1     -40.861  51.304 -54.651  1.00  0.00     0.014 A 
HETATM   38  C   UNL     1     -40.351  50.018 -54.457  1.00  0.00     0.001 A 
HETATM   39  C   UNL     1     -39.629  49.725 -53.303  1.00  0.00     0.000 A 
HETATM   40  C   UNL     1     -39.416  50.715 -52.347  1.00  0.00     0.001 A 
HETATM   41  C   UNL     1     -39.925  52.003 -52.543  1.00  0.00     0.014 A 
ENDBRANCH   4  36
TORSDOF 8
ENDMDL
MODEL 2
REMARK VINA RESULT:      -8.9      1.801      6.804
REMARK  8 active torsions:
REMARK  status: ('A' for Active; 'I' for Inactive)
REMARK    1  A    between atoms: N_2  and  C_3 
REMARK    2  A    between atoms: C_6  and  C_7 
REMARK    3  A    between atoms: N_8  and  C_9 
REMARK    4  A    between atoms: C_9  and  C_10 
REMARK    5  A    between atoms: C_14  and  N_15 
REMARK    6  A    between atoms: C_17  and  N_18 
REMARK    7  A    between atoms: C_19  and  C_20 
REMARK    8  A    between atoms: C_26  and  C_27 
ROOT
HETATM    1  C   UNL     1     -41.961  55.524 -55.232  1.00  0.00     0.141 A 
HETATM    2  N   UNL     1     -42.111  56.858 -54.893  1.00  0.00    -0.324 N 
HETATM    3  C   UNL     1     -42.737  57.504 -55.958  1.00  0.00     0.076 A 
HETATM    4  C   UNL     1     -43.002  56.482 -56.861  1.00  0.00     0.097 A 
HETATM    5  N   UNL     1     -42.462  55.300 -56.427  1.00  0.00    -0.227 NA
ENDROOT
BRANCH   2   6
HETATM    6  C   UNL     1     -41.752  57.445 -53.600  1.00  0.00     0.178 C 
BRANCH   6   7
HETATM    7  C   UNL     1     -42.850  57.722 -52.617  1.00  0.00     0.068 A 
HETATM    8  C   UNL     1     -42.544  58.810 -51.657  1.00  0.00     0.259 A 
HETATM    9  O   UNL     1     -41.463  59.393 -51.640  1.00  0.00    -0.267 OA
HETATM   10  N   UNL     1     -43.541  59.156 -50.804  1.00  0.00    -0.298 N 
HETATM   11  C   UNL     1     -44.758  58.569 -50.848  1.00  0.00     0.181 A 
HETATM   12  H   UNL     1     -43.365  59.935 -50.191  1.00  0.00     0.171 HD
HETATM   13  N   UNL     1     -45.041  57.615 -51.669  1.00  0.00    -0.208 NA
HETATM   14  C   UNL     1     -44.091  57.192 -52.565  1.00  0.00     0.117 A 
BRANCH  11  15
HETATM   15  N   UNL     1     -45.685  59.030 -49.973  1.00  0.00    -0.272 NA
HETATM   16  H   UNL     1     -45.800  58.514 -49.112  1.00  0.00     0.127 HD
HETATM   17  H   UNL     1     -46.566  59.244 -50.430  1.00  0.00     0.127 HD
ENDBRANCH  11  15
BRANCH  14  18
HETATM   18  N   UNL     1     -44.499  56.213 -53.448  1.00  0.00    -0.286 NA
HETATM   19  H   UNL     1     -45.446  56.365 -53.782  1.00  0.00     0.125 HD
HETATM   20  H   UNL     1     -43.855  56.232 -54.237  1.00  0.00     0.125 HD
ENDBRANCH  14  18
ENDBRANCH   6   7
ENDBRANCH   2   6
BRANCH   1  21
HETATM   21  C   UNL     1     -41.316  54.478 -54.439  1.00  0.00     0.010 A 
HETATM   22  C   UNL     1     -41.622  54.267 -53.097  1.00  0.00     0.017 A 
HETATM   23  C   UNL     1     -41.051  53.191 -52.398  1.00  0.00     0.030 A 
HETATM   24  C   UNL     1     -40.184  52.266 -53.012  1.00  0.00     0.029 A 
HETATM   25  C   UNL     1     -39.875  52.523 -54.359  1.00  0.00     0.030 A 
HETATM   26  C   UNL     1     -40.435  53.596 -55.064  1.00  0.00     0.017 A 
BRANCH  24  27
HETATM   27  N   UNL     1     -39.641  51.177 -52.314  1.00  0.00    -0.390 N 
HETATM   28  C   UNL     1     -39.827  51.126 -50.863  1.00  0.00     0.149 C 
HETATM   29  C   UNL     1     -39.601  49.874 -52.978  1.00  0.00     0.149 C 
ENDBRANCH  24  27
ENDBRANCH   1  21
BRANCH   3  30
HETATM   30  C   UNL     1     -42.931  58.950 -56.075  1.00  0.00    -0.007 A 
HETATM   31  C   UNL     1     -42.024  59.701 -56.838  1.00  0.00     0.014 A 
HETATM   32  C   UNL     1     -42.185  61.079 -56.985  1.00  0.00     0.001 A 
HETATM   33  C   UNL     1     -43.257  61.720 -56.367  1.00  0.00     0.000 A 
HETATM   34  C   UNL     1     -44.166  60.984 -55.610  1.00  0.00     0.001 A 
HETATM   35  C   UNL     1     -44.009  59.601 -55.468  1.00  0.00     0.014 A 
ENDBRANCH   3  30
BRANCH   4  36
HETATM   36  C   UNL     1     -43.717  56.551 -58.128  1.00  0.00    -0.005 A 
HETATM   37  C   UNL     1     -43.442  55.593 -59.116  1.00  0.00     0.014 A 
HETATM   38  C   UNL     1     -44.149  55.584 -60.321  1.00  0.00     0.001 A 
HETATM   39  C   UNL     1     -45.144  56.530 -60.549  1.00  0.00     0.000 A 
HETATM   40  C   UNL     1     -45.435  57.481 -59.574  1.00  0.00     0.001 A 
HETATM   41  C   UNL     1     -44.728  57.488 -58.366  1.00  0.00     0.014 A 
ENDBRANCH   4  36
TORSDOF 8
ENDMDL
MODEL 3
REMARK VINA RESULT:      -8.9      2.154      7.113
REMARK  8 active torsions:
REMARK  status: ('A' for Active; 'I' for Inactive)
REMARK    1  A    between atoms: N_2  and  C_3 
REMARK    2  A    between atoms: C_6  and  C_7 
REMARK    3  A    between atoms: N_8  and  C_9 
REMARK    4  A    between atoms: C_9  and  C_10 
REMARK    5  A    between atoms: C_14  and  N_15 
REMARK    6  A    between atoms: C_17  and  N_18 
REMARK    7  A    between atoms: C_19  and  C_20 
REMARK    8  A    between atoms: C_26  and  C_27 
ROOT
HETATM    1  C   UNL     1     -42.318  55.407 -55.792  1.00  0.00     0.141 A 
HETATM    2  N   UNL     1     -42.330  56.787 -55.688  1.00  0.00    -0.324 N 
HETATM    3  C   UNL     1     -42.963  57.299 -56.820  1.00  0.00     0.076 A 
HETATM    4  C   UNL     1     -43.372  56.167 -57.515  1.00  0.00     0.097 A 
HETATM    5  N   UNL     1     -42.911  55.030 -56.904  1.00  0.00    -0.227 NA
ENDROOT
BRANCH   2   6
HETATM    6  C   UNL     1     -41.840  57.550 -54.538  1.00  0.00     0.178 C 
BRANCH   6   7
HETATM    7  C   UNL     1     -42.803  58.447 -53.819  1.00  0.00     0.068 A 
HETATM    8  C   UNL     1     -42.387  59.870 -53.770  1.00  0.00     0.259 A 
HETATM    9  O   UNL     1     -41.320  60.262 -54.235  1.00  0.00    -0.267 OA
HETATM   10  N   UNL     1     -43.268  60.734 -53.206  1.00  0.00    -0.298 N 
HETATM   11  C   UNL     1     -44.473  60.330 -52.746  1.00  0.00     0.181 A 
HETATM   12  H   UNL     1     -43.022  61.709 -53.225  1.00  0.00     0.171 HD
HETATM   13  N   UNL     1     -44.850  59.097 -52.771  1.00  0.00    -0.208 NA
HETATM   14  C   UNL     1     -44.020  58.149 -53.316  1.00  0.00     0.117 A 
BRANCH  11  15
HETATM   15  N   UNL     1     -45.283  61.294 -52.243  1.00  0.00    -0.272 NA
HETATM   16  H   UNL     1     -44.995  61.730 -51.378  1.00  0.00     0.127 HD
HETATM   17  H   UNL     1     -46.257  61.009 -52.241  1.00  0.00     0.127 HD
ENDBRANCH  11  15
BRANCH  14  18
HETATM   18  N   UNL     1     -44.529  56.866 -53.360  1.00  0.00    -0.286 NA
HETATM   19  H   UNL     1     -43.979  56.214 -52.809  1.00  0.00     0.125 HD
HETATM   20  H   UNL     1     -45.477  56.906 -52.992  1.00  0.00     0.125 HD
ENDBRANCH  14  18
ENDBRANCH   6   7
ENDBRANCH   2   6
BRANCH   1  21
HETATM   21  C   UNL     1     -41.718  54.455 -54.859  1.00  0.00     0.010 A 
HETATM   22  C   UNL     1     -40.494  53.839 -55.109  1.00  0.00     0.017 A 
HETATM   23  C   UNL     1     -39.907  53.006 -54.142  1.00  0.00     0.030 A 
HETATM   24  C   UNL     1     -40.493  52.781 -52.882  1.00  0.00     0.029 A 
HETATM   25  C   UNL     1     -41.739  53.395 -52.671  1.00  0.00     0.030 A 
HETATM   26  C   UNL     1     -42.336  54.224 -53.630  1.00  0.00     0.017 A 
BRANCH  24  27
HETATM   27  N   UNL     1     -39.885  51.970 -51.911  1.00  0.00    -0.390 N 
HETATM   28  C   UNL     1     -40.271  52.162 -50.513  1.00  0.00     0.149 C 
HETATM   29  C   UNL     1     -39.530  50.597 -52.273  1.00  0.00     0.149 C 
ENDBRANCH  24  27
ENDBRANCH   1  21
BRANCH   3  30
HETATM   30  C   UNL     1     -43.037  58.714 -57.183  1.00  0.00    -0.007 A 
HETATM   31  C   UNL     1     -41.954  59.306 -57.851  1.00  0.00     0.014 A 
HETATM   32  C   UNL     1     -41.995  60.650 -58.226  1.00  0.00     0.001 A 
HETATM   33  C   UNL     1     -43.121  61.416 -57.932  1.00  0.00     0.000 A 
HETATM   34  C   UNL     1     -44.204  60.838 -57.271  1.00  0.00     0.001 A 
HETATM   35  C   UNL     1     -44.166  59.489 -56.902  1.00  0.00     0.014 A 
ENDBRANCH   3  30
BRANCH   4  36
HETATM   36  C   UNL     1     -44.157  56.086 -58.739  1.00  0.00    -0.005 A 
HETATM   37  C   UNL     1     -43.956  54.999 -59.604  1.00  0.00     0.014 A 
HETATM   38  C   UNL     1     -44.730  54.849 -60.758  1.00  0.00     0.001 A 
HETATM   39  C   UNL     1     -45.720  55.782 -61.056  1.00  0.00     0.000 A 
HETATM   40  C   UNL     1     -45.937  56.860 -60.202  1.00  0.00     0.001 A 
HETATM   41  C   UNL     1     -45.163  57.009 -59.046  1.00  0.00     0.014 A 
ENDBRANCH   4  36
TORSDOF 8
ENDMDL
MODEL 4
REMARK VINA RESULT:      -8.7      2.044      7.365
REMARK  8 active torsions:
REMARK  status: ('A' for Active; 'I' for Inactive)
REMARK    1  A    between atoms: N_2  and  C_3 
REMARK    2  A    between atoms: C_6  and  C_7 
REMARK    3  A    between atoms: N_8  and  C_9 
REMARK    4  A    between atoms: C_9  and  C_10 
REMARK    5  A    between atoms: C_14  and  N_15 
REMARK    6  A    between atoms: C_17  and  N_18 
REMARK    7  A    between atoms: C_19  and  C_20 
REMARK    8  A    between atoms: C_26  and  C_27 
ROOT
HETATM    1  C   UNL     1     -42.526  56.294 -56.083  1.00  0.00     0.141 A 
HETATM    2  N   UNL     1     -42.370  57.648 -56.326  1.00  0.00    -0.324 N 
HETATM    3  C   UNL     1     -43.035  57.951 -57.513  1.00  0.00     0.076 A 
HETATM    4  C   UNL     1     -43.630  56.750 -57.880  1.00  0.00     0.097 A 
HETATM    5  N   UNL     1     -43.253  55.743 -57.031  1.00  0.00    -0.227 NA
ENDROOT
BRANCH   2   6
HETATM    6  C   UNL     1     -41.699  58.592 -55.431  1.00  0.00     0.178 C 
BRANCH   6   7
HETATM    7  C   UNL     1     -42.297  58.834 -54.077  1.00  0.00     0.068 A 
HETATM    8  C   UNL     1     -41.300  59.117 -53.015  1.00  0.00     0.259 A 
HETATM    9  O   UNL     1     -40.090  59.101 -53.224  1.00  0.00    -0.267 OA
HETATM   10  N   UNL     1     -41.798  59.428 -51.792  1.00  0.00    -0.298 N 
HETATM   11  C   UNL     1     -43.128  59.511 -51.559  1.00  0.00     0.181 A 
HETATM   12  H   UNL     1     -41.132  59.682 -51.082  1.00  0.00     0.171 HD
HETATM   13  N   UNL     1     -44.010  59.259 -52.466  1.00  0.00    -0.208 NA
HETATM   14  C   UNL     1     -43.599  58.928 -53.733  1.00  0.00     0.117 A 
BRANCH  11  15
HETATM   15  N   UNL     1     -43.501  59.871 -50.307  1.00  0.00    -0.272 NA
HETATM   16  H   UNL     1     -43.759  60.838 -50.166  1.00  0.00     0.127 HD
HETATM   17  H   UNL     1     -42.857  59.524 -49.603  1.00  0.00     0.127 HD
ENDBRANCH  11  15
BRANCH  14  18
HETATM   18  N   UNL     1     -44.608  58.739 -54.656  1.00  0.00    -0.286 NA
HETATM   19  H   UNL     1     -45.503  58.548 -54.215  1.00  0.00     0.125 HD
HETATM   20  H   UNL     1     -44.676  59.593 -55.206  1.00  0.00     0.125 HD
ENDBRANCH  14  18
ENDBRANCH   6   7
ENDBRANCH   2   6
BRANCH   1  21
HETATM   21  C   UNL     1     -41.962  55.524 -54.976  1.00  0.00     0.010 A 
HETATM   22  C   UNL     1     -42.661  55.304 -53.790  1.00  0.00     0.017 A 
HETATM   23  C   UNL     1     -42.122  54.479 -52.790  1.00  0.00     0.030 A 
HETATM   24  C   UNL     1     -40.890  53.814 -52.941  1.00  0.00     0.029 A 
HETATM   25  C   UNL     1     -40.198  54.078 -54.136  1.00  0.00     0.030 A 
HETATM   26  C   UNL     1     -40.724  54.904 -55.138  1.00  0.00     0.017 A 
BRANCH  24  27
HETATM   27  N   UNL     1     -40.373  52.968 -51.948  1.00  0.00    -0.390 N 
HETATM   28  C   UNL     1     -39.629  51.782 -52.373  1.00  0.00     0.149 C 
HETATM   29  C   UNL     1     -39.921  53.564 -50.691  1.00  0.00     0.149 C 
ENDBRANCH  24  27
ENDBRANCH   1  21
BRANCH   3  30
HETATM   30  C   UNL     1     -42.976  59.235 -58.213  1.00  0.00    -0.007 A 
HETATM   31  C   UNL     1     -42.072  59.394 -59.274  1.00  0.00     0.014 A 
HETATM   32  C   UNL     1     -41.998  60.599 -59.974  1.00  0.00     0.001 A 
HETATM   33  C   UNL     1     -42.828  61.659 -59.617  1.00  0.00     0.000 A 
HETATM   34  C   UNL     1     -43.733  61.511 -58.566  1.00  0.00     0.001 A 
HETATM   35  C   UNL     1     -43.812  60.301 -57.869  1.00  0.00     0.014 A 
ENDBRANCH   3  30
BRANCH   4  36
HETATM   36  C   UNL     1     -44.521  56.482 -59.001  1.00  0.00    -0.005 A 
HETATM   37  C   UNL     1     -44.169  55.486 -59.925  1.00  0.00     0.014 A 
HETATM   38  C   UNL     1     -45.023  55.153 -60.979  1.00  0.00     0.001 A 
HETATM   39  C   UNL     1     -46.244  55.809 -61.117  1.00  0.00     0.000 A 
HETATM   40  C   UNL     1     -46.611  56.793 -60.202  1.00  0.00     0.001 A 
HETATM   41  C   UNL     1     -45.756  57.125 -59.145  1.00  0.00     0.014 A 
ENDBRANCH   4  36
TORSDOF 8
ENDMDL
MODEL 5
REMARK VINA RESULT:      -8.4      2.476      7.074
REMARK  8 active torsions:
REMARK  status: ('A' for Active; 'I' for Inactive)
REMARK    1  A    between atoms: N_2  and  C_3 
REMARK    2  A    between atoms: C_6  and  C_7 
REMARK    3  A    between atoms: N_8  and  C_9 
REMARK    4  A    between atoms: C_9  and  C_10 
REMARK    5  A    between atoms: C_14  and  N_15 
REMARK    6  A    between atoms: C_17  and  N_18 
REMARK    7  A    between atoms: C_19  and  C_20 
REMARK    8  A    between atoms: C_26  and  C_27 
ROOT
HETATM    1  C   UNL     1     -42.029  56.035 -54.285  1.00  0.00     0.141 A 
HETATM    2  N   UNL     1     -42.932  56.788 -53.553  1.00  0.00    -0.324 N 
HETATM    3  C   UNL     1     -43.097  58.012 -54.201  1.00  0.00     0.076 A 
HETATM    4  C   UNL     1     -42.326  57.887 -55.351  1.00  0.00     0.097 A 
HETATM    5  N   UNL     1     -41.635  56.704 -55.346  1.00  0.00    -0.227 NA
ENDROOT
BRANCH   2   6
HETATM    6  C   UNL     1     -43.646  56.325 -52.362  1.00  0.00     0.178 C 
BRANCH   6   7
HETATM    7  C   UNL     1     -42.843  55.992 -51.139  1.00  0.00     0.068 A 
HETATM    8  C   UNL     1     -43.041  54.609 -50.641  1.00  0.00     0.259 A 
HETATM    9  O   UNL     1     -43.833  53.827 -51.159  1.00  0.00    -0.267 OA
HETATM   10  N   UNL     1     -42.270  54.234 -49.588  1.00  0.00    -0.298 N 
HETATM   11  C   UNL     1     -41.349  55.061 -49.045  1.00  0.00     0.181 A 
HETATM   12  H   UNL     1     -42.352  53.279 -49.284  1.00  0.00     0.171 HD
HETATM   13  N   UNL     1     -41.168  56.269 -49.457  1.00  0.00    -0.208 NA
HETATM   14  C   UNL     1     -41.909  56.740 -50.513  1.00  0.00     0.117 A 
BRANCH  11  15
HETATM   15  N   UNL     1     -40.611  54.557 -48.024  1.00  0.00    -0.272 NA
HETATM   16  H   UNL     1     -39.761  55.048 -47.787  1.00  0.00     0.127 HD
HETATM   17  H   UNL     1     -40.482  53.553 -48.108  1.00  0.00     0.127 HD
ENDBRANCH  11  15
BRANCH  14  18
HETATM   18  N   UNL     1     -41.606  58.020 -50.929  1.00  0.00    -0.286 NA
HETATM   19  H   UNL     1     -40.719  58.347 -50.558  1.00  0.00     0.125 HD
HETATM   20  H   UNL     1     -41.562  58.003 -51.946  1.00  0.00     0.125 HD
ENDBRANCH  14  18
ENDBRANCH   6   7
ENDBRANCH   2   6
BRANCH   1  21
HETATM   21  C   UNL     1     -41.521  54.704 -53.959  1.00  0.00     0.010 A 
HETATM   22  C   UNL     1     -41.890  53.570 -54.679  1.00  0.00     0.017 A 
HETATM   23  C   UNL     1     -41.304  52.326 -54.394  1.00  0.00     0.030 A 
HETATM   24  C   UNL     1     -40.308  52.166 -53.412  1.00  0.00     0.029 A 
HETATM   25  C   UNL     1     -39.977  53.323 -52.686  1.00  0.00     0.030 A 
HETATM   26  C   UNL     1     -40.559  54.568 -52.958  1.00  0.00     0.017 A 
BRANCH  24  27
HETATM   27  N   UNL     1     -39.707  50.924 -53.155  1.00  0.00    -0.390 N 
HETATM   28  C   UNL     1     -39.542  50.515 -51.760  1.00  0.00     0.149 C 
HETATM   29  C   UNL     1     -39.939  49.829 -54.098  1.00  0.00     0.149 C 
ENDBRANCH  24  27
ENDBRANCH   1  21
BRANCH   3  30
HETATM   30  C   UNL     1     -43.835  59.158 -53.672  1.00  0.00    -0.007 A 
HETATM   31  C   UNL     1     -43.173  60.070 -52.835  1.00  0.00     0.014 A 
HETATM   32  C   UNL     1     -43.841  61.183 -52.323  1.00  0.00     0.001 A 
HETATM   33  C   UNL     1     -45.180  61.394 -52.643  1.00  0.00     0.000 A 
HETATM   34  C   UNL     1     -45.847  60.497 -53.476  1.00  0.00     0.001 A 
HETATM   35  C   UNL     1     -45.176  59.385 -53.995  1.00  0.00     0.014 A 
ENDBRANCH   3  30
BRANCH   4  36
HETATM   36  C   UNL     1     -42.178  58.829 -56.452  1.00  0.00    -0.005 A 
HETATM   37  C   UNL     1     -42.238  58.348 -57.770  1.00  0.00     0.014 A 
HETATM   38  C   UNL     1     -42.164  59.224 -58.856  1.00  0.00     0.001 A 
HETATM   39  C   UNL     1     -42.037  60.593 -58.637  1.00  0.00     0.000 A 
HETATM   40  C   UNL     1     -41.986  61.086 -57.335  1.00  0.00     0.001 A 
HETATM   41  C   UNL     1     -42.062  60.209 -56.247  1.00  0.00     0.014 A 
ENDBRANCH   4  36
TORSDOF 8
ENDMDL
MODEL 6
REMARK VINA RESULT:      -8.3      3.424      6.424
REMARK  8 active torsions:
REMARK  status: ('A' for Active; 'I' for Inactive)
REMARK    1  A    between atoms: N_2  and  C_3 
REMARK    2  A    between atoms: C_6  and  C_7 
REMARK    3  A    between atoms: N_8  and  C_9 
REMARK    4  A    between atoms: C_9  and  C_10 
REMARK    5  A    between atoms: C_14  and  N_15 
REMARK    6  A    between atoms: C_17  and  N_18 
REMARK    7  A    between atoms: C_19  and  C_20 
REMARK    8  A    between atoms: C_26  and  C_27 
ROOT
HETATM    1  C   UNL     1     -42.264  59.147 -56.769  1.00  0.00     0.141 A 
HETATM    2  N   UNL     1     -42.403  57.781 -56.589  1.00  0.00    -0.324 N 
HETATM    3  C   UNL     1     -42.070  57.485 -55.267  1.00  0.00     0.076 A 
HETATM    4  C   UNL     1     -41.822  58.729 -54.699  1.00  0.00     0.097 A 
HETATM    5  N   UNL     1     -41.881  59.716 -55.647  1.00  0.00    -0.227 NA
ENDROOT
BRANCH   2   6
HETATM    6  C   UNL     1     -42.902  56.845 -57.597  1.00  0.00     0.178 C 
BRANCH   6   7
HETATM    7  C   UNL     1     -44.075  57.261 -58.434  1.00  0.00     0.068 A 
HETATM    8  C   UNL     1     -43.850  57.144 -59.896  1.00  0.00     0.259 A 
HETATM    9  O   UNL     1     -42.776  56.786 -60.372  1.00  0.00    -0.267 OA
HETATM   10  N   UNL     1     -44.912  57.427 -60.691  1.00  0.00    -0.298 N 
HETATM   11  C   UNL     1     -46.119  57.763 -60.182  1.00  0.00     0.181 A 
HETATM   12  H   UNL     1     -44.788  57.290 -61.680  1.00  0.00     0.171 HD
HETATM   13  N   UNL     1     -46.332  57.879 -58.915  1.00  0.00    -0.208 NA
HETATM   14  C   UNL     1     -45.313  57.621 -58.033  1.00  0.00     0.117 A 
BRANCH  11  15
HETATM   15  N   UNL     1     -47.114  57.981 -61.077  1.00  0.00    -0.272 NA
HETATM   16  H   UNL     1     -47.147  57.373 -61.883  1.00  0.00     0.127 HD
HETATM   17  H   UNL     1     -47.201  58.964 -61.316  1.00  0.00     0.127 HD
ENDBRANCH  11  15
BRANCH  14  18
HETATM   18  N   UNL     1     -45.646  57.706 -56.696  1.00  0.00    -0.286 NA
HETATM   19  H   UNL     1     -46.169  58.550 -56.482  1.00  0.00     0.125 HD
HETATM   20  H   UNL     1     -46.214  56.891 -56.474  1.00  0.00     0.125 HD
ENDBRANCH  14  18
ENDBRANCH   6   7
ENDBRANCH   2   6
BRANCH   1  21
HETATM   21  C   UNL     1     -42.462  59.899 -58.006  1.00  0.00     0.010 A 
HETATM   22  C   UNL     1     -41.576  59.814 -59.078  1.00  0.00     0.017 A 
HETATM   23  C   UNL     1     -41.854  60.478 -60.285  1.00  0.00     0.030 A 
HETATM   24  C   UNL     1     -43.033  61.221 -60.484  1.00  0.00     0.029 A 
HETATM   25  C   UNL     1     -43.892  61.310 -59.375  1.00  0.00     0.030 A 
HETATM   26  C   UNL     1     -43.622  60.655 -58.166  1.00  0.00     0.017 A 
BRANCH  24  27
HETATM   27  N   UNL     1     -43.316  61.857 -61.702  1.00  0.00    -0.390 N 
HETATM   28  C   UNL     1     -42.445  62.953 -62.126  1.00  0.00     0.149 C 
HETATM   29  C   UNL     1     -43.879  61.057 -62.791  1.00  0.00     0.149 C 
ENDBRANCH  24  27
ENDBRANCH   1  21
BRANCH   3  30
HETATM   30  C   UNL     1     -41.924  56.140 -54.711  1.00  0.00    -0.007 A 
HETATM   31  C   UNL     1     -40.724  55.443 -54.914  1.00  0.00     0.014 A 
HETATM   32  C   UNL     1     -40.543  54.164 -54.386  1.00  0.00     0.001 A 
HETATM   33  C   UNL     1     -41.565  53.569 -53.650  1.00  0.00     0.000 A 
HETATM   34  C   UNL     1     -42.762  54.253 -53.439  1.00  0.00     0.001 A 
HETATM   35  C   UNL     1     -42.940  55.537 -53.962  1.00  0.00     0.014 A 
ENDBRANCH   3  30
BRANCH   4  36
HETATM   36  C   UNL     1     -41.506  59.048 -53.313  1.00  0.00    -0.005 A 
HETATM   37  C   UNL     1     -42.522  59.548 -52.483  1.00  0.00     0.014 A 
HETATM   38  C   UNL     1     -42.279  59.808 -51.132  1.00  0.00     0.001 A 
HETATM   39  C   UNL     1     -41.019  59.564 -50.593  1.00  0.00     0.000 A 
HETATM   40  C   UNL     1     -40.004  59.060 -51.402  1.00  0.00     0.001 A 
HETATM   41  C   UNL     1     -40.247  58.797 -52.755  1.00  0.00     0.014 A 
ENDBRANCH   4  36
TORSDOF 8
ENDMDL
MODEL 7
REMARK VINA RESULT:      -8.2      1.709      2.196
REMARK  8 active torsions:
REMARK  status: ('A' for Active; 'I' for Inactive)
REMARK    1  A    between atoms: N_2  and  C_3 
REMARK    2  A    between atoms: C_6  and  C_7 
REMARK    3  A    between atoms: N_8  and  C_9 
REMARK    4  A    between atoms: C_9  and  C_10 
REMARK    5  A    between atoms: C_14  and  N_15 
REMARK    6  A    between atoms: C_17  and  N_18 
REMARK    7  A    between atoms: C_19  and  C_20 
REMARK    8  A    between atoms: C_26  and  C_27 
ROOT
HETATM    1  C   UNL     1     -41.972  55.474 -53.898  1.00  0.00     0.141 A 
HETATM    2  N   UNL     1     -41.575  55.710 -52.593  1.00  0.00    -0.324 N 
HETATM    3  C   UNL     1     -41.022  54.533 -52.091  1.00  0.00     0.076 A 
HETATM    4  C   UNL     1     -41.048  53.663 -53.175  1.00  0.00     0.097 A 
HETATM    5  N   UNL     1     -41.690  54.235 -54.241  1.00  0.00    -0.227 NA
ENDROOT
BRANCH   2   6
HETATM    6  C   UNL     1     -41.649  57.004 -51.911  1.00  0.00     0.178 C 
BRANCH   6   7
HETATM    7  C   UNL     1     -42.994  57.494 -51.463  1.00  0.00     0.068 A 
HETATM    8  C   UNL     1     -43.141  58.969 -51.486  1.00  0.00     0.259 A 
HETATM    9  O   UNL     1     -42.221  59.720 -51.796  1.00  0.00    -0.267 OA
HETATM   10  N   UNL     1     -44.369  59.455 -51.172  1.00  0.00    -0.298 N 
HETATM   11  C   UNL     1     -45.410  58.641 -50.889  1.00  0.00     0.181 A 
HETATM   12  H   UNL     1     -44.495  60.450 -51.246  1.00  0.00     0.171 HD
HETATM   13  N   UNL     1     -45.301  57.356 -50.854  1.00  0.00    -0.208 NA
HETATM   14  C   UNL     1     -44.093  56.774 -51.150  1.00  0.00     0.117 A 
BRANCH  11  15
HETATM   15  N   UNL     1     -46.597  59.245 -50.633  1.00  0.00    -0.272 NA
HETATM   16  H   UNL     1     -46.568  60.217 -50.359  1.00  0.00     0.127 HD
HETATM   17  H   UNL     1     -47.189  58.679 -50.032  1.00  0.00     0.127 HD
ENDBRANCH  11  15
BRANCH  14  18
HETATM   18  N   UNL     1     -44.082  55.394 -51.152  1.00  0.00    -0.286 NA
HETATM   19  H   UNL     1     -43.552  55.011 -50.374  1.00  0.00     0.125 HD
HETATM   20  H   UNL     1     -45.049  55.085 -51.087  1.00  0.00     0.125 HD
ENDBRANCH  14  18
ENDBRANCH   6   7
ENDBRANCH   2   6
BRANCH   1  21
HETATM   21  C   UNL     1     -42.643  56.407 -54.800  1.00  0.00     0.010 A 
HETATM   22  C   UNL     1     -44.020  56.619 -54.762  1.00  0.00     0.017 A 
HETATM   23  C   UNL     1     -44.612  57.595 -55.580  1.00  0.00     0.030 A 
HETATM   24  C   UNL     1     -43.860  58.419 -56.438  1.00  0.00     0.029 A 
HETATM   25  C   UNL     1     -42.479  58.163 -56.473  1.00  0.00     0.030 A 
HETATM   26  C   UNL     1     -41.878  57.188 -55.665  1.00  0.00     0.017 A 
BRANCH  24  27
HETATM   27  N   UNL     1     -44.457  59.412 -57.230  1.00  0.00    -0.390 N 
HETATM   28  C   UNL     1     -45.901  59.614 -57.110  1.00  0.00     0.149 C 
HETATM   29  C   UNL     1     -43.687  60.619 -57.532  1.00  0.00     0.149 C 
ENDBRANCH  24  27
ENDBRANCH   1  21
BRANCH   3  30
HETATM   30  C   UNL     1     -40.632  54.306 -50.699  1.00  0.00    -0.007 A 
HETATM   31  C   UNL     1     -39.284  54.443 -50.335  1.00  0.00     0.014 A 
HETATM   32  C   UNL     1     -38.878  54.249 -49.015  1.00  0.00     0.001 A 
HETATM   33  C   UNL     1     -39.819  53.912 -48.044  1.00  0.00     0.000 A 
HETATM   34  C   UNL     1     -41.162  53.776 -48.393  1.00  0.00     0.001 A 
HETATM   35  C   UNL     1     -41.570  53.978 -49.715  1.00  0.00     0.014 A 
ENDBRANCH   3  30
BRANCH   4  36
HETATM   36  C   UNL     1     -40.524  52.307 -53.264  1.00  0.00    -0.005 A 
HETATM   37  C   UNL     1     -39.942  51.727 -52.126  1.00  0.00     0.014 A 
HETATM   38  C   UNL     1     -39.484  50.407 -52.149  1.00  0.00     0.001 A 
HETATM   39  C   UNL     1     -39.609  49.649 -53.310  1.00  0.00     0.000 A 
HETATM   40  C   UNL     1     -40.193  50.208 -54.444  1.00  0.00     0.001 A 
HETATM   41  C   UNL     1     -40.654  51.529 -54.420  1.00  0.00     0.014 A 
ENDBRANCH   4  36
TORSDOF 8
ENDMDL
MODEL 8
REMARK VINA RESULT:      -8.2      2.823      6.467
REMARK  8 active torsions:
REMARK  status: ('A' for Active; 'I' for Inactive)
REMARK    1  A    between atoms: N_2  and  C_3 
REMARK    2  A    between atoms: C_6  and  C_7 
REMARK    3  A    between atoms: N_8  and  C_9 
REMARK    4  A    between atoms: C_9  and  C_10 
REMARK    5  A    between atoms: C_14  and  N_15 
REMARK    6  A    between atoms: C_17  and  N_18 
REMARK    7  A    between atoms: C_19  and  C_20 
REMARK    8  A    between atoms: C_26  and  C_27 
ROOT
HETATM    1  C   UNL     1     -43.808  58.651 -54.536  1.00  0.00     0.141 A 
HETATM    2  N   UNL     1     -43.067  57.614 -53.994  1.00  0.00    -0.324 N 
HETATM    3  C   UNL     1     -42.636  56.800 -55.040  1.00  0.00     0.076 A 
HETATM    4  C   UNL     1     -43.087  57.454 -56.180  1.00  0.00     0.097 A 
HETATM    5  N   UNL     1     -43.853  58.539 -55.846  1.00  0.00    -0.227 NA
ENDROOT
BRANCH   2   6
HETATM    6  C   UNL     1     -42.732  57.471 -52.576  1.00  0.00     0.178 C 
BRANCH   6   7
HETATM    7  C   UNL     1     -41.478  58.124 -52.074  1.00  0.00     0.068 A 
HETATM    8  C   UNL     1     -41.055  57.669 -50.727  1.00  0.00     0.259 A 
HETATM    9  O   UNL     1     -41.708  56.868 -50.065  1.00  0.00    -0.267 OA
HETATM   10  N   UNL     1     -39.879  58.167 -50.267  1.00  0.00    -0.298 N 
HETATM   11  C   UNL     1     -39.116  59.002 -51.008  1.00  0.00     0.181 A 
HETATM   12  H   UNL     1     -39.553  57.817 -49.383  1.00  0.00     0.171 HD
HETATM   13  N   UNL     1     -39.471  59.416 -52.177  1.00  0.00    -0.208 NA
HETATM   14  C   UNL     1     -40.651  58.972 -52.721  1.00  0.00     0.117 A 
BRANCH  11  15
HETATM   15  N   UNL     1     -37.942  59.398 -50.457  1.00  0.00    -0.272 NA
HETATM   16  H   UNL     1     -37.815  60.390 -50.311  1.00  0.00     0.127 HD
HETATM   17  H   UNL     1     -37.145  58.956 -50.904  1.00  0.00     0.127 HD
ENDBRANCH  11  15
BRANCH  14  18
HETATM   18  N   UNL     1     -40.921  59.414 -54.000  1.00  0.00    -0.286 NA
HETATM   19  H   UNL     1     -41.330  60.344 -54.009  1.00  0.00     0.125 HD
HETATM   20  H   UNL     1     -40.038  59.428 -54.507  1.00  0.00     0.125 HD
ENDBRANCH  14  18
ENDBRANCH   6   7
ENDBRANCH   2   6
BRANCH   1  21
HETATM   21  C   UNL     1     -44.495  59.719 -53.813  1.00  0.00     0.010 A 
HETATM   22  C   UNL     1     -45.519  59.462 -52.904  1.00  0.00     0.017 A 
HETATM   23  C   UNL     1     -46.087  60.509 -52.158  1.00  0.00     0.030 A 
HETATM   24  C   UNL     1     -45.639  61.839 -52.261  1.00  0.00     0.029 A 
HETATM   25  C   UNL     1     -44.624  62.069 -53.206  1.00  0.00     0.030 A 
HETATM   26  C   UNL     1     -44.054  61.033 -53.958  1.00  0.00     0.017 A 
BRANCH  24  27
HETATM   27  N   UNL     1     -46.192  62.874 -51.491  1.00  0.00    -0.390 N 
HETATM   28  C   UNL     1     -46.958  63.912 -52.181  1.00  0.00     0.149 C 
HETATM   29  C   UNL     1     -46.648  62.565 -50.135  1.00  0.00     0.149 C 
ENDBRANCH  24  27
ENDBRANCH   1  21
BRANCH   3  30
HETATM   30  C   UNL     1     -41.967  55.508 -54.887  1.00  0.00    -0.007 A 
HETATM   31  C   UNL     1     -40.569  55.447 -54.981  1.00  0.00     0.014 A 
HETATM   32  C   UNL     1     -39.896  54.234 -54.825  1.00  0.00     0.001 A 
HETATM   33  C   UNL     1     -40.617  53.069 -54.577  1.00  0.00     0.000 A 
HETATM   34  C   UNL     1     -42.007  53.118 -54.479  1.00  0.00     0.001 A 
HETATM   35  C   UNL     1     -42.681  54.334 -54.627  1.00  0.00     0.014 A 
ENDBRANCH   3  30
BRANCH   4  36
HETATM   36  C   UNL     1     -42.861  57.106 -57.577  1.00  0.00    -0.005 A 
HETATM   37  C   UNL     1     -43.439  55.932 -58.086  1.00  0.00     0.014 A 
HETATM   38  C   UNL     1     -43.301  55.592 -59.434  1.00  0.00     0.001 A 
HETATM   39  C   UNL     1     -42.588  56.427 -60.291  1.00  0.00     0.000 A 
HETATM   40  C   UNL     1     -42.017  57.599 -59.802  1.00  0.00     0.001 A 
HETATM   41  C   UNL     1     -42.157  57.940 -58.452  1.00  0.00     0.014 A 
ENDBRANCH   4  36
TORSDOF 8
ENDMDL
MODEL 9
REMARK VINA RESULT:      -8.2      2.628      7.230
REMARK  8 active torsions:
REMARK  status: ('A' for Active; 'I' for Inactive)
REMARK    1  A    between atoms: N_2  and  C_3 
REMARK    2  A    between atoms: C_6  and  C_7 
REMARK    3  A    between atoms: N_8  and  C_9 
REMARK    4  A    between atoms: C_9  and  C_10 
REMARK    5  A    between atoms: C_14  and  N_15 
REMARK    6  A    between atoms: C_17  and  N_18 
REMARK    7  A    between atoms: C_19  and  C_20 
REMARK    8  A    between atoms: C_26  and  C_27 
ROOT
HETATM    1  C   UNL     1     -42.996  56.270 -55.511  1.00  0.00     0.141 A 
HETATM    2  N   UNL     1     -43.412  57.293 -54.676  1.00  0.00    -0.324 N 
HETATM    3  C   UNL     1     -44.156  58.194 -55.437  1.00  0.00     0.076 A 
HETATM    4  C   UNL     1     -44.209  57.605 -56.695  1.00  0.00     0.097 A 
HETATM    5  N   UNL     1     -43.442  56.471 -56.732  1.00  0.00    -0.227 NA
ENDROOT
BRANCH   2   6
HETATM    6  C   UNL     1     -43.178  57.350 -53.232  1.00  0.00     0.178 C 
BRANCH   6   7
HETATM    7  C   UNL     1     -41.946  58.051 -52.739  1.00  0.00     0.068 A 
HETATM    8  C   UNL     1     -41.578  57.721 -51.341  1.00  0.00     0.259 A 
HETATM    9  O   UNL     1     -42.257  56.978 -50.637  1.00  0.00    -0.267 OA
HETATM   10  N   UNL     1     -40.422  58.263 -50.881  1.00  0.00    -0.298 N 
HETATM   11  C   UNL     1     -39.631  59.032 -51.662  1.00  0.00     0.181 A 
HETATM   12  H   UNL     1     -40.132  57.994 -49.956  1.00  0.00     0.171 HD
HETATM   13  N   UNL     1     -39.938  59.339 -52.876  1.00  0.00    -0.208 NA
HETATM   14  C   UNL     1     -41.095  58.842 -53.425  1.00  0.00     0.117 A 
BRANCH  11  15
HETATM   15  N   UNL     1     -38.481  59.481 -51.101  1.00  0.00    -0.272 NA
HETATM   16  H   UNL     1     -38.059  60.300 -51.515  1.00  0.00     0.127 HD
HETATM   17  H   UNL     1     -37.818  58.730 -50.940  1.00  0.00     0.127 HD
ENDBRANCH  11  15
BRANCH  14  18
HETATM   18  N   UNL     1     -41.313  59.167 -54.749  1.00  0.00    -0.286 NA
HETATM   19  H   UNL     1     -42.095  59.804 -54.866  1.00  0.00     0.125 HD
HETATM   20  H   UNL     1     -40.463  59.608 -55.095  1.00  0.00     0.125 HD
ENDBRANCH  14  18
ENDBRANCH   6   7
ENDBRANCH   2   6
BRANCH   1  21
HETATM   21  C   UNL     1     -42.153  55.129 -55.158  1.00  0.00     0.010 A 
HETATM   22  C   UNL     1     -40.763  55.213 -55.125  1.00  0.00     0.017 A 
HETATM   23  C   UNL     1     -39.995  54.122 -54.687  1.00  0.00     0.030 A 
HETATM   24  C   UNL     1     -40.576  52.922 -54.234  1.00  0.00     0.029 A 
HETATM   25  C   UNL     1     -41.978  52.860 -54.304  1.00  0.00     0.030 A 
HETATM   26  C   UNL     1     -42.754  53.941 -54.744  1.00  0.00     0.017 A 
BRANCH  24  27
HETATM   27  N   UNL     1     -39.802  51.848 -53.770  1.00  0.00    -0.390 N 
HETATM   28  C   UNL     1     -39.462  51.806 -52.348  1.00  0.00     0.149 C 
HETATM   29  C   UNL     1     -39.975  50.540 -54.404  1.00  0.00     0.149 C 
ENDBRANCH  24  27
ENDBRANCH   1  21
BRANCH   3  30
HETATM   30  C   UNL     1     -44.637  59.497 -54.977  1.00  0.00    -0.007 A 
HETATM   31  C   UNL     1     -44.362  60.638 -55.745  1.00  0.00     0.014 A 
HETATM   32  C   UNL     1     -44.818  61.894 -55.346  1.00  0.00     0.001 A 
HETATM   33  C   UNL     1     -45.553  62.022 -54.169  1.00  0.00     0.000 A 
HETATM   34  C   UNL     1     -45.835  60.895 -53.399  1.00  0.00     0.001 A 
HETATM   35  C   UNL     1     -45.385  59.634 -53.803  1.00  0.00     0.014 A 
ENDBRANCH   3  30
BRANCH   4  36
HETATM   36  C   UNL     1     -44.924  58.057 -57.880  1.00  0.00    -0.005 A 
HETATM   37  C   UNL     1     -44.187  58.464 -59.004  1.00  0.00     0.014 A 
HETATM   38  C   UNL     1     -44.831  58.846 -60.183  1.00  0.00     0.001 A 
HETATM   39  C   UNL     1     -46.221  58.819 -60.255  1.00  0.00     0.000 A 
HETATM   40  C   UNL     1     -46.965  58.409 -59.152  1.00  0.00     0.001 A 
HETATM   41  C   UNL     1     -46.320  58.024 -57.971  1.00  0.00     0.014 A 
ENDBRANCH   4  36
TORSDOF 8
ENDMDL
MODEL 10
REMARK VINA RESULT:      -8.1      2.149      3.042
REMARK  8 active torsions:
REMARK  status: ('A' for Active; 'I' for Inactive)
REMARK    1  A    between atoms: N_2  and  C_3 
REMARK    2  A    between atoms: C_6  and  C_7 
REMARK    3  A    between atoms: N_8  and  C_9 
REMARK    4  A    between atoms: C_9  and  C_10 
REMARK    5  A    between atoms: C_14  and  N_15 
REMARK    6  A    between atoms: C_17  and  N_18 
REMARK    7  A    between atoms: C_19  and  C_20 
REMARK    8  A    between atoms: C_26  and  C_27 
ROOT
HETATM    1  C   UNL     1     -42.576  55.300 -54.081  1.00  0.00     0.141 A 
HETATM    2  N   UNL     1     -42.208  55.588 -52.777  1.00  0.00    -0.324 N 
HETATM    3  C   UNL     1     -41.485  54.502 -52.285  1.00  0.00     0.076 A 
HETATM    4  C   UNL     1     -41.391  53.641 -53.372  1.00  0.00     0.097 A 
HETATM    5  N   UNL     1     -42.118  54.117 -54.431  1.00  0.00    -0.227 NA
ENDROOT
BRANCH   2   6
HETATM    6  C   UNL     1     -42.466  56.854 -52.089  1.00  0.00     0.178 C 
BRANCH   6   7
HETATM    7  C   UNL     1     -41.314  57.791 -51.872  1.00  0.00     0.068 A 
HETATM    8  C   UNL     1     -40.866  57.884 -50.462  1.00  0.00     0.259 A 
HETATM    9  O   UNL     1     -41.427  57.284 -49.549  1.00  0.00    -0.267 OA
HETATM   10  N   UNL     1     -39.771  58.653 -50.229  1.00  0.00    -0.298 N 
HETATM   11  C   UNL     1     -39.104  59.270 -51.230  1.00  0.00     0.181 A 
HETATM   12  H   UNL     1     -39.423  58.672 -49.286  1.00  0.00     0.171 HD
HETATM   13  N   UNL     1     -39.483  59.209 -52.461  1.00  0.00    -0.208 NA
HETATM   14  C   UNL     1     -40.587  58.461 -52.791  1.00  0.00     0.117 A 
BRANCH  11  15
HETATM   15  N   UNL     1     -38.001  59.975 -50.876  1.00  0.00    -0.272 NA
HETATM   16  H   UNL     1     -37.928  60.257 -49.909  1.00  0.00     0.127 HD
HETATM   17  H   UNL     1     -37.807  60.729 -51.527  1.00  0.00     0.127 HD
ENDBRANCH  11  15
BRANCH  14  18
HETATM   18  N   UNL     1     -40.883  58.398 -54.137  1.00  0.00    -0.286 NA
HETATM   19  H   UNL     1     -41.731  58.906 -54.370  1.00  0.00     0.125 HD
HETATM   20  H   UNL     1     -40.096  58.806 -54.638  1.00  0.00     0.125 HD
ENDBRANCH  14  18
ENDBRANCH   6   7
ENDBRANCH   2   6
BRANCH   1  21
HETATM   21  C   UNL     1     -43.383  56.128 -54.974  1.00  0.00     0.010 A 
HETATM   22  C   UNL     1     -44.505  56.825 -54.531  1.00  0.00     0.017 A 
HETATM   23  C   UNL     1     -45.196  57.685 -55.400  1.00  0.00     0.030 A 
HETATM   24  C   UNL     1     -44.782  57.913 -56.726  1.00  0.00     0.029 A 
HETATM   25  C   UNL     1     -43.664  57.175 -57.150  1.00  0.00     0.030 A 
HETATM   26  C   UNL     1     -42.970  56.310 -56.294  1.00  0.00     0.017 A 
BRANCH  24  27
HETATM   27  N   UNL     1     -45.462  58.797 -57.578  1.00  0.00    -0.390 N 
HETATM   28  C   UNL     1     -45.626  60.184 -57.142  1.00  0.00     0.149 C 
HETATM   29  C   UNL     1     -45.327  58.614 -59.023  1.00  0.00     0.149 C 
ENDBRANCH  24  27
ENDBRANCH   1  21
BRANCH   3  30
HETATM   30  C   UNL     1     -41.056  54.330 -50.897  1.00  0.00    -0.007 A 
HETATM   31  C   UNL     1     -39.694  54.447 -50.582  1.00  0.00     0.014 A 
HETATM   32  C   UNL     1     -39.250  54.304 -49.267  1.00  0.00     0.001 A 
HETATM   33  C   UNL     1     -40.167  54.039 -48.252  1.00  0.00     0.000 A 
HETATM   34  C   UNL     1     -41.524  53.923 -48.552  1.00  0.00     0.001 A 
HETATM   35  C   UNL     1     -41.969  54.074 -49.869  1.00  0.00     0.014 A 
ENDBRANCH   3  30
BRANCH   4  36
HETATM   36  C   UNL     1     -40.675  52.377 -53.471  1.00  0.00    -0.005 A 
HETATM   37  C   UNL     1     -40.052  51.858 -52.325  1.00  0.00     0.014 A 
HETATM   38  C   UNL     1     -39.408  50.618 -52.359  1.00  0.00     0.001 A 
HETATM   39  C   UNL     1     -39.386  49.880 -53.539  1.00  0.00     0.000 A 
HETATM   40  C   UNL     1     -40.007  50.378 -54.682  1.00  0.00     0.001 A 
HETATM   41  C   UNL     1     -40.654  51.618 -54.647  1.00  0.00     0.014 A 
ENDBRANCH   4  36
TORSDOF 8
ENDMDL
