MODEL 1
REMARK VINA RESULT:      -8.6      0.000      0.000
REMARK  6 active torsions:
REMARK  status: ('A' for Active; 'I' for Inactive)
REMARK    1  A    between atoms: C_2  and  N_3 
REMARK       I    between atoms: N_3  and  C_4 
REMARK    2  A    between atoms: C_4  and  C_5 
REMARK    3  A    between atoms: C_13  and  N_14 
REMARK       I    between atoms: N_14  and  C_15 
REMARK    4  A    between atoms: C_15  and  C_16 
REMARK    5  A    between atoms: C_24  and  C_25 
REMARK       I    between atoms: C_25  and  N_26 
REMARK    6  A    between atoms: N_26  and  C_27 
ROOT
HETATM    1  C   UNL     1     -42.914  57.382 -52.926  1.00  0.00     0.046 A 
HETATM    2  C   UNL     1     -43.187  58.575 -53.602  1.00  0.00     0.037 A 
HETATM    3  C   UNL     1     -43.243  58.575 -55.003  1.00  0.00     0.059 A 
HETATM    4  C   UNL     1     -43.035  57.405 -55.733  1.00  0.00     0.037 A 
HETATM    5  C   UNL     1     -42.775  56.218 -55.041  1.00  0.00     0.046 A 
HETATM    6  C   UNL     1     -42.713  56.192 -53.636  1.00  0.00     0.036 A 
ENDROOT
BRANCH   6   7
HETATM    7  C   UNL     1     -42.448  54.863 -52.989  1.00  0.00     0.256 C 
HETATM    8  N   UNL     1     -41.137  54.433 -52.910  1.00  0.00    -0.317 N 
HETATM    9  H   UNL     1     -40.391  54.999 -53.305  1.00  0.00     0.169 HD
HETATM   10  O   UNL     1     -43.407  54.229 -52.552  1.00  0.00    -0.267 OA
BRANCH   8  11
HETATM   11  C   UNL     1     -40.664  53.274 -52.321  1.00  0.00     0.119 A 
HETATM   12  C   UNL     1     -40.114  52.240 -53.260  1.00  0.00     0.277 A 
HETATM   13  O   UNL     1     -40.105  52.441 -54.473  1.00  0.00    -0.266 OA
HETATM   14  N   UNL     1     -39.633  51.089 -52.704  1.00  0.00    -0.274 N 
HETATM   15  C   UNL     1     -39.607  50.816 -51.367  1.00  0.00     0.327 A 
HETATM   16  H   UNL     1     -39.259  50.390 -53.325  1.00  0.00     0.173 HD
HETATM   17  O   UNL     1     -39.153  49.770 -50.920  1.00  0.00    -0.247 OA
HETATM   18  N   UNL     1     -40.120  51.791 -50.557  1.00  0.00    -0.316 N 
HETATM   19  C   UNL     1     -40.632  52.977 -51.015  1.00  0.00     0.128 A 
HETATM   20  H   UNL     1     -40.104  51.595 -49.562  1.00  0.00     0.170 HD
ENDBRANCH   8  11
ENDBRANCH   6   7
BRANCH   2  21
HETATM   21  N   UNL     1     -43.426  59.810 -52.960  1.00  0.00    -0.327 N 
HETATM   22  C   UNL     1     -44.648  60.382 -52.642  1.00  0.00     0.226 C 
HETATM   23  O   UNL     1     -45.744  59.890 -52.886  1.00  0.00    -0.273 OA
HETATM   24  H   UNL     1     -42.598  60.349 -52.730  1.00  0.00     0.169 HD
BRANCH  22  25
HETATM   25  C   UNL     1     -44.499  61.755 -51.965  1.00  0.00     0.078 C 
HETATM   26  C   UNL     1     -45.730  62.124 -51.120  1.00  0.00     0.014 C 
HETATM   27  C   UNL     1     -45.790  61.393 -49.778  1.00  0.00     0.001 C 
HETATM   28  C   UNL     1     -44.492  61.532 -48.993  1.00  0.00     0.000 C 
HETATM   29  C   UNL     1     -43.289  61.095 -49.821  1.00  0.00     0.001 C 
HETATM   30  C   UNL     1     -43.209  61.864 -51.137  1.00  0.00     0.014 C 
ENDBRANCH  22  25
ENDBRANCH   2  21
BRANCH   4  31
HETATM   31  N   UNL     1     -43.088  57.331 -57.141  1.00  0.00    -0.327 N 
HETATM   32  C   UNL     1     -44.193  57.525 -57.959  1.00  0.00     0.226 C 
HETATM   33  O   UNL     1     -45.309  57.862 -57.577  1.00  0.00    -0.273 OA
HETATM   34  H   UNL     1     -42.208  57.141 -57.607  1.00  0.00     0.169 HD
BRANCH  32  35
HETATM   35  C   UNL     1     -43.873  57.285 -59.443  1.00  0.00     0.078 C 
HETATM   36  C   UNL     1     -43.122  55.961 -59.656  1.00  0.00     0.014 C 
HETATM   37  C   UNL     1     -44.034  54.743 -59.526  1.00  0.00     0.001 C 
HETATM   38  C   UNL     1     -45.226  54.836 -60.471  1.00  0.00     0.000 C 
HETATM   39  C   UNL     1     -46.014  56.122 -60.253  1.00  0.00     0.001 C 
HETATM   40  C   UNL     1     -45.124  57.362 -60.333  1.00  0.00     0.014 C 
ENDBRANCH  32  35
ENDBRANCH   4  31
TORSDOF 6
ENDMDL
MODEL 2
REMARK VINA RESULT:      -8.4      3.222      9.222
REMARK  6 active torsions:
REMARK  status: ('A' for Active; 'I' for Inactive)
REMARK    1  A    between atoms: C_2  and  N_3 
REMARK       I    between atoms: N_3  and  C_4 
REMARK    2  A    between atoms: C_4  and  C_5 
REMARK    3  A    between atoms: C_13  and  N_14 
REMARK       I    between atoms: N_14  and  C_15 
REMARK    4  A    between atoms: C_15  and  C_16 
REMARK    5  A    between atoms: C_24  and  C_25 
REMARK       I    between atoms: C_25  and  N_26 
REMARK    6  A    between atoms: N_26  and  C_27 
ROOT
HETATM    1  C   UNL     1     -45.115  59.690 -53.054  1.00  0.00     0.046 A 
HETATM    2  C   UNL     1     -44.696  58.674 -53.919  1.00  0.00     0.037 A 
HETATM    3  C   UNL     1     -44.226  57.466 -53.385  1.00  0.00     0.059 A 
HETATM    4  C   UNL     1     -44.174  57.258 -52.007  1.00  0.00     0.037 A 
HETATM    5  C   UNL     1     -44.608  58.280 -51.157  1.00  0.00     0.046 A 
HETATM    6  C   UNL     1     -45.083  59.501 -51.666  1.00  0.00     0.036 A 
ENDROOT
BRANCH   6   7
HETATM    7  C   UNL     1     -45.545  60.525 -50.669  1.00  0.00     0.256 C 
HETATM    8  N   UNL     1     -44.951  60.526 -49.422  1.00  0.00    -0.317 N 
HETATM    9  H   UNL     1     -44.244  59.832 -49.194  1.00  0.00     0.169 HD
HETATM   10  O   UNL     1     -46.419  61.317 -51.015  1.00  0.00    -0.267 OA
BRANCH   8  11
HETATM   11  C   UNL     1     -45.188  61.399 -48.376  1.00  0.00     0.119 A 
HETATM   12  C   UNL     1     -45.954  60.836 -47.214  1.00  0.00     0.277 A 
HETATM   13  O   UNL     1     -46.336  59.667 -47.226  1.00  0.00    -0.266 OA
HETATM   14  N   UNL     1     -46.195  61.675 -46.164  1.00  0.00    -0.274 N 
HETATM   15  C   UNL     1     -45.786  62.975 -46.090  1.00  0.00     0.327 A 
HETATM   16  H   UNL     1     -46.705  61.306 -45.377  1.00  0.00     0.173 HD
HETATM   17  O   UNL     1     -46.021  63.682 -45.117  1.00  0.00    -0.247 OA
HETATM   18  N   UNL     1     -45.094  63.437 -47.175  1.00  0.00    -0.316 N 
HETATM   19  C   UNL     1     -44.805  62.679 -48.279  1.00  0.00     0.128 A 
HETATM   20  H   UNL     1     -44.788  64.403 -47.127  1.00  0.00     0.170 HD
ENDBRANCH   8  11
ENDBRANCH   6   7
BRANCH   2  21
HETATM   21  N   UNL     1     -44.720  58.776 -55.327  1.00  0.00    -0.327 N 
HETATM   22  C   UNL     1     -43.683  59.139 -56.172  1.00  0.00     0.226 C 
HETATM   23  O   UNL     1     -42.552  59.447 -55.812  1.00  0.00    -0.273 OA
HETATM   24  H   UNL     1     -45.615  58.583 -55.763  1.00  0.00     0.169 HD
BRANCH  22  25
HETATM   25  C   UNL     1     -44.106  59.160 -57.651  1.00  0.00     0.078 C 
HETATM   26  C   UNL     1     -42.930  59.486 -58.587  1.00  0.00     0.014 C 
HETATM   27  C   UNL     1     -41.978  58.310 -58.805  1.00  0.00     0.001 C 
HETATM   28  C   UNL     1     -42.717  57.047 -59.230  1.00  0.00     0.000 C 
HETATM   29  C   UNL     1     -43.832  56.698 -58.252  1.00  0.00     0.001 C 
HETATM   30  C   UNL     1     -44.806  57.861 -58.078  1.00  0.00     0.014 C 
ENDBRANCH  22  25
ENDBRANCH   2  21
BRANCH   4  31
HETATM   31  N   UNL     1     -43.725  56.064 -51.404  1.00  0.00    -0.327 N 
HETATM   32  C   UNL     1     -42.538  55.858 -50.715  1.00  0.00     0.226 C 
HETATM   33  O   UNL     1     -41.704  56.721 -50.462  1.00  0.00    -0.273 OA
HETATM   34  H   UNL     1     -44.359  55.276 -51.460  1.00  0.00     0.169 HD
BRANCH  32  35
HETATM   35  C   UNL     1     -42.366  54.398 -50.268  1.00  0.00     0.078 C 
HETATM   36  C   UNL     1     -42.137  53.460 -51.463  1.00  0.00     0.014 C 
HETATM   37  C   UNL     1     -40.729  53.580 -52.040  1.00  0.00     0.001 C 
HETATM   38  C   UNL     1     -39.667  53.347 -50.972  1.00  0.00     0.000 C 
HETATM   39  C   UNL     1     -39.846  54.294 -49.791  1.00  0.00     0.001 C 
HETATM   40  C   UNL     1     -41.260  54.232 -49.213  1.00  0.00     0.014 C 
ENDBRANCH  32  35
ENDBRANCH   4  31
TORSDOF 6
ENDMDL
MODEL 3
REMARK VINA RESULT:      -8.4      1.214      1.781
REMARK  6 active torsions:
REMARK  status: ('A' for Active; 'I' for Inactive)
REMARK    1  A    between atoms: C_2  and  N_3 
REMARK       I    between atoms: N_3  and  C_4 
REMARK    2  A    between atoms: C_4  and  C_5 
REMARK    3  A    between atoms: C_13  and  N_14 
REMARK       I    between atoms: N_14  and  C_15 
REMARK    4  A    between atoms: C_15  and  C_16 
REMARK    5  A    between atoms: C_24  and  C_25 
REMARK       I    between atoms: C_25  and  N_26 
REMARK    6  A    between atoms: N_26  and  C_27 
ROOT
HETATM    1  C   UNL     1     -42.238  56.977 -52.762  1.00  0.00     0.046 A 
HETATM    2  C   UNL     1     -42.434  58.308 -53.144  1.00  0.00     0.037 A 
HETATM    3  C   UNL     1     -42.574  58.619 -54.504  1.00  0.00     0.059 A 
HETATM    4  C   UNL     1     -42.527  57.625 -55.480  1.00  0.00     0.037 A 
HETATM    5  C   UNL     1     -42.343  56.298 -55.080  1.00  0.00     0.046 A 
HETATM    6  C   UNL     1     -42.200  55.959 -53.723  1.00  0.00     0.036 A 
ENDROOT
BRANCH   6   7
HETATM    7  C   UNL     1     -42.028  54.503 -53.396  1.00  0.00     0.256 C 
HETATM    8  N   UNL     1     -40.866  53.881 -53.811  1.00  0.00    -0.317 N 
HETATM    9  H   UNL     1     -40.171  54.400 -54.341  1.00  0.00     0.169 HD
HETATM   10  O   UNL     1     -42.923  53.941 -52.769  1.00  0.00    -0.267 OA
BRANCH   8  11
HETATM   11  C   UNL     1     -40.483  52.572 -53.583  1.00  0.00     0.119 A 
HETATM   12  C   UNL     1     -39.877  52.292 -52.238  1.00  0.00     0.277 A 
HETATM   13  O   UNL     1     -39.740  53.195 -51.416  1.00  0.00    -0.266 OA
HETATM   14  N   UNL     1     -39.497  51.004 -51.985  1.00  0.00    -0.274 N 
HETATM   15  C   UNL     1     -39.634  49.961 -52.853  1.00  0.00     0.327 A 
HETATM   16  H   UNL     1     -39.092  50.805 -51.084  1.00  0.00     0.173 HD
HETATM   17  O   UNL     1     -39.285  48.821 -52.570  1.00  0.00    -0.247 OA
HETATM   18  N   UNL     1     -40.190  50.271 -54.063  1.00  0.00    -0.316 N 
HETATM   19  C   UNL     1     -40.600  51.530 -54.418  1.00  0.00     0.128 A 
HETATM   20  H   UNL     1     -40.296  49.500 -54.714  1.00  0.00     0.170 HD
ENDBRANCH   8  11
ENDBRANCH   6   7
BRANCH   2  21
HETATM   21  N   UNL     1     -42.510  59.387 -52.237  1.00  0.00    -0.327 N 
HETATM   22  C   UNL     1     -43.471  59.615 -51.264  1.00  0.00     0.226 C 
HETATM   23  O   UNL     1     -44.438  58.895 -51.042  1.00  0.00    -0.273 OA
HETATM   24  H   UNL     1     -41.784  60.089 -52.332  1.00  0.00     0.169 HD
BRANCH  22  25
HETATM   25  C   UNL     1     -43.226  60.920 -50.486  1.00  0.00     0.078 C 
HETATM   26  C   UNL     1     -43.118  62.140 -51.416  1.00  0.00     0.014 C 
HETATM   27  C   UNL     1     -44.468  62.627 -51.943  1.00  0.00     0.001 C 
HETATM   28  C   UNL     1     -45.473  62.849 -50.821  1.00  0.00     0.000 C 
HETATM   29  C   UNL     1     -45.622  61.605 -49.952  1.00  0.00     0.001 C 
HETATM   30  C   UNL     1     -44.276  61.154 -49.390  1.00  0.00     0.014 C 
ENDBRANCH  22  25
ENDBRANCH   2  21
BRANCH   4  31
HETATM   31  N   UNL     1     -42.673  57.867 -56.863  1.00  0.00    -0.327 N 
HETATM   32  C   UNL     1     -43.851  58.061 -57.570  1.00  0.00     0.226 C 
HETATM   33  O   UNL     1     -44.973  58.117 -57.078  1.00  0.00    -0.273 OA
HETATM   34  H   UNL     1     -41.810  57.933 -57.392  1.00  0.00     0.169 HD
BRANCH  32  35
HETATM   35  C   UNL     1     -43.610  58.220 -59.079  1.00  0.00     0.078 C 
HETATM   36  C   UNL     1     -42.541  57.242 -59.591  1.00  0.00     0.014 C 
HETATM   37  C   UNL     1     -43.061  55.811 -59.698  1.00  0.00     0.001 C 
HETATM   38  C   UNL     1     -44.310  55.735 -60.568  1.00  0.00     0.000 C 
HETATM   39  C   UNL     1     -45.403  56.666 -60.058  1.00  0.00     0.001 C 
HETATM   40  C   UNL     1     -44.906  58.103 -59.897  1.00  0.00     0.014 C 
ENDBRANCH  32  35
ENDBRANCH   4  31
TORSDOF 6
ENDMDL
MODEL 4
REMARK VINA RESULT:      -8.3      2.005      8.467
REMARK  6 active torsions:
REMARK  status: ('A' for Active; 'I' for Inactive)
REMARK    1  A    between atoms: C_2  and  N_3 
REMARK       I    between atoms: N_3  and  C_4 
REMARK    2  A    between atoms: C_4  and  C_5 
REMARK    3  A    between atoms: C_13  and  N_14 
REMARK       I    between atoms: N_14  and  C_15 
REMARK    4  A    between atoms: C_15  and  C_16 
REMARK    5  A    between atoms: C_24  and  C_25 
REMARK       I    between atoms: C_25  and  N_26 
REMARK    6  A    between atoms: N_26  and  C_27 
ROOT
HETATM    1  C   UNL     1     -43.363  56.546 -54.716  1.00  0.00     0.046 A 
HETATM    2  C   UNL     1     -42.806  55.837 -55.785  1.00  0.00     0.037 A 
HETATM    3  C   UNL     1     -41.805  54.888 -55.534  1.00  0.00     0.059 A 
HETATM    4  C   UNL     1     -41.358  54.637 -54.238  1.00  0.00     0.037 A 
HETATM    5  C   UNL     1     -41.934  55.346 -53.179  1.00  0.00     0.046 A 
HETATM    6  C   UNL     1     -42.940  56.303 -53.404  1.00  0.00     0.036 A 
ENDROOT
BRANCH   6   7
HETATM    7  C   UNL     1     -43.508  56.995 -52.197  1.00  0.00     0.256 C 
HETATM    8  N   UNL     1     -43.616  58.372 -52.233  1.00  0.00    -0.317 N 
HETATM    9  H   UNL     1     -43.293  58.886 -53.048  1.00  0.00     0.169 HD
HETATM   10  O   UNL     1     -43.857  56.302 -51.244  1.00  0.00    -0.267 OA
BRANCH   8  11
HETATM   11  C   UNL     1     -44.145  59.201 -51.262  1.00  0.00     0.119 A 
HETATM   12  C   UNL     1     -43.160  60.070 -50.535  1.00  0.00     0.277 A 
HETATM   13  O   UNL     1     -41.963  60.018 -50.808  1.00  0.00    -0.266 OA
HETATM   14  N   UNL     1     -43.658  60.905 -49.575  1.00  0.00    -0.274 N 
HETATM   15  C   UNL     1     -44.976  61.013 -49.238  1.00  0.00     0.327 A 
HETATM   16  H   UNL     1     -43.006  61.494 -49.084  1.00  0.00     0.173 HD
HETATM   17  O   UNL     1     -45.370  61.788 -48.375  1.00  0.00    -0.247 OA
HETATM   18  N   UNL     1     -45.829  60.200 -49.930  1.00  0.00    -0.316 N 
HETATM   19  C   UNL     1     -45.431  59.324 -50.906  1.00  0.00     0.128 A 
HETATM   20  H   UNL     1     -46.811  60.275 -49.684  1.00  0.00     0.170 HD
ENDBRANCH   8  11
ENDBRANCH   6   7
BRANCH   2  21
HETATM   21  N   UNL     1     -43.195  56.005 -57.132  1.00  0.00    -0.327 N 
HETATM   22  C   UNL     1     -43.956  57.027 -57.678  1.00  0.00     0.226 C 
HETATM   23  O   UNL     1     -44.431  57.967 -57.051  1.00  0.00    -0.273 OA
HETATM   24  H   UNL     1     -42.898  55.271 -57.766  1.00  0.00     0.169 HD
BRANCH  22  25
HETATM   25  C   UNL     1     -44.190  56.847 -59.188  1.00  0.00     0.078 C 
HETATM   26  C   UNL     1     -44.617  58.158 -59.870  1.00  0.00     0.014 C 
HETATM   27  C   UNL     1     -43.461  59.133 -60.096  1.00  0.00     0.001 C 
HETATM   28  C   UNL     1     -42.287  58.472 -60.807  1.00  0.00     0.000 C 
HETATM   29  C   UNL     1     -41.830  57.214 -60.077  1.00  0.00     0.001 C 
HETATM   30  C   UNL     1     -42.979  56.225 -59.899  1.00  0.00     0.014 C 
ENDBRANCH  22  25
ENDBRANCH   2  21
BRANCH   4  31
HETATM   31  N   UNL     1     -40.364  53.690 -53.913  1.00  0.00    -0.327 N 
HETATM   32  C   UNL     1     -40.445  52.308 -54.012  1.00  0.00     0.226 C 
HETATM   33  O   UNL     1     -41.396  51.683 -54.471  1.00  0.00    -0.273 OA
HETATM   34  H   UNL     1     -39.479  54.070 -53.596  1.00  0.00     0.169 HD
BRANCH  32  35
HETATM   35  C   UNL     1     -39.181  51.607 -53.491  1.00  0.00     0.078 C 
HETATM   36  C   UNL     1     -38.893  51.968 -52.026  1.00  0.00     0.014 C 
HETATM   37  C   UNL     1     -39.836  51.263 -51.054  1.00  0.00     0.001 C 
HETATM   38  C   UNL     1     -39.805  49.751 -51.245  1.00  0.00     0.000 C 
HETATM   39  C   UNL     1     -40.127  49.362 -52.683  1.00  0.00     0.001 C 
HETATM   40  C   UNL     1     -39.230  50.084 -53.688  1.00  0.00     0.014 C 
ENDBRANCH  32  35
ENDBRANCH   4  31
TORSDOF 6
ENDMDL
MODEL 5
REMARK VINA RESULT:      -8.3      2.524      8.958
REMARK  6 active torsions:
REMARK  status: ('A' for Active; 'I' for Inactive)
REMARK    1  A    between atoms: C_2  and  N_3 
REMARK       I    between atoms: N_3  and  C_4 
REMARK    2  A    between atoms: C_4  and  C_5 
REMARK    3  A    between atoms: C_13  and  N_14 
REMARK       I    between atoms: N_14  and  C_15 
REMARK    4  A    between atoms: C_15  and  C_16 
REMARK    5  A    between atoms: C_24  and  C_25 
REMARK       I    between atoms: C_25  and  N_26 
REMARK    6  A    between atoms: N_26  and  C_27 
ROOT
HETATM    1  C   UNL     1     -45.065  59.334 -55.196  1.00  0.00     0.046 A 
HETATM    2  C   UNL     1     -44.806  58.255 -56.047  1.00  0.00     0.037 A 
HETATM    3  C   UNL     1     -44.370  57.039 -55.503  1.00  0.00     0.059 A 
HETATM    4  C   UNL     1     -44.194  56.886 -54.128  1.00  0.00     0.037 A 
HETATM    5  C   UNL     1     -44.469  57.971 -53.290  1.00  0.00     0.046 A 
HETATM    6  C   UNL     1     -44.908  59.201 -53.811  1.00  0.00     0.036 A 
ENDROOT
BRANCH   6   7
HETATM    7  C   UNL     1     -45.196  60.297 -52.825  1.00  0.00     0.256 C 
HETATM    8  N   UNL     1     -44.636  60.196 -51.565  1.00  0.00    -0.317 N 
HETATM    9  H   UNL     1     -44.070  59.387 -51.323  1.00  0.00     0.169 HD
HETATM   10  O   UNL     1     -45.905  61.232 -53.189  1.00  0.00    -0.267 OA
BRANCH   8  11
HETATM   11  C   UNL     1     -44.731  61.103 -50.526  1.00  0.00     0.119 A 
HETATM   12  C   UNL     1     -45.523  60.651 -49.333  1.00  0.00     0.277 A 
HETATM   13  O   UNL     1     -46.046  59.539 -49.317  1.00  0.00    -0.266 OA
HETATM   14  N   UNL     1     -45.626  61.526 -48.289  1.00  0.00    -0.274 N 
HETATM   15  C   UNL     1     -45.060  62.766 -48.247  1.00  0.00     0.327 A 
HETATM   16  H   UNL     1     -46.153  61.231 -47.483  1.00  0.00     0.173 HD
HETATM   17  O   UNL     1     -45.175  63.507 -47.278  1.00  0.00    -0.247 OA
HETATM   18  N   UNL     1     -44.350  63.128 -49.358  1.00  0.00    -0.316 N 
HETATM   19  C   UNL     1     -44.191  62.328 -50.459  1.00  0.00     0.128 A 
HETATM   20  H   UNL     1     -43.926  64.049 -49.333  1.00  0.00     0.170 HD
ENDBRANCH   8  11
ENDBRANCH   6   7
BRANCH   2  21
HETATM   21  N   UNL     1     -44.964  58.300 -57.450  1.00  0.00    -0.327 N 
HETATM   22  C   UNL     1     -46.130  58.137 -58.180  1.00  0.00     0.226 C 
HETATM   23  O   UNL     1     -47.238  57.912 -57.705  1.00  0.00    -0.273 OA
HETATM   24  H   UNL     1     -44.111  58.444 -57.980  1.00  0.00     0.169 HD
BRANCH  22  25
HETATM   25  C   UNL     1     -45.894  58.229 -59.698  1.00  0.00     0.078 C 
HETATM   26  C   UNL     1     -44.506  57.703 -60.103  1.00  0.00     0.014 C 
HETATM   27  C   UNL     1     -44.410  56.177 -60.111  1.00  0.00     0.001 C 
HETATM   28  C   UNL     1     -45.526  55.538 -60.927  1.00  0.00     0.000 C 
HETATM   29  C   UNL     1     -46.898  56.015 -60.465  1.00  0.00     0.001 C 
HETATM   30  C   UNL     1     -47.002  57.537 -60.506  1.00  0.00     0.014 C 
ENDBRANCH  22  25
ENDBRANCH   2  21
BRANCH   4  31
HETATM   31  N   UNL     1     -43.770  55.688 -53.514  1.00  0.00    -0.327 N 
HETATM   32  C   UNL     1     -42.476  55.194 -53.424  1.00  0.00     0.226 C 
HETATM   33  O   UNL     1     -41.467  55.769 -53.819  1.00  0.00    -0.273 OA
HETATM   34  H   UNL     1     -44.496  55.142 -53.063  1.00  0.00     0.169 HD
BRANCH  32  35
HETATM   35  C   UNL     1     -42.420  53.817 -52.745  1.00  0.00     0.078 C 
HETATM   36  C   UNL     1     -40.974  53.372 -52.478  1.00  0.00     0.014 C 
HETATM   37  C   UNL     1     -40.340  54.116 -51.305  1.00  0.00     0.001 C 
HETATM   38  C   UNL     1     -41.179  53.981 -50.040  1.00  0.00     0.000 C 
HETATM   39  C   UNL     1     -42.611  54.453 -50.265  1.00  0.00     0.001 C 
HETATM   40  C   UNL     1     -43.263  53.760 -51.461  1.00  0.00     0.014 C 
ENDBRANCH  32  35
ENDBRANCH   4  31
TORSDOF 6
ENDMDL
MODEL 6
REMARK VINA RESULT:      -8.2      2.012      7.839
REMARK  6 active torsions:
REMARK  status: ('A' for Active; 'I' for Inactive)
REMARK    1  A    between atoms: C_2  and  N_3 
REMARK       I    between atoms: N_3  and  C_4 
REMARK    2  A    between atoms: C_4  and  C_5 
REMARK    3  A    between atoms: C_13  and  N_14 
REMARK       I    between atoms: N_14  and  C_15 
REMARK    4  A    between atoms: C_15  and  C_16 
REMARK    5  A    between atoms: C_24  and  C_25 
REMARK       I    between atoms: C_25  and  N_26 
REMARK    6  A    between atoms: N_26  and  C_27 
ROOT
HETATM    1  C   UNL     1     -42.111  55.835 -52.953  1.00  0.00     0.046 A 
HETATM    2  C   UNL     1     -41.460  55.174 -53.999  1.00  0.00     0.037 A 
HETATM    3  C   UNL     1     -41.787  55.494 -55.325  1.00  0.00     0.059 A 
HETATM    4  C   UNL     1     -42.748  56.461 -55.617  1.00  0.00     0.037 A 
HETATM    5  C   UNL     1     -43.381  57.120 -54.559  1.00  0.00     0.046 A 
HETATM    6  C   UNL     1     -43.071  56.819 -53.221  1.00  0.00     0.036 A 
ENDROOT
BRANCH   6   7
HETATM    7  C   UNL     1     -43.793  57.599 -52.160  1.00  0.00     0.256 C 
HETATM    8  N   UNL     1     -43.783  58.978 -52.252  1.00  0.00    -0.317 N 
HETATM    9  H   UNL     1     -43.278  59.434 -53.007  1.00  0.00     0.169 HD
HETATM   10  O   UNL     1     -44.363  56.973 -51.269  1.00  0.00    -0.267 OA
BRANCH   8  11
HETATM   11  C   UNL     1     -44.413  59.883 -51.418  1.00  0.00     0.119 A 
HETATM   12  C   UNL     1     -43.538  60.554 -50.399  1.00  0.00     0.277 A 
HETATM   13  O   UNL     1     -42.340  60.288 -50.335  1.00  0.00    -0.266 OA
HETATM   14  N   UNL     1     -44.135  61.458 -49.567  1.00  0.00    -0.274 N 
HETATM   15  C   UNL     1     -45.455  61.800 -49.600  1.00  0.00     0.327 A 
HETATM   16  H   UNL     1     -43.556  61.916 -48.882  1.00  0.00     0.173 HD
HETATM   17  O   UNL     1     -45.937  62.628 -48.836  1.00  0.00    -0.247 OA
HETATM   18  N   UNL     1     -46.207  61.160 -50.545  1.00  0.00    -0.316 N 
HETATM   19  C   UNL     1     -45.707  60.233 -51.423  1.00  0.00     0.128 A 
HETATM   20  H   UNL     1     -47.190  61.409 -50.575  1.00  0.00     0.170 HD
ENDBRANCH   8  11
ENDBRANCH   6   7
BRANCH   2  21
HETATM   21  N   UNL     1     -40.464  54.190 -53.813  1.00  0.00    -0.327 N 
HETATM   22  C   UNL     1     -40.585  52.818 -53.968  1.00  0.00     0.226 C 
HETATM   23  O   UNL     1     -41.611  52.229 -54.291  1.00  0.00    -0.273 OA
HETATM   24  H   UNL     1     -39.562  54.536 -53.505  1.00  0.00     0.169 HD
BRANCH  22  25
HETATM   25  C   UNL     1     -39.278  52.071 -53.649  1.00  0.00     0.078 C 
HETATM   26  C   UNL     1     -38.985  52.031 -52.140  1.00  0.00     0.014 C 
HETATM   27  C   UNL     1     -39.834  51.011 -51.379  1.00  0.00     0.001 C 
HETATM   28  C   UNL     1     -39.769  49.628 -52.013  1.00  0.00     0.000 C 
HETATM   29  C   UNL     1     -40.133  49.675 -53.493  1.00  0.00     0.001 C 
HETATM   30  C   UNL     1     -39.248  50.659 -54.253  1.00  0.00     0.014 C 
ENDBRANCH  22  25
ENDBRANCH   2  21
BRANCH   4  31
HETATM   31  N   UNL     1     -43.117  56.838 -56.926  1.00  0.00    -0.327 N 
HETATM   32  C   UNL     1     -43.417  56.007 -57.995  1.00  0.00     0.226 C 
HETATM   33  O   UNL     1     -43.473  54.782 -57.949  1.00  0.00    -0.273 OA
HETATM   34  H   UNL     1     -43.197  57.836 -57.091  1.00  0.00     0.169 HD
BRANCH  32  35
HETATM   35  C   UNL     1     -43.701  56.790 -59.286  1.00  0.00     0.078 C 
HETATM   36  C   UNL     1     -44.242  55.878 -60.398  1.00  0.00     0.014 C 
HETATM   37  C   UNL     1     -45.698  55.480 -60.171  1.00  0.00     0.001 C 
HETATM   38  C   UNL     1     -46.592  56.704 -60.006  1.00  0.00     0.000 C 
HETATM   39  C   UNL     1     -46.100  57.607 -58.881  1.00  0.00     0.001 C 
HETATM   40  C   UNL     1     -44.631  57.991 -59.053  1.00  0.00     0.014 C 
ENDBRANCH  32  35
ENDBRANCH   4  31
TORSDOF 6
ENDMDL
MODEL 7
REMARK VINA RESULT:      -8.2      0.511      7.025
REMARK  6 active torsions:
REMARK  status: ('A' for Active; 'I' for Inactive)
REMARK    1  A    between atoms: C_2  and  N_3 
REMARK       I    between atoms: N_3  and  C_4 
REMARK    2  A    between atoms: C_4  and  C_5 
REMARK    3  A    between atoms: C_13  and  N_14 
REMARK       I    between atoms: N_14  and  C_15 
REMARK    4  A    between atoms: C_15  and  C_16 
REMARK    5  A    between atoms: C_24  and  C_25 
REMARK       I    between atoms: C_25  and  N_26 
REMARK    6  A    between atoms: N_26  and  C_27 
ROOT
HETATM    1  C   UNL     1     -43.226  56.236 -55.411  1.00  0.00     0.046 A 
HETATM    2  C   UNL     1     -43.517  57.426 -56.085  1.00  0.00     0.037 A 
HETATM    3  C   UNL     1     -43.615  58.622 -55.359  1.00  0.00     0.059 A 
HETATM    4  C   UNL     1     -43.423  58.646 -53.979  1.00  0.00     0.037 A 
HETATM    5  C   UNL     1     -43.121  57.449 -53.322  1.00  0.00     0.046 A 
HETATM    6  C   UNL     1     -43.017  56.236 -54.026  1.00  0.00     0.036 A 
ENDROOT
BRANCH   6   7
HETATM    7  C   UNL     1     -42.668  55.011 -53.230  1.00  0.00     0.256 C 
HETATM    8  N   UNL     1     -41.372  54.539 -53.306  1.00  0.00    -0.317 N 
HETATM    9  H   UNL     1     -40.695  55.003 -53.906  1.00  0.00     0.169 HD
HETATM   10  O   UNL     1     -43.548  54.497 -52.543  1.00  0.00    -0.267 OA
BRANCH   8  11
HETATM   11  C   UNL     1     -40.825  53.463 -52.630  1.00  0.00     0.119 A 
HETATM   12  C   UNL     1     -40.266  52.366 -53.489  1.00  0.00     0.277 A 
HETATM   13  O   UNL     1     -40.313  52.448 -54.714  1.00  0.00    -0.266 OA
HETATM   14  N   UNL     1     -39.714  51.295 -52.846  1.00  0.00    -0.274 N 
HETATM   15  C   UNL     1     -39.625  51.155 -51.491  1.00  0.00     0.327 A 
HETATM   16  H   UNL     1     -39.333  50.555 -53.413  1.00  0.00     0.173 HD
HETATM   17  O   UNL     1     -39.108  50.176 -50.966  1.00  0.00    -0.247 OA
HETATM   18  N   UNL     1     -40.149  52.182 -50.757  1.00  0.00    -0.316 N 
HETATM   19  C   UNL     1     -40.730  53.296 -51.304  1.00  0.00     0.128 A 
HETATM   20  H   UNL     1     -40.087  52.084 -49.749  1.00  0.00     0.170 HD
ENDBRANCH   8  11
ENDBRANCH   6   7
BRANCH   2  21
HETATM   21  N   UNL     1     -43.716  57.515 -57.480  1.00  0.00    -0.327 N 
HETATM   22  C   UNL     1     -44.897  57.773 -58.157  1.00  0.00     0.226 C 
HETATM   23  O   UNL     1     -45.988  57.960 -57.630  1.00  0.00    -0.273 OA
HETATM   24  H   UNL     1     -42.894  57.343 -58.049  1.00  0.00     0.169 HD
BRANCH  22  25
HETATM   25  C   UNL     1     -44.717  57.765 -59.685  1.00  0.00     0.078 C 
HETATM   26  C   UNL     1     -43.565  56.849 -60.130  1.00  0.00     0.014 C 
HETATM   27  C   UNL     1     -43.920  55.362 -60.095  1.00  0.00     0.001 C 
HETATM   28  C   UNL     1     -45.212  55.065 -60.846  1.00  0.00     0.000 C 
HETATM   29  C   UNL     1     -46.361  55.932 -60.342  1.00  0.00     0.001 C 
HETATM   30  C   UNL     1     -46.017  57.416 -60.426  1.00  0.00     0.014 C 
ENDBRANCH  22  25
ENDBRANCH   2  21
BRANCH   4  31
HETATM   31  N   UNL     1     -43.496  59.814 -53.190  1.00  0.00    -0.327 N 
HETATM   32  C   UNL     1     -44.635  60.502 -52.798  1.00  0.00     0.226 C 
HETATM   33  O   UNL     1     -45.789  60.156 -53.029  1.00  0.00    -0.273 OA
HETATM   34  H   UNL     1     -42.610  60.172 -52.850  1.00  0.00     0.169 HD
BRANCH  32  35
HETATM   35  C   UNL     1     -44.306  61.777 -52.005  1.00  0.00     0.078 C 
HETATM   36  C   UNL     1     -45.486  62.219 -51.125  1.00  0.00     0.014 C 
HETATM   37  C   UNL     1     -45.653  61.341 -49.887  1.00  0.00     0.001 C 
HETATM   38  C   UNL     1     -44.371  61.283 -49.066  1.00  0.00     0.000 C 
HETATM   39  C   UNL     1     -43.191  60.808 -49.906  1.00  0.00     0.001 C 
HETATM   40  C   UNL     1     -43.019  61.638 -51.177  1.00  0.00     0.014 C 
ENDBRANCH  32  35
ENDBRANCH   4  31
TORSDOF 6
ENDMDL
MODEL 8
REMARK VINA RESULT:      -8.1      2.843      7.178
REMARK  6 active torsions:
REMARK  status: ('A' for Active; 'I' for Inactive)
REMARK    1  A    between atoms: C_2  and  N_3 
REMARK       I    between atoms: N_3  and  C_4 
REMARK    2  A    between atoms: C_4  and  C_5 
REMARK    3  A    between atoms: C_13  and  N_14 
REMARK       I    between atoms: N_14  and  C_15 
REMARK    4  A    between atoms: C_15  and  C_16 
REMARK    5  A    between atoms: C_24  and  C_25 
REMARK       I    between atoms: C_25  and  N_26 
REMARK    6  A    between atoms: N_26  and  C_27 
ROOT
HETATM    1  C   UNL     1     -44.024  60.176 -53.222  1.00  0.00     0.046 A 
HETATM    2  C   UNL     1     -44.066  60.261 -51.827  1.00  0.00     0.037 A 
HETATM    3  C   UNL     1     -43.793  59.120 -51.059  1.00  0.00     0.059 A 
HETATM    4  C   UNL     1     -43.476  57.904 -51.662  1.00  0.00     0.037 A 
HETATM    5  C   UNL     1     -43.427  57.839 -53.058  1.00  0.00     0.046 A 
HETATM    6  C   UNL     1     -43.696  58.968 -53.851  1.00  0.00     0.036 A 
ENDROOT
BRANCH   6   7
HETATM    7  C   UNL     1     -43.596  58.798 -55.340  1.00  0.00     0.256 C 
HETATM    8  N   UNL     1     -44.019  57.601 -55.884  1.00  0.00    -0.317 N 
HETATM    9  H   UNL     1     -44.361  56.859 -55.278  1.00  0.00     0.169 HD
HETATM   10  O   UNL     1     -43.153  59.735 -56.001  1.00  0.00    -0.267 OA
BRANCH   8  11
HETATM   11  C   UNL     1     -44.058  57.248 -57.220  1.00  0.00     0.119 A 
HETATM   12  C   UNL     1     -43.193  56.087 -57.616  1.00  0.00     0.277 A 
HETATM   13  O   UNL     1     -42.501  55.511 -56.780  1.00  0.00    -0.266 OA
HETATM   14  N   UNL     1     -43.219  55.714 -58.930  1.00  0.00    -0.274 N 
HETATM   15  C   UNL     1     -43.973  56.308 -59.899  1.00  0.00     0.327 A 
HETATM   16  H   UNL     1     -42.644  54.934 -59.206  1.00  0.00     0.173 HD
HETATM   17  O   UNL     1     -43.967  55.925 -61.063  1.00  0.00    -0.247 OA
HETATM   18  N   UNL     1     -44.741  57.360 -59.485  1.00  0.00    -0.316 N 
HETATM   19  C   UNL     1     -44.783  57.817 -58.193  1.00  0.00     0.128 A 
HETATM   20  H   UNL     1     -45.305  57.807 -60.200  1.00  0.00     0.170 HD
ENDBRANCH   8  11
ENDBRANCH   6   7
BRANCH   2  21
HETATM   21  N   UNL     1     -44.363  61.445 -51.116  1.00  0.00    -0.327 N 
HETATM   22  C   UNL     1     -45.441  61.688 -50.280  1.00  0.00     0.226 C 
HETATM   23  O   UNL     1     -46.336  60.889 -50.028  1.00  0.00    -0.273 OA
HETATM   24  H   UNL     1     -43.717  62.214 -51.261  1.00  0.00     0.169 HD
BRANCH  22  25
HETATM   25  C   UNL     1     -45.433  63.115 -49.705  1.00  0.00     0.078 C 
HETATM   26  C   UNL     1     -46.846  63.610 -49.356  1.00  0.00     0.014 C 
HETATM   27  C   UNL     1     -47.398  63.018 -48.059  1.00  0.00     0.001 C 
HETATM   28  C   UNL     1     -46.428  63.186 -46.897  1.00  0.00     0.000 C 
HETATM   29  C   UNL     1     -45.051  62.625 -47.233  1.00  0.00     0.001 C 
HETATM   30  C   UNL     1     -44.487  63.257 -48.503  1.00  0.00     0.014 C 
ENDBRANCH  22  25
ENDBRANCH   2  21
BRANCH   4  31
HETATM   31  N   UNL     1     -43.180  56.721 -50.951  1.00  0.00    -0.327 N 
HETATM   32  C   UNL     1     -41.955  56.330 -50.431  1.00  0.00     0.226 C 
HETATM   33  O   UNL     1     -40.927  57.000 -50.452  1.00  0.00    -0.273 OA
HETATM   34  H   UNL     1     -43.964  56.101 -50.780  1.00  0.00     0.169 HD
BRANCH  32  35
HETATM   35  C   UNL     1     -42.009  54.937 -49.785  1.00  0.00     0.078 C 
HETATM   36  C   UNL     1     -42.252  53.836 -50.829  1.00  0.00     0.014 C 
HETATM   37  C   UNL     1     -41.009  53.537 -51.664  1.00  0.00     0.001 C 
HETATM   38  C   UNL     1     -39.817  53.181 -50.783  1.00  0.00     0.000 C 
HETATM   39  C   UNL     1     -39.529  54.277 -49.764  1.00  0.00     0.001 C 
HETATM   40  C   UNL     1     -40.764  54.632 -48.937  1.00  0.00     0.014 C 
ENDBRANCH  32  35
ENDBRANCH   4  31
TORSDOF 6
ENDMDL
MODEL 9
REMARK VINA RESULT:      -8.1      1.368      6.954
REMARK  6 active torsions:
REMARK  status: ('A' for Active; 'I' for Inactive)
REMARK    1  A    between atoms: C_2  and  N_3 
REMARK       I    between atoms: N_3  and  C_4 
REMARK    2  A    between atoms: C_4  and  C_5 
REMARK    3  A    between atoms: C_13  and  N_14 
REMARK       I    between atoms: N_14  and  C_15 
REMARK    4  A    between atoms: C_15  and  C_16 
REMARK    5  A    between atoms: C_24  and  C_25 
REMARK       I    between atoms: C_25  and  N_26 
REMARK    6  A    between atoms: N_26  and  C_27 
ROOT
HETATM    1  C   UNL     1     -43.607  56.316 -54.102  1.00  0.00     0.046 A 
HETATM    2  C   UNL     1     -43.995  57.607 -54.473  1.00  0.00     0.037 A 
HETATM    3  C   UNL     1     -44.134  58.594 -53.487  1.00  0.00     0.059 A 
HETATM    4  C   UNL     1     -43.890  58.311 -52.144  1.00  0.00     0.037 A 
HETATM    5  C   UNL     1     -43.491  57.018 -51.791  1.00  0.00     0.046 A 
HETATM    6  C   UNL     1     -43.343  56.010 -52.760  1.00  0.00     0.036 A 
ENDROOT
BRANCH   6   7
HETATM    7  C   UNL     1     -42.891  54.661 -52.281  1.00  0.00     0.256 C 
HETATM    8  N   UNL     1     -41.546  54.358 -52.378  1.00  0.00    -0.317 N 
HETATM    9  H   UNL     1     -40.901  55.030 -52.786  1.00  0.00     0.169 HD
HETATM   10  O   UNL     1     -43.736  53.898 -51.817  1.00  0.00    -0.267 OA
BRANCH   8  11
HETATM   11  C   UNL     1     -40.909  53.204 -51.960  1.00  0.00     0.119 A 
HETATM   12  C   UNL     1     -40.259  52.388 -53.039  1.00  0.00     0.277 A 
HETATM   13  O   UNL     1     -40.313  52.750 -54.213  1.00  0.00    -0.266 OA
HETATM   14  N   UNL     1     -39.617  51.246 -52.653  1.00  0.00    -0.274 N 
HETATM   15  C   UNL     1     -39.516  50.801 -51.367  1.00  0.00     0.327 A 
HETATM   16  H   UNL     1     -39.175  50.693 -53.369  1.00  0.00     0.173 HD
HETATM   17  O   UNL     1     -38.917  49.773 -51.074  1.00  0.00    -0.247 OA
HETATM   18  N   UNL     1     -40.126  51.581 -50.424  1.00  0.00    -0.316 N 
HETATM   19  C   UNL     1     -40.800  52.740 -50.708  1.00  0.00     0.128 A 
HETATM   20  H   UNL     1     -40.055  51.256 -49.466  1.00  0.00     0.170 HD
ENDBRANCH   8  11
ENDBRANCH   6   7
BRANCH   2  21
HETATM   21  N   UNL     1     -44.254  58.002 -55.804  1.00  0.00    -0.327 N 
HETATM   22  C   UNL     1     -43.335  58.306 -56.796  1.00  0.00     0.226 C 
HETATM   23  O   UNL     1     -42.117  58.288 -56.662  1.00  0.00    -0.273 OA
HETATM   24  H   UNL     1     -45.234  58.096 -56.047  1.00  0.00     0.169 HD
BRANCH  22  25
HETATM   25  C   UNL     1     -44.007  58.721 -58.116  1.00  0.00     0.078 C 
HETATM   26  C   UNL     1     -42.983  58.993 -59.230  1.00  0.00     0.014 C 
HETATM   27  C   UNL     1     -42.400  57.721 -59.847  1.00  0.00     0.001 C 
HETATM   28  C   UNL     1     -43.488  56.752 -60.292  1.00  0.00     0.000 C 
HETATM   29  C   UNL     1     -44.454  56.437 -59.155  1.00  0.00     0.001 C 
HETATM   30  C   UNL     1     -45.068  57.710 -58.577  1.00  0.00     0.014 C 
ENDBRANCH  22  25
ENDBRANCH   2  21
BRANCH   4  31
HETATM   31  N   UNL     1     -44.000  59.258 -51.103  1.00  0.00    -0.327 N 
HETATM   32  C   UNL     1     -45.159  59.719 -50.496  1.00  0.00     0.226 C 
HETATM   33  O   UNL     1     -46.293  59.315 -50.732  1.00  0.00    -0.273 OA
HETATM   34  H   UNL     1     -43.124  59.621 -50.743  1.00  0.00     0.169 HD
BRANCH  32  35
HETATM   35  C   UNL     1     -44.880  60.810 -49.450  1.00  0.00     0.078 C 
HETATM   36  C   UNL     1     -43.709  61.712 -49.869  1.00  0.00     0.014 C 
HETATM   37  C   UNL     1     -44.093  62.694 -50.973  1.00  0.00     0.001 C 
HETATM   38  C   UNL     1     -45.298  63.538 -50.575  1.00  0.00     0.000 C 
HETATM   39  C   UNL     1     -46.489  62.666 -50.194  1.00  0.00     0.001 C 
HETATM   40  C   UNL     1     -46.130  61.640 -49.119  1.00  0.00     0.014 C 
ENDBRANCH  32  35
ENDBRANCH   4  31
TORSDOF 6
ENDMDL
MODEL 10
REMARK VINA RESULT:      -7.9      1.056      6.746
REMARK  6 active torsions:
REMARK  status: ('A' for Active; 'I' for Inactive)
REMARK    1  A    between atoms: C_2  and  N_3 
REMARK       I    between atoms: N_3  and  C_4 
REMARK    2  A    between atoms: C_4  and  C_5 
REMARK    3  A    between atoms: C_13  and  N_14 
REMARK       I    between atoms: N_14  and  C_15 
REMARK    4  A    between atoms: C_15  and  C_16 
REMARK    5  A    between atoms: C_24  and  C_25 
REMARK       I    between atoms: C_25  and  N_26 
REMARK    6  A    between atoms: N_26  and  C_27 
ROOT
HETATM    1  C   UNL     1     -42.336  55.976 -55.270  1.00  0.00     0.046 A 
HETATM    2  C   UNL     1     -42.509  57.148 -56.013  1.00  0.00     0.037 A 
HETATM    3  C   UNL     1     -42.716  58.363 -55.343  1.00  0.00     0.059 A 
HETATM    4  C   UNL     1     -42.748  58.422 -53.951  1.00  0.00     0.037 A 
HETATM    5  C   UNL     1     -42.560  57.243 -53.223  1.00  0.00     0.046 A 
HETATM    6  C   UNL     1     -42.351  56.012 -53.870  1.00  0.00     0.036 A 
ENDROOT
BRANCH   6   7
HETATM    7  C   UNL     1     -42.139  54.809 -52.997  1.00  0.00     0.256 C 
HETATM    8  N   UNL     1     -40.959  54.104 -53.142  1.00  0.00    -0.317 N 
HETATM    9  H   UNL     1     -40.278  54.391 -53.840  1.00  0.00     0.169 HD
HETATM   10  O   UNL     1     -43.020  54.516 -52.191  1.00  0.00    -0.267 OA
BRANCH   8  11
HETATM   11  C   UNL     1     -40.540  53.002 -52.419  1.00  0.00     0.119 A 
HETATM   12  C   UNL     1     -40.043  51.840 -53.228  1.00  0.00     0.277 A 
HETATM   13  O   UNL     1     -40.027  51.895 -54.456  1.00  0.00    -0.266 OA
HETATM   14  N   UNL     1     -39.616  50.741 -52.538  1.00  0.00    -0.274 N 
HETATM   15  C   UNL     1     -39.601  50.627 -51.179  1.00  0.00     0.327 A 
HETATM   16  H   UNL     1     -39.277  49.956 -53.071  1.00  0.00     0.173 HD
HETATM   17  O   UNL     1     -39.196  49.620 -50.609  1.00  0.00    -0.247 OA
HETATM   18  N   UNL     1     -40.065  51.713 -50.491  1.00  0.00    -0.316 N 
HETATM   19  C   UNL     1     -40.520  52.860 -51.087  1.00  0.00     0.128 A 
HETATM   20  H   UNL     1     -40.056  51.635 -49.479  1.00  0.00     0.170 HD
ENDBRANCH   8  11
ENDBRANCH   6   7
BRANCH   2  21
HETATM   21  N   UNL     1     -42.482  57.200 -57.423  1.00  0.00    -0.327 N 
HETATM   22  C   UNL     1     -43.558  57.295 -58.292  1.00  0.00     0.226 C 
HETATM   23  O   UNL     1     -44.737  57.339 -57.958  1.00  0.00    -0.273 OA
HETATM   24  H   UNL     1     -41.562  57.135 -57.844  1.00  0.00     0.169 HD
BRANCH  22  25
HETATM   25  C   UNL     1     -43.126  57.300 -59.769  1.00  0.00     0.078 C 
HETATM   26  C   UNL     1     -44.239  57.810 -60.699  1.00  0.00     0.014 C 
HETATM   27  C   UNL     1     -44.409  59.330 -60.672  1.00  0.00     0.001 C 
HETATM   28  C   UNL     1     -43.090  60.056 -60.904  1.00  0.00     0.000 C 
HETATM   29  C   UNL     1     -42.017  59.590 -59.926  1.00  0.00     0.001 C 
HETATM   30  C   UNL     1     -41.820  58.077 -59.995  1.00  0.00     0.014 C 
ENDBRANCH  22  25
ENDBRANCH   2  21
BRANCH   4  31
HETATM   31  N   UNL     1     -42.940  59.611 -53.214  1.00  0.00    -0.327 N 
HETATM   32  C   UNL     1     -44.138  60.255 -52.943  1.00  0.00     0.226 C 
HETATM   33  O   UNL     1     -45.252  59.846 -53.255  1.00  0.00    -0.273 OA
HETATM   34  H   UNL     1     -42.103  60.023 -52.816  1.00  0.00     0.169 HD
BRANCH  32  35
HETATM   35  C   UNL     1     -43.936  61.570 -52.173  1.00  0.00     0.078 C 
HETATM   36  C   UNL     1     -45.246  62.064 -51.539  1.00  0.00     0.014 C 
HETATM   37  C   UNL     1     -45.640  61.256 -50.305  1.00  0.00     0.001 C 
HETATM   38  C   UNL     1     -44.521  61.238 -49.270  1.00  0.00     0.000 C 
HETATM   39  C   UNL     1     -43.219  60.712 -49.862  1.00  0.00     0.001 C 
HETATM   40  C   UNL     1     -42.816  61.471 -51.126  1.00  0.00     0.014 C 
ENDBRANCH  32  35
ENDBRANCH   4  31
TORSDOF 6
ENDMDL
