MODEL 1
REMARK VINA RESULT:      -8.3      0.000      0.000
REMARK  4 active torsions:
REMARK  status: ('A' for Active; 'I' for Inactive)
REMARK    1  A    between atoms: C_3  and  O_4 
REMARK    2  A    between atoms: O_4  and  C_5 
REMARK    3  A    between atoms: C_11  and  C_12 
REMARK    4  A    between atoms: C_23  and  N_24 
ROOT
HETATM    1  C   UNL     1     -35.388  41.827 -55.439  1.00  0.00     0.244 A 
HETATM    2  N   UNL     1     -34.456  40.936 -54.786  1.00  0.00    -0.151 N 
HETATM    3  C   UNL     1     -34.637  40.571 -53.477  1.00  0.00     0.734 A 
HETATM    4  N   UNL     1     -33.635  39.816 -53.087  1.00  0.00    -0.060 NA
HETATM    5  C   UNL     1     -32.779  39.724 -54.157  1.00  0.00     0.103 A 
HETATM    6  C   UNL     1     -33.271  40.432 -55.250  1.00  0.00     0.083 A 
HETATM    7  C   UNL     1     -31.551  39.057 -54.262  1.00  0.00     0.034 A 
HETATM    8  C   UNL     1     -30.852  39.124 -55.473  1.00  0.00     0.002 A 
HETATM    9  C   UNL     1     -31.367  39.840 -56.556  1.00  0.00     0.002 A 
HETATM   10  C   UNL     1     -32.591  40.514 -56.469  1.00  0.00     0.033 A 
HETATM   11  N   UNL     1     -35.704  40.966 -52.747  1.00  0.00    -0.033 NA
HETATM   12  C   UNL     1     -36.550  41.779 -53.267  1.00  0.00     0.193 A 
HETATM   13  N   UNL     1     -36.468  42.287 -54.569  1.00  0.00    -0.339 N 
HETATM   14  H   UNL     1     -37.225  42.828 -54.955  1.00  0.00     0.164 HD
ENDROOT
BRANCH   1  15
HETATM   15  C   UNL     1     -36.048  41.207 -56.659  1.00  0.00    -0.014 A 
HETATM   16  C   UNL     1     -36.482  39.869 -56.659  1.00  0.00     0.020 A 
HETATM   17  C   UNL     1     -37.150  39.323 -57.765  1.00  0.00    -0.027 A 
HETATM   18  C   UNL     1     -37.400  40.139 -58.878  1.00  0.00     0.086 A 
HETATM   19  C   UNL     1     -37.643  37.902 -57.711  1.00  0.00     0.051 C 
HETATM   20  C   UNL     1     -37.020  41.490 -58.888  1.00  0.00    -0.027 A 
HETATM   21  C   UNL     1     -37.322  42.387 -60.057  1.00  0.00     0.051 C 
HETATM   22  C   UNL     1     -36.324  42.004 -57.784  1.00  0.00     0.020 A 
BRANCH  18  23
HETATM   23  O   UNL     1     -38.118  39.621 -59.924  1.00  0.00    -0.289 OA
BRANCH  23  24
HETATM   24  C   UNL     1     -37.250  39.125 -60.936  1.00  0.00     0.505 C 
HETATM   25  F   UNL     1     -37.412  37.779 -60.983  1.00  0.00    -0.184 F 
HETATM   26  F   UNL     1     -37.676  39.613 -62.127  1.00  0.00    -0.184 F 
ENDBRANCH  23  24
ENDBRANCH  18  23
ENDBRANCH   1  15
BRANCH  12  27
HETATM   27  N   UNL     1     -37.637  42.226 -52.607  1.00  0.00    -0.272 NA
HETATM   28  H   UNL     1     -38.217  41.450 -52.293  1.00  0.00     0.127 HD
HETATM   29  H   UNL     1     -37.474  42.883 -51.855  1.00  0.00     0.127 HD
ENDBRANCH  12  27
TORSDOF 4
ENDMDL
MODEL 2
REMARK VINA RESULT:      -8.1     13.931     15.852
REMARK  4 active torsions:
REMARK  status: ('A' for Active; 'I' for Inactive)
REMARK    1  A    between atoms: C_3  and  O_4 
REMARK    2  A    between atoms: O_4  and  C_5 
REMARK    3  A    between atoms: C_11  and  C_12 
REMARK    4  A    between atoms: C_23  and  N_24 
ROOT
HETATM    1  C   UNL     1     -40.212  54.200 -51.253  1.00  0.00     0.244 A 
HETATM    2  N   UNL     1     -40.184  52.755 -51.263  1.00  0.00    -0.151 N 
HETATM    3  C   UNL     1     -40.295  52.045 -50.094  1.00  0.00     0.734 A 
HETATM    4  N   UNL     1     -40.176  50.761 -50.347  1.00  0.00    -0.060 NA
HETATM    5  C   UNL     1     -39.952  50.649 -51.696  1.00  0.00     0.103 A 
HETATM    6  C   UNL     1     -39.944  51.901 -52.305  1.00  0.00     0.083 A 
HETATM    7  C   UNL     1     -39.735  49.503 -52.473  1.00  0.00     0.034 A 
HETATM    8  C   UNL     1     -39.516  49.654 -53.846  1.00  0.00     0.002 A 
HETATM    9  C   UNL     1     -39.513  50.921 -54.434  1.00  0.00     0.002 A 
HETATM   10  C   UNL     1     -39.727  52.077 -53.676  1.00  0.00     0.033 A 
HETATM   11  N   UNL     1     -40.488  52.636 -48.894  1.00  0.00    -0.033 NA
HETATM   12  C   UNL     1     -40.494  53.917 -48.822  1.00  0.00     0.193 A 
HETATM   13  N   UNL     1     -40.334  54.776 -49.915  1.00  0.00    -0.339 N 
HETATM   14  H   UNL     1     -40.466  55.769 -49.809  1.00  0.00     0.164 HD
ENDROOT
BRANCH   1  15
HETATM   15  C   UNL     1     -41.348  54.779 -52.080  1.00  0.00    -0.014 A 
HETATM   16  C   UNL     1     -41.620  54.315 -53.380  1.00  0.00     0.020 A 
HETATM   17  C   UNL     1     -42.710  54.807 -54.113  1.00  0.00    -0.027 A 
HETATM   18  C   UNL     1     -43.547  55.766 -53.522  1.00  0.00     0.086 A 
HETATM   19  C   UNL     1     -43.000  54.253 -55.480  1.00  0.00     0.051 C 
HETATM   20  C   UNL     1     -43.327  56.214 -52.210  1.00  0.00    -0.027 A 
HETATM   21  C   UNL     1     -44.242  57.207 -51.550  1.00  0.00     0.051 C 
HETATM   22  C   UNL     1     -42.211  55.731 -51.510  1.00  0.00     0.020 A 
BRANCH  18  23
HETATM   23  O   UNL     1     -44.652  56.188 -54.214  1.00  0.00    -0.289 OA
BRANCH  23  24
HETATM   24  C   UNL     1     -44.398  57.427 -54.865  1.00  0.00     0.505 C 
HETATM   25  F   UNL     1     -44.272  57.168 -56.191  1.00  0.00    -0.184 F 
HETATM   26  F   UNL     1     -45.497  58.207 -54.720  1.00  0.00    -0.184 F 
ENDBRANCH  23  24
ENDBRANCH  18  23
ENDBRANCH   1  15
BRANCH  12  27
HETATM   27  N   UNL     1     -40.676  54.585 -47.665  1.00  0.00    -0.272 NA
HETATM   28  H   UNL     1     -40.254  55.510 -47.709  1.00  0.00     0.127 HD
HETATM   29  H   UNL     1     -41.623  54.635 -47.314  1.00  0.00     0.127 HD
ENDBRANCH  12  27
TORSDOF 4
ENDMDL
MODEL 3
REMARK VINA RESULT:      -7.9     14.702     17.029
REMARK  4 active torsions:
REMARK  status: ('A' for Active; 'I' for Inactive)
REMARK    1  A    between atoms: C_3  and  O_4 
REMARK    2  A    between atoms: O_4  and  C_5 
REMARK    3  A    between atoms: C_11  and  C_12 
REMARK    4  A    between atoms: C_23  and  N_24 
ROOT
HETATM    1  C   UNL     1     -41.050  55.568 -54.448  1.00  0.00     0.244 A 
HETATM    2  N   UNL     1     -41.894  56.521 -53.765  1.00  0.00    -0.151 N 
HETATM    3  C   UNL     1     -43.136  56.834 -54.255  1.00  0.00     0.734 A 
HETATM    4  N   UNL     1     -43.683  57.766 -53.507  1.00  0.00    -0.060 NA
HETATM    5  C   UNL     1     -42.761  58.079 -52.540  1.00  0.00     0.103 A 
HETATM    6  C   UNL     1     -41.609  57.309 -52.682  1.00  0.00     0.083 A 
HETATM    7  C   UNL     1     -42.836  59.024 -51.508  1.00  0.00     0.034 A 
HETATM    8  C   UNL     1     -41.743  59.166 -50.646  1.00  0.00     0.002 A 
HETATM    9  C   UNL     1     -40.599  58.381 -50.809  1.00  0.00     0.002 A 
HETATM   10  C   UNL     1     -40.505  57.432 -51.834  1.00  0.00     0.033 A 
HETATM   11  N   UNL     1     -43.661  56.243 -55.352  1.00  0.00    -0.033 NA
HETATM   12  C   UNL     1     -42.945  55.408 -56.014  1.00  0.00     0.193 A 
HETATM   13  N   UNL     1     -41.640  55.033 -55.674  1.00  0.00    -0.339 N 
HETATM   14  H   UNL     1     -41.178  54.287 -56.167  1.00  0.00     0.164 HD
ENDROOT
BRANCH   1  15
HETATM   15  C   UNL     1     -40.684  54.371 -53.585  1.00  0.00    -0.014 A 
HETATM   16  C   UNL     1     -40.369  53.124 -54.156  1.00  0.00     0.020 A 
HETATM   17  C   UNL     1     -39.967  52.043 -53.358  1.00  0.00    -0.027 A 
HETATM   18  C   UNL     1     -39.866  52.223 -51.971  1.00  0.00     0.086 A 
HETATM   19  C   UNL     1     -39.591  50.738 -54.006  1.00  0.00     0.051 C 
HETATM   20  C   UNL     1     -40.130  53.468 -51.379  1.00  0.00    -0.027 A 
HETATM   21  C   UNL     1     -39.981  53.687 -49.898  1.00  0.00     0.051 C 
HETATM   22  C   UNL     1     -40.560  54.526 -52.193  1.00  0.00     0.020 A 
BRANCH  18  23
HETATM   23  O   UNL     1     -39.402  51.185 -51.206  1.00  0.00    -0.289 OA
BRANCH  23  24
HETATM   24  C   UNL     1     -40.483  50.419 -50.685  1.00  0.00     0.505 C 
HETATM   25  F   UNL     1     -40.212  49.115 -50.939  1.00  0.00    -0.184 F 
HETATM   26  F   UNL     1     -40.485  50.564 -49.337  1.00  0.00    -0.184 F 
ENDBRANCH  23  24
ENDBRANCH  18  23
ENDBRANCH   1  15
BRANCH  12  27
HETATM   27  N   UNL     1     -43.390  54.779 -57.121  1.00  0.00    -0.272 NA
HETATM   28  H   UNL     1     -44.064  55.355 -57.621  1.00  0.00     0.127 HD
HETATM   29  H   UNL     1     -42.686  54.417 -57.751  1.00  0.00     0.127 HD
ENDBRANCH  12  27
TORSDOF 4
ENDMDL
MODEL 4
REMARK VINA RESULT:      -7.9     16.012     18.320
REMARK  4 active torsions:
REMARK  status: ('A' for Active; 'I' for Inactive)
REMARK    1  A    between atoms: C_3  and  O_4 
REMARK    2  A    between atoms: O_4  and  C_5 
REMARK    3  A    between atoms: C_11  and  C_12 
REMARK    4  A    between atoms: C_23  and  N_24 
ROOT
HETATM    1  C   UNL     1     -43.257  57.729 -55.029  1.00  0.00     0.244 A 
HETATM    2  N   UNL     1     -42.711  57.972 -56.344  1.00  0.00    -0.151 N 
HETATM    3  C   UNL     1     -42.033  59.133 -56.617  1.00  0.00     0.734 A 
HETATM    4  N   UNL     1     -41.692  59.156 -57.886  1.00  0.00    -0.060 NA
HETATM    5  C   UNL     1     -42.189  58.004 -58.442  1.00  0.00     0.103 A 
HETATM    6  C   UNL     1     -42.848  57.233 -57.488  1.00  0.00     0.083 A 
HETATM    7  C   UNL     1     -42.123  57.552 -59.768  1.00  0.00     0.034 A 
HETATM    8  C   UNL     1     -42.727  56.333 -60.092  1.00  0.00     0.002 A 
HETATM    9  C   UNL     1     -43.381  55.577 -59.117  1.00  0.00     0.002 A 
HETATM   10  C   UNL     1     -43.459  56.011 -57.788  1.00  0.00     0.033 A 
HETATM   11  N   UNL     1     -41.791  60.077 -55.681  1.00  0.00    -0.033 NA
HETATM   12  C   UNL     1     -42.276  59.927 -54.502  1.00  0.00     0.193 A 
HETATM   13  N   UNL     1     -43.037  58.827 -54.089  1.00  0.00    -0.339 N 
HETATM   14  H   UNL     1     -43.289  58.714 -53.120  1.00  0.00     0.164 HD
ENDROOT
BRANCH   1  15
HETATM   15  C   UNL     1     -42.696  56.478 -54.372  1.00  0.00    -0.014 A 
HETATM   16  C   UNL     1     -43.320  55.893 -53.255  1.00  0.00     0.020 A 
HETATM   17  C   UNL     1     -42.836  54.702 -52.695  1.00  0.00    -0.027 A 
HETATM   18  C   UNL     1     -41.719  54.083 -53.277  1.00  0.00     0.086 A 
HETATM   19  C   UNL     1     -43.556  54.078 -51.531  1.00  0.00     0.051 C 
HETATM   20  C   UNL     1     -41.104  54.619 -54.419  1.00  0.00    -0.027 A 
HETATM   21  C   UNL     1     -39.936  53.941 -55.080  1.00  0.00     0.051 C 
HETATM   22  C   UNL     1     -41.588  55.828 -54.942  1.00  0.00     0.020 A 
BRANCH  18  23
HETATM   23  O   UNL     1     -41.296  52.882 -52.771  1.00  0.00    -0.289 OA
BRANCH  23  24
HETATM   24  C   UNL     1     -40.292  53.076 -51.782  1.00  0.00     0.505 C 
HETATM   25  F   UNL     1     -40.784  52.601 -50.610  1.00  0.00    -0.184 F 
HETATM   26  F   UNL     1     -39.231  52.297 -52.106  1.00  0.00    -0.184 F 
ENDBRANCH  23  24
ENDBRANCH  18  23
ENDBRANCH   1  15
BRANCH  12  27
HETATM   27  N   UNL     1     -42.087  60.823 -53.512  1.00  0.00    -0.272 NA
HETATM   28  H   UNL     1     -42.977  61.146 -53.139  1.00  0.00     0.127 HD
HETATM   29  H   UNL     1     -41.460  60.549 -52.767  1.00  0.00     0.127 HD
ENDBRANCH  12  27
TORSDOF 4
ENDMDL
MODEL 5
REMARK VINA RESULT:      -7.8     16.946     19.032
REMARK  4 active torsions:
REMARK  status: ('A' for Active; 'I' for Inactive)
REMARK    1  A    between atoms: C_3  and  O_4 
REMARK    2  A    between atoms: O_4  and  C_5 
REMARK    3  A    between atoms: C_11  and  C_12 
REMARK    4  A    between atoms: C_23  and  N_24 
ROOT
HETATM    1  C   UNL     1     -43.563  55.204 -52.713  1.00  0.00     0.244 A 
HETATM    2  N   UNL     1     -42.278  54.632 -52.382  1.00  0.00    -0.151 N 
HETATM    3  C   UNL     1     -41.553  53.948 -53.325  1.00  0.00     0.734 A 
HETATM    4  N   UNL     1     -40.459  53.468 -52.776  1.00  0.00    -0.060 NA
HETATM    5  C   UNL     1     -40.502  53.822 -51.450  1.00  0.00     0.103 A 
HETATM    6  C   UNL     1     -41.650  54.558 -51.168  1.00  0.00     0.083 A 
HETATM    7  C   UNL     1     -39.593  53.540 -50.422  1.00  0.00     0.034 A 
HETATM    8  C   UNL     1     -39.870  54.009 -49.133  1.00  0.00     0.002 A 
HETATM    9  C   UNL     1     -41.029  54.746 -48.875  1.00  0.00     0.002 A 
HETATM   10  C   UNL     1     -41.949  55.037 -49.889  1.00  0.00     0.033 A 
HETATM   11  N   UNL     1     -41.958  53.816 -54.607  1.00  0.00    -0.033 NA
HETATM   12  C   UNL     1     -43.104  54.281 -54.951  1.00  0.00     0.193 A 
HETATM   13  N   UNL     1     -43.982  54.949 -54.090  1.00  0.00    -0.339 N 
HETATM   14  H   UNL     1     -44.813  55.391 -54.449  1.00  0.00     0.164 HD
ENDROOT
BRANCH   1  15
HETATM   15  C   UNL     1     -43.613  56.710 -52.516  1.00  0.00    -0.014 A 
HETATM   16  C   UNL     1     -44.552  57.307 -51.655  1.00  0.00     0.020 A 
HETATM   17  C   UNL     1     -44.549  58.691 -51.427  1.00  0.00    -0.027 A 
HETATM   18  C   UNL     1     -43.579  59.482 -52.061  1.00  0.00     0.086 A 
HETATM   19  C   UNL     1     -45.537  59.289 -50.462  1.00  0.00     0.051 C 
HETATM   20  C   UNL     1     -42.602  58.908 -52.889  1.00  0.00    -0.027 A 
HETATM   21  C   UNL     1     -41.529  59.739 -53.537  1.00  0.00     0.051 C 
HETATM   22  C   UNL     1     -42.644  57.526 -53.127  1.00  0.00     0.020 A 
BRANCH  18  23
HETATM   23  O   UNL     1     -43.536  60.822 -51.776  1.00  0.00    -0.289 OA
BRANCH  23  24
HETATM   24  C   UNL     1     -43.006  61.044 -50.475  1.00  0.00     0.505 C 
HETATM   25  F   UNL     1     -41.881  60.293 -50.364  1.00  0.00    -0.184 F 
HETATM   26  F   UNL     1     -42.620  62.341 -50.398  1.00  0.00    -0.184 F 
ENDBRANCH  23  24
ENDBRANCH  18  23
ENDBRANCH   1  15
BRANCH  12  27
HETATM   27  N   UNL     1     -43.586  54.187 -56.206  1.00  0.00    -0.272 NA
HETATM   28  H   UNL     1     -42.829  54.172 -56.886  1.00  0.00     0.127 HD
HETATM   29  H   UNL     1     -44.246  53.442 -56.385  1.00  0.00     0.127 HD
ENDBRANCH  12  27
TORSDOF 4
ENDMDL
MODEL 6
REMARK VINA RESULT:      -7.7     15.155     17.542
REMARK  4 active torsions:
REMARK  status: ('A' for Active; 'I' for Inactive)
REMARK    1  A    between atoms: C_3  and  O_4 
REMARK    2  A    between atoms: O_4  and  C_5 
REMARK    3  A    between atoms: C_11  and  C_12 
REMARK    4  A    between atoms: C_23  and  N_24 
ROOT
HETATM    1  C   UNL     1     -42.923  56.392 -52.528  1.00  0.00     0.244 A 
HETATM    2  N   UNL     1     -42.622  57.055 -53.775  1.00  0.00    -0.151 N 
HETATM    3  C   UNL     1     -42.277  58.383 -53.796  1.00  0.00     0.734 A 
HETATM    4  N   UNL     1     -42.116  58.776 -55.040  1.00  0.00    -0.060 NA
HETATM    5  C   UNL     1     -42.396  57.690 -55.831  1.00  0.00     0.103 A 
HETATM    6  C   UNL     1     -42.727  56.582 -55.055  1.00  0.00     0.083 A 
HETATM    7  C   UNL     1     -42.396  57.579 -57.228  1.00  0.00     0.034 A 
HETATM    8  C   UNL     1     -42.732  56.349 -57.804  1.00  0.00     0.002 A 
HETATM    9  C   UNL     1     -43.060  55.252 -57.004  1.00  0.00     0.002 A 
HETATM   10  C   UNL     1     -43.067  55.343 -55.608  1.00  0.00     0.033 A 
HETATM   11  N   UNL     1     -42.146  59.123 -52.674  1.00  0.00    -0.033 NA
HETATM   12  C   UNL     1     -42.427  58.594 -51.539  1.00  0.00     0.193 A 
HETATM   13  N   UNL     1     -42.849  57.270 -51.362  1.00  0.00    -0.339 N 
HETATM   14  H   UNL     1     -42.940  56.882 -50.437  1.00  0.00     0.164 HD
ENDROOT
BRANCH   1  15
HETATM   15  C   UNL     1     -42.004  55.215 -52.242  1.00  0.00    -0.014 A 
HETATM   16  C   UNL     1     -41.765  54.220 -53.208  1.00  0.00     0.020 A 
HETATM   17  C   UNL     1     -40.865  53.172 -52.962  1.00  0.00    -0.027 A 
HETATM   18  C   UNL     1     -40.185  53.136 -51.735  1.00  0.00     0.086 A 
HETATM   19  C   UNL     1     -40.596  52.153 -54.035  1.00  0.00     0.051 C 
HETATM   20  C   UNL     1     -40.369  54.140 -50.772  1.00  0.00    -0.027 A 
HETATM   21  C   UNL     1     -39.612  54.136 -49.472  1.00  0.00     0.051 C 
HETATM   22  C   UNL     1     -41.298  55.159 -51.028  1.00  0.00     0.020 A 
BRANCH  18  23
HETATM   23  O   UNL     1     -39.253  52.152 -51.531  1.00  0.00    -0.289 OA
BRANCH  23  24
HETATM   24  C   UNL     1     -39.883  50.920 -51.202  1.00  0.00     0.505 C 
HETATM   25  F   UNL     1     -38.930  49.955 -51.247  1.00  0.00    -0.184 F 
HETATM   26  F   UNL     1     -40.304  50.996 -49.916  1.00  0.00    -0.184 F 
ENDBRANCH  23  24
ENDBRANCH  18  23
ENDBRANCH   1  15
BRANCH  12  27
HETATM   27  N   UNL     1     -42.328  59.263 -50.373  1.00  0.00    -0.272 NA
HETATM   28  H   UNL     1     -41.560  58.902 -49.810  1.00  0.00     0.127 HD
HETATM   29  H   UNL     1     -42.290  60.272 -50.430  1.00  0.00     0.127 HD
ENDBRANCH  12  27
TORSDOF 4
ENDMDL
MODEL 7
REMARK VINA RESULT:      -7.7     17.070     19.173
REMARK  4 active torsions:
REMARK  status: ('A' for Active; 'I' for Inactive)
REMARK    1  A    between atoms: C_3  and  O_4 
REMARK    2  A    between atoms: O_4  and  C_5 
REMARK    3  A    between atoms: C_11  and  C_12 
REMARK    4  A    between atoms: C_23  and  N_24 
ROOT
HETATM    1  C   UNL     1     -43.529  55.320 -52.634  1.00  0.00     0.244 A 
HETATM    2  N   UNL     1     -42.261  54.710 -52.308  1.00  0.00    -0.151 N 
HETATM    3  C   UNL     1     -41.557  54.009 -53.254  1.00  0.00     0.734 A 
HETATM    4  N   UNL     1     -40.477  53.495 -52.709  1.00  0.00    -0.060 NA
HETATM    5  C   UNL     1     -40.508  53.846 -51.382  1.00  0.00     0.103 A 
HETATM    6  C   UNL     1     -41.634  54.613 -51.095  1.00  0.00     0.083 A 
HETATM    7  C   UNL     1     -39.606  53.533 -50.356  1.00  0.00     0.034 A 
HETATM    8  C   UNL     1     -39.867  54.005 -49.065  1.00  0.00     0.002 A 
HETATM    9  C   UNL     1     -41.004  54.774 -48.802  1.00  0.00     0.002 A 
HETATM   10  C   UNL     1     -41.917  55.096 -49.813  1.00  0.00     0.033 A 
HETATM   11  N   UNL     1     -41.969  53.894 -54.536  1.00  0.00    -0.033 NA
HETATM   12  C   UNL     1     -43.101  54.392 -54.876  1.00  0.00     0.193 A 
HETATM   13  N   UNL     1     -43.959  55.083 -54.011  1.00  0.00    -0.339 N 
HETATM   14  H   UNL     1     -44.777  55.550 -54.367  1.00  0.00     0.164 HD
ENDROOT
BRANCH   1  15
HETATM   15  C   UNL     1     -43.536  56.826 -52.431  1.00  0.00    -0.014 A 
HETATM   16  C   UNL     1     -42.700  57.671 -53.184  1.00  0.00     0.020 A 
HETATM   17  C   UNL     1     -42.758  59.065 -53.039  1.00  0.00    -0.027 A 
HETATM   18  C   UNL     1     -43.681  59.616 -52.137  1.00  0.00     0.086 A 
HETATM   19  C   UNL     1     -41.884  59.941 -53.895  1.00  0.00     0.051 C 
HETATM   20  C   UNL     1     -44.559  58.800 -51.407  1.00  0.00    -0.027 A 
HETATM   21  C   UNL     1     -45.584  59.380 -50.472  1.00  0.00     0.051 C 
HETATM   22  C   UNL     1     -44.460  57.407 -51.545  1.00  0.00     0.020 A 
BRANCH  18  23
HETATM   23  O   UNL     1     -43.785  60.980 -52.055  1.00  0.00    -0.289 OA
BRANCH  23  24
HETATM   24  C   UNL     1     -43.188  61.460 -50.856  1.00  0.00     0.505 C 
HETATM   25  F   UNL     1     -42.009  60.807 -50.703  1.00  0.00    -0.184 F 
HETATM   26  F   UNL     1     -42.890  62.771 -51.034  1.00  0.00    -0.184 F 
ENDBRANCH  23  24
ENDBRANCH  18  23
ENDBRANCH   1  15
BRANCH  12  27
HETATM   27  N   UNL     1     -43.587  54.318 -56.131  1.00  0.00    -0.272 NA
HETATM   28  H   UNL     1     -44.429  53.745 -56.162  1.00  0.00     0.127 HD
HETATM   29  H   UNL     1     -43.729  55.194 -56.616  1.00  0.00     0.127 HD
ENDBRANCH  12  27
TORSDOF 4
ENDMDL
MODEL 8
REMARK VINA RESULT:      -7.6      1.274      2.228
REMARK  4 active torsions:
REMARK  status: ('A' for Active; 'I' for Inactive)
REMARK    1  A    between atoms: C_3  and  O_4 
REMARK    2  A    between atoms: O_4  and  C_5 
REMARK    3  A    between atoms: C_11  and  C_12 
REMARK    4  A    between atoms: C_23  and  N_24 
ROOT
HETATM    1  C   UNL     1     -36.460  41.511 -54.936  1.00  0.00     0.244 A 
HETATM    2  N   UNL     1     -35.469  40.790 -54.172  1.00  0.00    -0.151 N 
HETATM    3  C   UNL     1     -35.727  40.402 -52.881  1.00  0.00     0.734 A 
HETATM    4  N   UNL     1     -34.660  39.825 -52.373  1.00  0.00    -0.060 NA
HETATM    5  C   UNL     1     -33.692  39.876 -53.345  1.00  0.00     0.103 A 
HETATM    6  C   UNL     1     -34.174  40.490 -54.498  1.00  0.00     0.083 A 
HETATM    7  C   UNL     1     -32.366  39.423 -53.308  1.00  0.00     0.034 A 
HETATM    8  C   UNL     1     -31.563  39.603 -54.439  1.00  0.00     0.002 A 
HETATM    9  C   UNL     1     -32.070  40.221 -55.584  1.00  0.00     0.002 A 
HETATM   10  C   UNL     1     -33.391  40.681 -55.640  1.00  0.00     0.033 A 
HETATM   11  N   UNL     1     -36.916  40.615 -52.276  1.00  0.00    -0.033 NA
HETATM   12  C   UNL     1     -37.824  41.274 -52.898  1.00  0.00     0.193 A 
HETATM   13  N   UNL     1     -37.689  41.786 -54.194  1.00  0.00    -0.339 N 
HETATM   14  H   UNL     1     -38.480  42.192 -54.668  1.00  0.00     0.164 HD
ENDROOT
BRANCH   1  15
HETATM   15  C   UNL     1     -36.875  40.788 -56.207  1.00  0.00    -0.014 A 
HETATM   16  C   UNL     1     -37.014  41.471 -57.428  1.00  0.00     0.020 A 
HETATM   17  C   UNL     1     -37.331  40.787 -58.611  1.00  0.00    -0.027 A 
HETATM   18  C   UNL     1     -37.495  39.394 -58.565  1.00  0.00     0.086 A 
HETATM   19  C   UNL     1     -37.424  41.542 -59.908  1.00  0.00     0.051 C 
HETATM   20  C   UNL     1     -37.317  38.680 -57.370  1.00  0.00    -0.027 A 
HETATM   21  C   UNL     1     -37.445  37.182 -57.318  1.00  0.00     0.051 C 
HETATM   22  C   UNL     1     -37.031  39.391 -56.195  1.00  0.00     0.020 A 
BRANCH  18  23
HETATM   23  O   UNL     1     -37.732  38.723 -59.736  1.00  0.00    -0.289 OA
BRANCH  23  24
HETATM   24  C   UNL     1     -39.122  38.708 -60.038  1.00  0.00     0.505 C 
HETATM   25  F   UNL     1     -39.242  38.605 -61.385  1.00  0.00    -0.184 F 
HETATM   26  F   UNL     1     -39.652  37.578 -59.509  1.00  0.00    -0.184 F 
ENDBRANCH  23  24
ENDBRANCH  18  23
ENDBRANCH   1  15
BRANCH  12  27
HETATM   27  N   UNL     1     -39.035  41.535 -52.365  1.00  0.00    -0.272 NA
HETATM   28  H   UNL     1     -38.951  42.138 -51.549  1.00  0.00     0.127 HD
HETATM   29  H   UNL     1     -39.745  41.880 -52.998  1.00  0.00     0.127 HD
ENDBRANCH  12  27
TORSDOF 4
ENDMDL
MODEL 9
REMARK VINA RESULT:      -7.6     15.698     18.034
REMARK  4 active torsions:
REMARK  status: ('A' for Active; 'I' for Inactive)
REMARK    1  A    between atoms: C_3  and  O_4 
REMARK    2  A    between atoms: O_4  and  C_5 
REMARK    3  A    between atoms: C_11  and  C_12 
REMARK    4  A    between atoms: C_23  and  N_24 
ROOT
HETATM    1  C   UNL     1     -41.778  57.109 -51.676  1.00  0.00     0.244 A 
HETATM    2  N   UNL     1     -42.239  57.989 -52.724  1.00  0.00    -0.151 N 
HETATM    3  C   UNL     1     -41.646  59.210 -52.925  1.00  0.00     0.734 A 
HETATM    4  N   UNL     1     -42.275  59.853 -53.883  1.00  0.00    -0.060 NA
HETATM    5  C   UNL     1     -43.311  59.044 -54.279  1.00  0.00     0.103 A 
HETATM    6  C   UNL     1     -43.318  57.854 -53.556  1.00  0.00     0.083 A 
HETATM    7  C   UNL     1     -44.296  59.267 -55.251  1.00  0.00     0.034 A 
HETATM    8  C   UNL     1     -45.263  58.280 -55.465  1.00  0.00     0.002 A 
HETATM    9  C   UNL     1     -45.249  57.094 -54.727  1.00  0.00     0.002 A 
HETATM   10  C   UNL     1     -44.275  56.853 -53.752  1.00  0.00     0.033 A 
HETATM   11  N   UNL     1     -40.582  59.633 -52.208  1.00  0.00    -0.033 NA
HETATM   12  C   UNL     1     -40.147  58.904 -51.246  1.00  0.00     0.193 A 
HETATM   13  N   UNL     1     -40.684  57.664 -50.881  1.00  0.00    -0.339 N 
HETATM   14  H   UNL     1     -40.224  57.089 -50.194  1.00  0.00     0.164 HD
ENDROOT
BRANCH   1  15
HETATM   15  C   UNL     1     -41.298  55.764 -52.195  1.00  0.00    -0.014 A 
HETATM   16  C   UNL     1     -40.944  55.583 -53.545  1.00  0.00     0.020 A 
HETATM   17  C   UNL     1     -40.438  54.357 -54.004  1.00  0.00    -0.027 A 
HETATM   18  C   UNL     1     -40.271  53.307 -53.089  1.00  0.00     0.086 A 
HETATM   19  C   UNL     1     -40.023  54.214 -55.442  1.00  0.00     0.051 C 
HETATM   20  C   UNL     1     -40.573  53.473 -51.728  1.00  0.00    -0.027 A 
HETATM   21  C   UNL     1     -40.356  52.369 -50.730  1.00  0.00     0.051 C 
HETATM   22  C   UNL     1     -41.107  54.697 -51.300  1.00  0.00     0.020 A 
BRANCH  18  23
HETATM   23  O   UNL     1     -39.708  52.137 -53.529  1.00  0.00    -0.289 OA
BRANCH  23  24
HETATM   24  C   UNL     1     -40.712  51.177 -53.836  1.00  0.00     0.505 C 
HETATM   25  F   UNL     1     -41.691  51.823 -54.517  1.00  0.00    -0.184 F 
HETATM   26  F   UNL     1     -40.174  50.270 -54.688  1.00  0.00    -0.184 F 
ENDBRANCH  23  24
ENDBRANCH  18  23
ENDBRANCH   1  15
BRANCH  12  27
HETATM   27  N   UNL     1     -39.094  59.254 -50.479  1.00  0.00    -0.272 NA
HETATM   28  H   UNL     1     -39.377  59.906 -49.749  1.00  0.00     0.127 HD
HETATM   29  H   UNL     1     -38.541  58.500 -50.095  1.00  0.00     0.127 HD
ENDBRANCH  12  27
TORSDOF 4
ENDMDL
MODEL 10
REMARK VINA RESULT:      -7.6     15.744     18.088
REMARK  4 active torsions:
REMARK  status: ('A' for Active; 'I' for Inactive)
REMARK    1  A    between atoms: C_3  and  O_4 
REMARK    2  A    between atoms: O_4  and  C_5 
REMARK    3  A    between atoms: C_11  and  C_12 
REMARK    4  A    between atoms: C_23  and  N_24 
ROOT
HETATM    1  C   UNL     1     -41.407  57.525 -51.485  1.00  0.00     0.244 A 
HETATM    2  N   UNL     1     -41.747  58.061 -52.783  1.00  0.00    -0.151 N 
HETATM    3  C   UNL     1     -40.985  59.049 -53.353  1.00  0.00     0.734 A 
HETATM    4  N   UNL     1     -41.524  59.419 -54.493  1.00  0.00    -0.060 NA
HETATM    5  C   UNL     1     -42.671  58.678 -54.639  1.00  0.00     0.103 A 
HETATM    6  C   UNL     1     -42.843  57.811 -53.563  1.00  0.00     0.083 A 
HETATM    7  C   UNL     1     -43.623  58.702 -55.666  1.00  0.00     0.034 A 
HETATM    8  C   UNL     1     -44.727  57.846 -55.578  1.00  0.00     0.002 A 
HETATM    9  C   UNL     1     -44.877  56.984 -54.490  1.00  0.00     0.002 A 
HETATM   10  C   UNL     1     -43.937  56.947 -53.453  1.00  0.00     0.033 A 
HETATM   11  N   UNL     1     -39.862  59.533 -52.776  1.00  0.00    -0.033 NA
HETATM   12  C   UNL     1     -39.527  59.112 -51.611  1.00  0.00     0.193 A 
HETATM   13  N   UNL     1     -40.235  58.152 -50.878  1.00  0.00    -0.339 N 
HETATM   14  H   UNL     1     -39.856  57.781 -50.022  1.00  0.00     0.164 HD
ENDROOT
BRANCH   1  15
HETATM   15  C   UNL     1     -41.133  56.030 -51.512  1.00  0.00    -0.014 A 
HETATM   16  C   UNL     1     -40.945  55.297 -50.326  1.00  0.00     0.020 A 
HETATM   17  C   UNL     1     -40.759  53.907 -50.355  1.00  0.00    -0.027 A 
HETATM   18  C   UNL     1     -40.778  53.245 -51.591  1.00  0.00     0.086 A 
HETATM   19  C   UNL     1     -40.609  53.148 -49.064  1.00  0.00     0.051 C 
HETATM   20  C   UNL     1     -41.010  53.943 -52.786  1.00  0.00    -0.027 A 
HETATM   21  C   UNL     1     -41.079  53.239 -54.113  1.00  0.00     0.051 C 
HETATM   22  C   UNL     1     -41.162  55.337 -52.735  1.00  0.00     0.020 A 
BRANCH  18  23
HETATM   23  O   UNL     1     -40.670  51.879 -51.606  1.00  0.00    -0.289 OA
BRANCH  23  24
HETATM   24  C   UNL     1     -39.310  51.481 -51.736  1.00  0.00     0.505 C 
HETATM   25  F   UNL     1     -39.135  50.382 -50.961  1.00  0.00    -0.184 F 
HETATM   26  F   UNL     1     -39.110  51.093 -53.019  1.00  0.00    -0.184 F 
ENDBRANCH  23  24
ENDBRANCH  18  23
ENDBRANCH   1  15
BRANCH  12  27
HETATM   27  N   UNL     1     -38.427  59.546 -50.964  1.00  0.00    -0.272 NA
HETATM   28  H   UNL     1     -38.639  59.766 -49.993  1.00  0.00     0.127 HD
HETATM   29  H   UNL     1     -37.602  58.964 -51.030  1.00  0.00     0.127 HD
ENDBRANCH  12  27
TORSDOF 4
ENDMDL
