MODEL 1
REMARK VINA RESULT:      -8.1      0.000      0.000
REMARK  10 active torsions:
REMARK  status: ('A' for Active; 'I' for Inactive)
REMARK    1  A    between atoms: C_2  and  O_3 
REMARK    2  A    between atoms: O_3  and  C_4 
REMARK    3  A    between atoms: C_4  and  C_5 
REMARK    4  A    between atoms: C_6  and  C_7 
REMARK    5  A    between atoms: C_7  and  O_8 
REMARK    6  A    between atoms: O_8  and  C_9 
REMARK    7  A    between atoms: C_9  and  C_10 
REMARK       I    between atoms: C_10  and  N_11 
REMARK    8  A    between atoms: N_11  and  C_12 
REMARK    9  A    between atoms: C_12  and  C_13 
REMARK       I    between atoms: C_13  and  N_14 
REMARK   10  A    between atoms: N_14  and  C_15 
ROOT
HETATM    1  C   UNL     1     -42.572  59.197 -51.820  1.00  0.00     0.281 C 
ENDROOT
BRANCH   1   2
HETATM    2  O   UNL     1     -41.841  59.933 -52.791  1.00  0.00    -0.307 OA
BRANCH   2   3
HETATM    3  C   UNL     1     -41.002  59.177 -53.557  1.00  0.00     0.318 C 
HETATM    4  O   UNL     1     -39.860  58.870 -53.221  1.00  0.00    -0.257 OA
BRANCH   3   5
HETATM    5  C   UNL     1     -41.627  58.876 -54.827  1.00  0.00     0.160 A 
HETATM    6  C   UNL     1     -42.000  57.667 -55.400  1.00  0.00     0.018 A 
HETATM    7  C   UNL     1     -42.510  57.979 -56.698  1.00  0.00     0.009 A 
HETATM    8  C   UNL     1     -42.435  59.360 -56.816  1.00  0.00     0.087 A 
HETATM    9  C   UNL     1     -43.032  57.247 -57.783  1.00  0.00     0.015 A 
HETATM   10  O   UNL     1     -41.905  59.904 -55.691  1.00  0.00    -0.303 OA
HETATM   11  C   UNL     1     -42.845  60.077 -57.938  1.00  0.00     0.038 A 
HETATM   12  C   UNL     1     -43.358  59.331 -59.004  1.00  0.00     0.003 A 
HETATM   13  C   UNL     1     -43.449  57.939 -58.931  1.00  0.00     0.001 A 
BRANCH   6  14
HETATM   14  C   UNL     1     -41.917  56.325 -54.765  1.00  0.00     0.210 C 
BRANCH  14  15
HETATM   15  O   UNL     1     -43.064  56.104 -53.949  1.00  0.00    -0.387 OA
BRANCH  15  16
HETATM   16  C   UNL     1     -43.617  54.805 -54.130  1.00  0.00     0.163 C 
HETATM   17  C   UNL     1     -43.227  54.304 -55.506  1.00  0.00     0.033 C 
ENDBRANCH  15  16
ENDBRANCH  14  15
ENDBRANCH   6  14
ENDBRANCH   3   5
ENDBRANCH   2   3
ENDBRANCH   1   2
BRANCH   1  18
HETATM   18  C   UNL     1     -41.732  58.239 -50.967  1.00  0.00     0.242 C 
HETATM   19  N   UNL     1     -41.899  56.904 -51.276  1.00  0.00    -0.350 N 
HETATM   20  H   UNL     1     -42.618  56.615 -51.926  1.00  0.00     0.163 HD
HETATM   21  O   UNL     1     -40.976  58.630 -50.085  1.00  0.00    -0.271 OA
BRANCH  19  22
HETATM   22  C   UNL     1     -41.100  55.878 -50.625  1.00  0.00     0.225 C 
BRANCH  22  23
HETATM   23  C   UNL     1     -41.335  54.434 -51.092  1.00  0.00     0.239 C 
HETATM   24  N   UNL     1     -40.177  53.770 -51.462  1.00  0.00    -0.325 N 
HETATM   25  H   UNL     1     -39.469  54.385 -51.859  1.00  0.00     0.169 HD
HETATM   26  O   UNL     1     -42.462  53.951 -51.024  1.00  0.00    -0.271 OA
BRANCH  24  27
HETATM   27  C   UNL     1     -40.047  52.396 -51.782  1.00  0.00     0.041 C 
HETATM   28  C   UNL     1     -39.975  51.840 -53.079  1.00  0.00    -0.029 C 
HETATM   29  C   UNL     1     -40.260  52.637 -54.328  1.00  0.00     0.051 C 
HETATM   30  C   UNL     1     -39.676  50.458 -53.222  1.00  0.00    -0.054 C 
HETATM   31  C   UNL     1     -39.465  49.822 -54.574  1.00  0.00     0.049 C 
HETATM   32  C   UNL     1     -39.621  49.633 -52.090  1.00  0.00     0.007 C 
HETATM   33  C   UNL     1     -39.826  50.163 -50.826  1.00  0.00     0.003 C 
HETATM   34  C   UNL     1     -40.025  51.533 -50.673  1.00  0.00     0.030 C 
ENDBRANCH  24  27
ENDBRANCH  22  23
ENDBRANCH  19  22
ENDBRANCH   1  18
TORSDOF 10
ENDMDL
MODEL 2
REMARK VINA RESULT:      -8.0      2.233      7.235
REMARK  10 active torsions:
REMARK  status: ('A' for Active; 'I' for Inactive)
REMARK    1  A    between atoms: C_2  and  O_3 
REMARK    2  A    between atoms: O_3  and  C_4 
REMARK    3  A    between atoms: C_4  and  C_5 
REMARK    4  A    between atoms: C_6  and  C_7 
REMARK    5  A    between atoms: C_7  and  O_8 
REMARK    6  A    between atoms: O_8  and  C_9 
REMARK    7  A    between atoms: C_9  and  C_10 
REMARK       I    between atoms: C_10  and  N_11 
REMARK    8  A    between atoms: N_11  and  C_12 
REMARK    9  A    between atoms: C_12  and  C_13 
REMARK       I    between atoms: C_13  and  N_14 
REMARK   10  A    between atoms: N_14  and  C_15 
ROOT
HETATM    1  C   UNL     1     -43.985  56.068 -50.977  1.00  0.00     0.281 C 
ENDROOT
BRANCH   1   2
HETATM    2  O   UNL     1     -42.753  56.157 -50.275  1.00  0.00    -0.307 OA
BRANCH   2   3
HETATM    3  C   UNL     1     -41.678  56.459 -51.060  1.00  0.00     0.318 C 
HETATM    4  O   UNL     1     -41.257  57.601 -51.233  1.00  0.00    -0.257 OA
BRANCH   3   5
HETATM    5  C   UNL     1     -41.182  55.260 -51.701  1.00  0.00     0.160 A 
HETATM    6  C   UNL     1     -41.117  54.900 -53.042  1.00  0.00     0.018 A 
HETATM    7  C   UNL     1     -40.594  53.570 -53.073  1.00  0.00     0.009 A 
HETATM    8  C   UNL     1     -40.354  53.222 -51.751  1.00  0.00     0.087 A 
HETATM    9  C   UNL     1     -40.291  52.626 -54.075  1.00  0.00     0.015 A 
HETATM   10  O   UNL     1     -40.706  54.237 -50.923  1.00  0.00    -0.303 OA
HETATM   11  C   UNL     1     -39.829  51.997 -51.344  1.00  0.00     0.038 A 
HETATM   12  C   UNL     1     -39.538  51.074 -52.353  1.00  0.00     0.003 A 
HETATM   13  C   UNL     1     -39.767  51.381 -53.696  1.00  0.00     0.001 A 
BRANCH   6  14
HETATM   14  C   UNL     1     -41.484  55.750 -54.204  1.00  0.00     0.210 C 
BRANCH  14  15
HETATM   15  O   UNL     1     -42.893  55.965 -54.223  1.00  0.00    -0.387 OA
BRANCH  15  16
HETATM   16  C   UNL     1     -43.620  54.772 -54.497  1.00  0.00     0.163 C 
HETATM   17  C   UNL     1     -43.234  54.280 -55.877  1.00  0.00     0.033 C 
ENDBRANCH  15  16
ENDBRANCH  14  15
ENDBRANCH   6  14
ENDBRANCH   3   5
ENDBRANCH   2   3
ENDBRANCH   1   2
BRANCH   1  18
HETATM   18  C   UNL     1     -44.628  57.414 -51.329  1.00  0.00     0.242 C 
HETATM   19  N   UNL     1     -44.239  57.931 -52.548  1.00  0.00    -0.350 N 
HETATM   20  H   UNL     1     -43.494  57.495 -53.076  1.00  0.00     0.163 HD
HETATM   21  O   UNL     1     -45.423  57.980 -50.587  1.00  0.00    -0.271 OA
BRANCH  19  22
HETATM   22  C   UNL     1     -44.834  59.151 -53.070  1.00  0.00     0.225 C 
BRANCH  22  23
HETATM   23  C   UNL     1     -44.861  59.296 -54.598  1.00  0.00     0.239 C 
HETATM   24  N   UNL     1     -44.808  58.088 -55.276  1.00  0.00    -0.325 N 
HETATM   25  H   UNL     1     -44.275  57.373 -54.784  1.00  0.00     0.169 HD
HETATM   26  O   UNL     1     -45.014  60.406 -55.100  1.00  0.00    -0.271 OA
BRANCH  24  27
HETATM   27  C   UNL     1     -44.973  57.883 -56.668  1.00  0.00     0.041 C 
HETATM   28  C   UNL     1     -43.952  57.587 -57.599  1.00  0.00    -0.029 C 
HETATM   29  C   UNL     1     -42.485  57.674 -57.260  1.00  0.00     0.051 C 
HETATM   30  C   UNL     1     -44.311  57.245 -58.931  1.00  0.00    -0.054 C 
HETATM   31  C   UNL     1     -43.286  56.802 -59.945  1.00  0.00     0.049 C 
HETATM   32  C   UNL     1     -45.643  57.364 -59.349  1.00  0.00     0.007 C 
HETATM   33  C   UNL     1     -46.622  57.785 -58.463  1.00  0.00     0.003 C 
HETATM   34  C   UNL     1     -46.291  58.030 -57.132  1.00  0.00     0.030 C 
ENDBRANCH  24  27
ENDBRANCH  22  23
ENDBRANCH  19  22
ENDBRANCH   1  18
TORSDOF 10
ENDMDL
MODEL 3
REMARK VINA RESULT:      -7.9      2.371      7.875
REMARK  10 active torsions:
REMARK  status: ('A' for Active; 'I' for Inactive)
REMARK    1  A    between atoms: C_2  and  O_3 
REMARK    2  A    between atoms: O_3  and  C_4 
REMARK    3  A    between atoms: C_4  and  C_5 
REMARK    4  A    between atoms: C_6  and  C_7 
REMARK    5  A    between atoms: C_7  and  O_8 
REMARK    6  A    between atoms: O_8  and  C_9 
REMARK    7  A    between atoms: C_9  and  C_10 
REMARK       I    between atoms: C_10  and  N_11 
REMARK    8  A    between atoms: N_11  and  C_12 
REMARK    9  A    between atoms: C_12  and  C_13 
REMARK       I    between atoms: C_13  and  N_14 
REMARK   10  A    between atoms: N_14  and  C_15 
ROOT
HETATM    1  C   UNL     1     -41.161  57.487 -53.068  1.00  0.00     0.281 C 
ENDROOT
BRANCH   1   2
HETATM    2  O   UNL     1     -40.774  56.339 -53.809  1.00  0.00    -0.307 OA
BRANCH   2   3
HETATM    3  C   UNL     1     -41.737  55.376 -53.901  1.00  0.00     0.318 C 
HETATM    4  O   UNL     1     -42.903  55.603 -54.214  1.00  0.00    -0.257 OA
BRANCH   3   5
HETATM    5  C   UNL     1     -41.196  54.096 -53.499  1.00  0.00     0.160 A 
HETATM    6  C   UNL     1     -40.656  53.668 -52.292  1.00  0.00     0.018 A 
HETATM    7  C   UNL     1     -40.222  52.322 -52.502  1.00  0.00     0.009 A 
HETATM    8  C   UNL     1     -40.550  52.015 -53.815  1.00  0.00     0.087 A 
HETATM    9  C   UNL     1     -39.595  51.329 -51.724  1.00  0.00     0.015 A 
HETATM   10  O   UNL     1     -41.137  53.080 -54.418  1.00  0.00    -0.303 OA
HETATM   11  C   UNL     1     -40.304  50.784 -54.420  1.00  0.00     0.038 A 
HETATM   12  C   UNL     1     -39.678  49.814 -53.631  1.00  0.00     0.003 A 
HETATM   13  C   UNL     1     -39.327  50.080 -52.306  1.00  0.00     0.001 A 
BRANCH   6  14
HETATM   14  C   UNL     1     -40.585  54.449 -51.030  1.00  0.00     0.210 C 
BRANCH  14  15
HETATM   15  O   UNL     1     -41.652  54.072 -50.165  1.00  0.00    -0.387 OA
BRANCH  15  16
HETATM   16  C   UNL     1     -42.725  55.005 -50.187  1.00  0.00     0.163 C 
HETATM   17  C   UNL     1     -43.932  54.336 -50.814  1.00  0.00     0.033 C 
ENDBRANCH  15  16
ENDBRANCH  14  15
ENDBRANCH   6  14
ENDBRANCH   3   5
ENDBRANCH   2   3
ENDBRANCH   1   2
BRANCH   1  18
HETATM   18  C   UNL     1     -41.405  58.747 -53.907  1.00  0.00     0.242 C 
HETATM   19  N   UNL     1     -41.904  58.504 -55.171  1.00  0.00    -0.350 N 
HETATM   20  H   UNL     1     -41.968  57.558 -55.523  1.00  0.00     0.163 HD
HETATM   21  O   UNL     1     -41.175  59.875 -53.486  1.00  0.00    -0.271 OA
BRANCH  19  22
HETATM   22  C   UNL     1     -42.281  59.598 -56.052  1.00  0.00     0.225 C 
BRANCH  22  23
HETATM   23  C   UNL     1     -42.986  59.207 -57.358  1.00  0.00     0.239 C 
HETATM   24  N   UNL     1     -43.686  58.014 -57.281  1.00  0.00    -0.325 N 
HETATM   25  H   UNL     1     -43.267  57.342 -56.642  1.00  0.00     0.169 HD
HETATM   26  O   UNL     1     -42.966  59.980 -58.313  1.00  0.00    -0.271 OA
BRANCH  24  27
HETATM   27  C   UNL     1     -44.559  57.473 -58.258  1.00  0.00     0.041 C 
HETATM   28  C   UNL     1     -44.217  56.540 -59.263  1.00  0.00    -0.029 C 
HETATM   29  C   UNL     1     -42.791  56.161 -59.577  1.00  0.00     0.051 C 
HETATM   30  C   UNL     1     -45.250  55.972 -60.057  1.00  0.00    -0.054 C 
HETATM   31  C   UNL     1     -44.975  54.884 -61.065  1.00  0.00     0.049 C 
HETATM   32  C   UNL     1     -46.561  56.455 -59.950  1.00  0.00     0.007 C 
HETATM   33  C   UNL     1     -46.864  57.467 -59.053  1.00  0.00     0.003 C 
HETATM   34  C   UNL     1     -45.875  57.962 -58.207  1.00  0.00     0.030 C 
ENDBRANCH  24  27
ENDBRANCH  22  23
ENDBRANCH  19  22
ENDBRANCH   1  18
TORSDOF 10
ENDMDL
MODEL 4
REMARK VINA RESULT:      -7.8      1.729      7.436
REMARK  10 active torsions:
REMARK  status: ('A' for Active; 'I' for Inactive)
REMARK    1  A    between atoms: C_2  and  O_3 
REMARK    2  A    between atoms: O_3  and  C_4 
REMARK    3  A    between atoms: C_4  and  C_5 
REMARK    4  A    between atoms: C_6  and  C_7 
REMARK    5  A    between atoms: C_7  and  O_8 
REMARK    6  A    between atoms: O_8  and  C_9 
REMARK    7  A    between atoms: C_9  and  C_10 
REMARK       I    between atoms: C_10  and  N_11 
REMARK    8  A    between atoms: N_11  and  C_12 
REMARK    9  A    between atoms: C_12  and  C_13 
REMARK       I    between atoms: C_13  and  N_14 
REMARK   10  A    between atoms: N_14  and  C_15 
ROOT
HETATM    1  C   UNL     1     -41.372  56.804 -50.542  1.00  0.00     0.281 C 
ENDROOT
BRANCH   1   2
HETATM    2  O   UNL     1     -40.471  55.715 -50.395  1.00  0.00    -0.307 OA
BRANCH   2   3
HETATM    3  C   UNL     1     -41.071  54.522 -50.112  1.00  0.00     0.318 C 
HETATM    4  O   UNL     1     -41.727  54.311 -49.094  1.00  0.00    -0.257 OA
BRANCH   3   5
HETATM    5  C   UNL     1     -40.747  53.550 -51.134  1.00  0.00     0.160 A 
HETATM    6  C   UNL     1     -40.962  53.559 -52.507  1.00  0.00     0.018 A 
HETATM    7  C   UNL     1     -40.492  52.300 -52.993  1.00  0.00     0.009 A 
HETATM    8  C   UNL     1     -40.001  51.621 -51.887  1.00  0.00     0.087 A 
HETATM    9  C   UNL     1     -40.422  51.663 -54.248  1.00  0.00     0.015 A 
HETATM   10  O   UNL     1     -40.151  52.371 -50.766  1.00  0.00    -0.303 OA
HETATM   11  C   UNL     1     -39.437  50.347 -51.932  1.00  0.00     0.038 A 
HETATM   12  C   UNL     1     -39.381  49.733 -53.186  1.00  0.00     0.003 A 
HETATM   13  C   UNL     1     -39.866  50.377 -54.327  1.00  0.00     0.001 A 
BRANCH   6  14
HETATM   14  C   UNL     1     -41.532  54.676 -53.304  1.00  0.00     0.210 C 
BRANCH  14  15
HETATM   15  O   UNL     1     -42.941  54.745 -53.105  1.00  0.00    -0.387 OA
BRANCH  15  16
HETATM   16  C   UNL     1     -43.659  54.840 -54.329  1.00  0.00     0.163 C 
HETATM   17  C   UNL     1     -42.745  54.405 -55.458  1.00  0.00     0.033 C 
ENDBRANCH  15  16
ENDBRANCH  14  15
ENDBRANCH   6  14
ENDBRANCH   3   5
ENDBRANCH   2   3
ENDBRANCH   1   2
BRANCH   1  18
HETATM   18  C   UNL     1     -40.833  57.984 -51.358  1.00  0.00     0.242 C 
HETATM   19  N   UNL     1     -41.532  58.242 -52.520  1.00  0.00    -0.350 N 
HETATM   20  H   UNL     1     -42.253  57.606 -52.836  1.00  0.00     0.163 HD
HETATM   21  O   UNL     1     -39.861  58.642 -51.005  1.00  0.00    -0.271 OA
BRANCH  19  22
HETATM   22  C   UNL     1     -41.207  59.389 -53.353  1.00  0.00     0.225 C 
BRANCH  22  23
HETATM   23  C   UNL     1     -41.898  59.453 -54.723  1.00  0.00     0.239 C 
HETATM   24  N   UNL     1     -42.307  58.219 -55.202  1.00  0.00    -0.325 N 
HETATM   25  H   UNL     1     -41.706  57.453 -54.907  1.00  0.00     0.169 HD
HETATM   26  O   UNL     1     -42.117  60.545 -55.240  1.00  0.00    -0.271 OA
BRANCH  24  27
HETATM   27  C   UNL     1     -43.104  57.971 -56.347  1.00  0.00     0.041 C 
HETATM   28  C   UNL     1     -44.515  57.989 -56.406  1.00  0.00    -0.029 C 
HETATM   29  C   UNL     1     -45.385  58.054 -55.175  1.00  0.00     0.051 C 
HETATM   30  C   UNL     1     -45.155  57.883 -57.671  1.00  0.00    -0.054 C 
HETATM   31  C   UNL     1     -46.649  58.014 -57.824  1.00  0.00     0.049 C 
HETATM   32  C   UNL     1     -44.398  57.601 -58.816  1.00  0.00     0.007 C 
HETATM   33  C   UNL     1     -43.022  57.452 -58.729  1.00  0.00     0.003 C 
HETATM   34  C   UNL     1     -42.381  57.647 -57.508  1.00  0.00     0.030 C 
ENDBRANCH  24  27
ENDBRANCH  22  23
ENDBRANCH  19  22
ENDBRANCH   1  18
TORSDOF 10
ENDMDL
MODEL 5
REMARK VINA RESULT:      -7.8      2.086      7.623
REMARK  10 active torsions:
REMARK  status: ('A' for Active; 'I' for Inactive)
REMARK    1  A    between atoms: C_2  and  O_3 
REMARK    2  A    between atoms: O_3  and  C_4 
REMARK    3  A    between atoms: C_4  and  C_5 
REMARK    4  A    between atoms: C_6  and  C_7 
REMARK    5  A    between atoms: C_7  and  O_8 
REMARK    6  A    between atoms: O_8  and  C_9 
REMARK    7  A    between atoms: C_9  and  C_10 
REMARK       I    between atoms: C_10  and  N_11 
REMARK    8  A    between atoms: N_11  and  C_12 
REMARK    9  A    between atoms: C_12  and  C_13 
REMARK       I    between atoms: C_13  and  N_14 
REMARK   10  A    between atoms: N_14  and  C_15 
ROOT
HETATM    1  C   UNL     1     -42.085  56.364 -50.304  1.00  0.00     0.281 C 
ENDROOT
BRANCH   1   2
HETATM    2  O   UNL     1     -41.919  54.967 -50.507  1.00  0.00    -0.307 OA
BRANCH   2   3
HETATM    3  C   UNL     1     -40.627  54.536 -50.427  1.00  0.00     0.318 C 
HETATM    4  O   UNL     1     -39.781  55.041 -49.692  1.00  0.00    -0.257 OA
BRANCH   3   5
HETATM    5  C   UNL     1     -40.401  53.474 -51.384  1.00  0.00     0.160 A 
HETATM    6  C   UNL     1     -40.596  53.423 -52.758  1.00  0.00     0.018 A 
HETATM    7  C   UNL     1     -40.264  52.092 -53.161  1.00  0.00     0.009 A 
HETATM    8  C   UNL     1     -39.865  51.432 -52.007  1.00  0.00     0.087 A 
HETATM    9  C   UNL     1     -40.250  51.376 -54.374  1.00  0.00     0.015 A 
HETATM   10  O   UNL     1     -39.945  52.261 -50.935  1.00  0.00    -0.303 OA
HETATM   11  C   UNL     1     -39.448  50.103 -51.965  1.00  0.00     0.038 A 
HETATM   12  C   UNL     1     -39.444  49.411 -53.180  1.00  0.00     0.003 A 
HETATM   13  C   UNL     1     -39.840  50.034 -54.365  1.00  0.00     0.001 A 
BRANCH   6  14
HETATM   14  C   UNL     1     -41.027  54.545 -53.632  1.00  0.00     0.210 C 
BRANCH  14  15
HETATM   15  O   UNL     1     -42.450  54.587 -53.702  1.00  0.00    -0.387 OA
BRANCH  15  16
HETATM   16  C   UNL     1     -42.941  54.210 -54.983  1.00  0.00     0.163 C 
HETATM   17  C   UNL     1     -42.134  54.937 -56.041  1.00  0.00     0.033 C 
ENDBRANCH  15  16
ENDBRANCH  14  15
ENDBRANCH   6  14
ENDBRANCH   3   5
ENDBRANCH   2   3
ENDBRANCH   1   2
BRANCH   1  18
HETATM   18  C   UNL     1     -41.987  57.218 -51.573  1.00  0.00     0.242 C 
HETATM   19  N   UNL     1     -43.157  57.297 -52.301  1.00  0.00    -0.350 N 
HETATM   20  H   UNL     1     -43.952  56.722 -52.056  1.00  0.00     0.163 HD
HETATM   21  O   UNL     1     -40.952  57.784 -51.910  1.00  0.00    -0.271 OA
BRANCH  19  22
HETATM   22  C   UNL     1     -43.254  58.148 -53.477  1.00  0.00     0.225 C 
BRANCH  22  23
HETATM   23  C   UNL     1     -44.262  57.714 -54.550  1.00  0.00     0.239 C 
HETATM   24  N   UNL     1     -44.111  58.374 -55.759  1.00  0.00    -0.325 N 
HETATM   25  H   UNL     1     -43.766  59.326 -55.658  1.00  0.00     0.169 HD
HETATM   26  O   UNL     1     -45.040  56.793 -54.314  1.00  0.00    -0.271 OA
BRANCH  24  27
HETATM   27  C   UNL     1     -44.777  58.086 -56.976  1.00  0.00     0.041 C 
HETATM   28  C   UNL     1     -44.181  57.605 -58.164  1.00  0.00    -0.029 C 
HETATM   29  C   UNL     1     -42.687  57.548 -58.366  1.00  0.00     0.051 C 
HETATM   30  C   UNL     1     -45.016  57.208 -59.243  1.00  0.00    -0.054 C 
HETATM   31  C   UNL     1     -44.458  56.575 -60.493  1.00  0.00     0.049 C 
HETATM   32  C   UNL     1     -46.396  57.449 -59.185  1.00  0.00     0.007 C 
HETATM   33  C   UNL     1     -46.957  58.045 -58.067  1.00  0.00     0.003 C 
HETATM   34  C   UNL     1     -46.156  58.349 -56.969  1.00  0.00     0.030 C 
ENDBRANCH  24  27
ENDBRANCH  22  23
ENDBRANCH  19  22
ENDBRANCH   1  18
TORSDOF 10
ENDMDL
MODEL 6
REMARK VINA RESULT:      -7.8      2.513      7.016
REMARK  10 active torsions:
REMARK  status: ('A' for Active; 'I' for Inactive)
REMARK    1  A    between atoms: C_2  and  O_3 
REMARK    2  A    between atoms: O_3  and  C_4 
REMARK    3  A    between atoms: C_4  and  C_5 
REMARK    4  A    between atoms: C_6  and  C_7 
REMARK    5  A    between atoms: C_7  and  O_8 
REMARK    6  A    between atoms: O_8  and  C_9 
REMARK    7  A    between atoms: C_9  and  C_10 
REMARK       I    between atoms: C_10  and  N_11 
REMARK    8  A    between atoms: N_11  and  C_12 
REMARK    9  A    between atoms: C_12  and  C_13 
REMARK       I    between atoms: C_13  and  N_14 
REMARK   10  A    between atoms: N_14  and  C_15 
ROOT
HETATM    1  C   UNL     1     -42.534  59.998 -52.481  1.00  0.00     0.281 C 
ENDROOT
BRANCH   1   2
HETATM    2  O   UNL     1     -42.931  58.800 -51.827  1.00  0.00    -0.307 OA
BRANCH   2   3
HETATM    3  C   UNL     1     -41.904  58.096 -51.269  1.00  0.00     0.318 C 
HETATM    4  O   UNL     1     -41.211  58.514 -50.344  1.00  0.00    -0.257 OA
BRANCH   3   5
HETATM    5  C   UNL     1     -41.717  56.849 -51.978  1.00  0.00     0.160 A 
HETATM    6  C   UNL     1     -42.106  55.551 -51.668  1.00  0.00     0.018 A 
HETATM    7  C   UNL     1     -41.585  54.718 -52.706  1.00  0.00     0.009 A 
HETATM    8  C   UNL     1     -40.935  55.569 -53.590  1.00  0.00     0.087 A 
HETATM    9  C   UNL     1     -41.598  53.340 -52.999  1.00  0.00     0.015 A 
HETATM   10  O   UNL     1     -41.013  56.852 -53.155  1.00  0.00    -0.303 OA
HETATM   11  C   UNL     1     -40.292  55.152 -54.754  1.00  0.00     0.038 A 
HETATM   12  C   UNL     1     -40.315  53.781 -55.023  1.00  0.00     0.003 A 
HETATM   13  C   UNL     1     -40.955  52.887 -54.161  1.00  0.00     0.001 A 
BRANCH   6  14
HETATM   14  C   UNL     1     -42.934  55.131 -50.508  1.00  0.00     0.210 C 
BRANCH  14  15
HETATM   15  O   UNL     1     -42.175  54.279 -49.654  1.00  0.00    -0.387 OA
BRANCH  15  16
HETATM   16  C   UNL     1     -41.113  54.968 -49.004  1.00  0.00     0.163 C 
HETATM   17  C   UNL     1     -39.822  54.218 -49.266  1.00  0.00     0.033 C 
ENDBRANCH  15  16
ENDBRANCH  14  15
ENDBRANCH   6  14
ENDBRANCH   3   5
ENDBRANCH   2   3
ENDBRANCH   1   2
BRANCH   1  18
HETATM   18  C   UNL     1     -42.797  60.029 -53.991  1.00  0.00     0.242 C 
HETATM   19  N   UNL     1     -41.981  59.195 -54.729  1.00  0.00    -0.350 N 
HETATM   20  H   UNL     1     -41.204  58.718 -54.291  1.00  0.00     0.163 HD
HETATM   21  O   UNL     1     -43.660  60.736 -54.496  1.00  0.00    -0.271 OA
BRANCH  19  22
HETATM   22  C   UNL     1     -42.171  59.037 -56.163  1.00  0.00     0.225 C 
BRANCH  22  23
HETATM   23  C   UNL     1     -43.141  57.932 -56.603  1.00  0.00     0.239 C 
HETATM   24  N   UNL     1     -43.479  57.986 -57.946  1.00  0.00    -0.325 N 
HETATM   25  H   UNL     1     -43.492  58.933 -58.320  1.00  0.00     0.169 HD
HETATM   26  O   UNL     1     -43.468  57.058 -55.804  1.00  0.00    -0.271 OA
BRANCH  24  27
HETATM   27  C   UNL     1     -44.218  57.025 -58.679  1.00  0.00     0.041 C 
HETATM   28  C   UNL     1     -45.540  57.170 -59.155  1.00  0.00    -0.029 C 
HETATM   29  C   UNL     1     -46.440  58.308 -58.742  1.00  0.00     0.051 C 
HETATM   30  C   UNL     1     -46.076  56.175 -60.019  1.00  0.00    -0.054 C 
HETATM   31  C   UNL     1     -47.433  56.322 -60.661  1.00  0.00     0.049 C 
HETATM   32  C   UNL     1     -45.359  54.994 -60.254  1.00  0.00     0.007 C 
HETATM   33  C   UNL     1     -44.115  54.801 -59.673  1.00  0.00     0.003 C 
HETATM   34  C   UNL     1     -43.546  55.812 -58.903  1.00  0.00     0.030 C 
ENDBRANCH  24  27
ENDBRANCH  22  23
ENDBRANCH  19  22
ENDBRANCH   1  18
TORSDOF 10
ENDMDL
MODEL 7
REMARK VINA RESULT:      -7.7      2.502      7.455
REMARK  10 active torsions:
REMARK  status: ('A' for Active; 'I' for Inactive)
REMARK    1  A    between atoms: C_2  and  O_3 
REMARK    2  A    between atoms: O_3  and  C_4 
REMARK    3  A    between atoms: C_4  and  C_5 
REMARK    4  A    between atoms: C_6  and  C_7 
REMARK    5  A    between atoms: C_7  and  O_8 
REMARK    6  A    between atoms: O_8  and  C_9 
REMARK    7  A    between atoms: C_9  and  C_10 
REMARK       I    between atoms: C_10  and  N_11 
REMARK    8  A    between atoms: N_11  and  C_12 
REMARK    9  A    between atoms: C_12  and  C_13 
REMARK       I    between atoms: C_13  and  N_14 
REMARK   10  A    between atoms: N_14  and  C_15 
ROOT
HETATM    1  C   UNL     1     -41.169  59.082 -52.430  1.00  0.00     0.281 C 
ENDROOT
BRANCH   1   2
HETATM    2  O   UNL     1     -42.081  59.035 -51.341  1.00  0.00    -0.307 OA
BRANCH   2   3
HETATM    3  C   UNL     1     -43.011  58.041 -51.429  1.00  0.00     0.318 C 
HETATM    4  O   UNL     1     -44.214  58.241 -51.582  1.00  0.00    -0.257 OA
BRANCH   3   5
HETATM    5  C   UNL     1     -42.380  56.754 -51.232  1.00  0.00     0.160 A 
HETATM    6  C   UNL     1     -42.261  55.654 -52.073  1.00  0.00     0.018 A 
HETATM    7  C   UNL     1     -41.595  54.641 -51.316  1.00  0.00     0.009 A 
HETATM    8  C   UNL     1     -41.332  55.202 -50.074  1.00  0.00     0.087 A 
HETATM    9  C   UNL     1     -41.179  53.315 -51.547  1.00  0.00     0.015 A 
HETATM   10  O   UNL     1     -41.802  56.474 -50.020  1.00  0.00    -0.303 OA
HETATM   11  C   UNL     1     -40.680  54.542 -49.035  1.00  0.00     0.038 A 
HETATM   12  C   UNL     1     -40.278  53.226 -49.284  1.00  0.00     0.003 A 
HETATM   13  C   UNL     1     -40.525  52.620 -50.518  1.00  0.00     0.001 A 
BRANCH   6  14
HETATM   14  C   UNL     1     -42.706  55.573 -53.489  1.00  0.00     0.210 C 
BRANCH  14  15
HETATM   15  O   UNL     1     -41.606  55.827 -54.358  1.00  0.00    -0.387 OA
BRANCH  15  16
HETATM   16  C   UNL     1     -41.456  54.819 -55.352  1.00  0.00     0.163 C 
HETATM   17  C   UNL     1     -40.154  54.084 -55.098  1.00  0.00     0.033 C 
ENDBRANCH  15  16
ENDBRANCH  14  15
ENDBRANCH   6  14
ENDBRANCH   3   5
ENDBRANCH   2   3
ENDBRANCH   1   2
BRANCH   1  18
HETATM   18  C   UNL     1     -41.750  59.628 -53.739  1.00  0.00     0.242 C 
HETATM   19  N   UNL     1     -41.750  58.726 -54.784  1.00  0.00    -0.350 N 
HETATM   20  H   UNL     1     -41.280  57.835 -54.692  1.00  0.00     0.163 HD
HETATM   21  O   UNL     1     -42.180  60.771 -53.844  1.00  0.00    -0.271 OA
BRANCH  19  22
HETATM   22  C   UNL     1     -42.358  59.059 -56.063  1.00  0.00     0.225 C 
BRANCH  22  23
HETATM   23  C   UNL     1     -43.447  58.103 -56.568  1.00  0.00     0.239 C 
HETATM   24  N   UNL     1     -43.414  57.891 -57.937  1.00  0.00    -0.325 N 
HETATM   25  H   UNL     1     -43.081  58.697 -58.462  1.00  0.00     0.169 HD
HETATM   26  O   UNL     1     -44.184  57.542 -55.761  1.00  0.00    -0.271 OA
BRANCH  24  27
HETATM   27  C   UNL     1     -44.178  56.950 -58.673  1.00  0.00     0.041 C 
HETATM   28  C   UNL     1     -45.460  57.163 -59.228  1.00  0.00    -0.029 C 
HETATM   29  C   UNL     1     -46.300  58.374 -58.909  1.00  0.00     0.051 C 
HETATM   30  C   UNL     1     -46.015  56.170 -60.081  1.00  0.00    -0.054 C 
HETATM   31  C   UNL     1     -47.323  56.379 -60.802  1.00  0.00     0.049 C 
HETATM   32  C   UNL     1     -45.370  54.935 -60.230  1.00  0.00     0.007 C 
HETATM   33  C   UNL     1     -44.175  54.684 -59.574  1.00  0.00     0.003 C 
HETATM   34  C   UNL     1     -43.580  55.687 -58.812  1.00  0.00     0.030 C 
ENDBRANCH  24  27
ENDBRANCH  22  23
ENDBRANCH  19  22
ENDBRANCH   1  18
TORSDOF 10
ENDMDL
MODEL 8
REMARK VINA RESULT:      -7.6      1.551      3.277
REMARK  10 active torsions:
REMARK  status: ('A' for Active; 'I' for Inactive)
REMARK    1  A    between atoms: C_2  and  O_3 
REMARK    2  A    between atoms: O_3  and  C_4 
REMARK    3  A    between atoms: C_4  and  C_5 
REMARK    4  A    between atoms: C_6  and  C_7 
REMARK    5  A    between atoms: C_7  and  O_8 
REMARK    6  A    between atoms: O_8  and  C_9 
REMARK    7  A    between atoms: C_9  and  C_10 
REMARK       I    between atoms: C_10  and  N_11 
REMARK    8  A    between atoms: N_11  and  C_12 
REMARK    9  A    between atoms: C_12  and  C_13 
REMARK       I    between atoms: C_13  and  N_14 
REMARK   10  A    between atoms: N_14  and  C_15 
ROOT
HETATM    1  C   UNL     1     -42.958  58.791 -52.749  1.00  0.00     0.281 C 
ENDROOT
BRANCH   1   2
HETATM    2  O   UNL     1     -43.261  58.493 -54.104  1.00  0.00    -0.307 OA
BRANCH   2   3
HETATM    3  C   UNL     1     -42.277  58.827 -54.989  1.00  0.00     0.318 C 
HETATM    4  O   UNL     1     -41.311  59.531 -54.703  1.00  0.00    -0.257 OA
BRANCH   3   5
HETATM    5  C   UNL     1     -42.591  58.301 -56.300  1.00  0.00     0.160 A 
HETATM    6  C   UNL     1     -42.860  58.942 -57.503  1.00  0.00     0.018 A 
HETATM    7  C   UNL     1     -43.169  57.912 -58.445  1.00  0.00     0.009 A 
HETATM    8  C   UNL     1     -43.043  56.713 -57.756  1.00  0.00     0.087 A 
HETATM    9  C   UNL     1     -43.534  57.862 -59.804  1.00  0.00     0.015 A 
HETATM   10  O   UNL     1     -42.694  56.943 -56.465  1.00  0.00    -0.303 OA
HETATM   11  C   UNL     1     -43.251  55.457 -58.320  1.00  0.00     0.038 A 
HETATM   12  C   UNL     1     -43.615  55.430 -59.670  1.00  0.00     0.003 A 
HETATM   13  C   UNL     1     -43.757  56.611 -60.401  1.00  0.00     0.001 A 
BRANCH   6  14
HETATM   14  C   UNL     1     -42.798  60.405 -57.758  1.00  0.00     0.210 C 
BRANCH  14  15
HETATM   15  O   UNL     1     -41.757  60.691 -58.688  1.00  0.00    -0.387 OA
BRANCH  15  16
HETATM   16  C   UNL     1     -40.864  61.691 -58.212  1.00  0.00     0.163 C 
HETATM   17  C   UNL     1     -40.288  62.429 -59.405  1.00  0.00     0.033 C 
ENDBRANCH  15  16
ENDBRANCH  14  15
ENDBRANCH   6  14
ENDBRANCH   3   5
ENDBRANCH   2   3
ENDBRANCH   1   2
BRANCH   1  18
HETATM   18  C   UNL     1     -43.010  57.593 -51.794  1.00  0.00     0.242 C 
HETATM   19  N   UNL     1     -41.789  56.992 -51.565  1.00  0.00    -0.350 N 
HETATM   20  H   UNL     1     -40.974  57.266 -52.099  1.00  0.00     0.163 HD
HETATM   21  O   UNL     1     -44.052  57.204 -51.279  1.00  0.00    -0.271 OA
BRANCH  19  22
HETATM   22  C   UNL     1     -41.655  55.905 -50.608  1.00  0.00     0.225 C 
BRANCH  22  23
HETATM   23  C   UNL     1     -41.734  54.482 -51.178  1.00  0.00     0.239 C 
HETATM   24  N   UNL     1     -40.499  53.880 -51.354  1.00  0.00    -0.325 N 
HETATM   25  H   UNL     1     -39.758  54.540 -51.581  1.00  0.00     0.169 HD
HETATM   26  O   UNL     1     -42.832  53.956 -51.347  1.00  0.00    -0.271 OA
BRANCH  24  27
HETATM   27  C   UNL     1     -40.251  52.530 -51.709  1.00  0.00     0.041 C 
HETATM   28  C   UNL     1     -40.145  52.014 -53.019  1.00  0.00    -0.029 C 
HETATM   29  C   UNL     1     -40.517  52.810 -54.246  1.00  0.00     0.051 C 
HETATM   30  C   UNL     1     -39.726  50.667 -53.199  1.00  0.00    -0.054 C 
HETATM   31  C   UNL     1     -39.477  50.085 -54.567  1.00  0.00     0.049 C 
HETATM   32  C   UNL     1     -39.583  49.825 -52.088  1.00  0.00     0.007 C 
HETATM   33  C   UNL     1     -39.818  50.305 -50.809  1.00  0.00     0.003 C 
HETATM   34  C   UNL     1     -40.137  51.648 -50.622  1.00  0.00     0.030 C 
ENDBRANCH  24  27
ENDBRANCH  22  23
ENDBRANCH  19  22
ENDBRANCH   1  18
TORSDOF 10
ENDMDL
MODEL 9
REMARK VINA RESULT:      -7.6      1.823      3.962
REMARK  10 active torsions:
REMARK  status: ('A' for Active; 'I' for Inactive)
REMARK    1  A    between atoms: C_2  and  O_3 
REMARK    2  A    between atoms: O_3  and  C_4 
REMARK    3  A    between atoms: C_4  and  C_5 
REMARK    4  A    between atoms: C_6  and  C_7 
REMARK    5  A    between atoms: C_7  and  O_8 
REMARK    6  A    between atoms: O_8  and  C_9 
REMARK    7  A    between atoms: C_9  and  C_10 
REMARK       I    between atoms: C_10  and  N_11 
REMARK    8  A    between atoms: N_11  and  C_12 
REMARK    9  A    between atoms: C_12  and  C_13 
REMARK       I    between atoms: C_13  and  N_14 
REMARK   10  A    between atoms: N_14  and  C_15 
ROOT
HETATM    1  C   UNL     1     -42.354  59.913 -53.418  1.00  0.00     0.281 C 
ENDROOT
BRANCH   1   2
HETATM    2  O   UNL     1     -41.608  59.948 -54.627  1.00  0.00    -0.307 OA
BRANCH   2   3
HETATM    3  C   UNL     1     -42.284  60.471 -55.691  1.00  0.00     0.318 C 
HETATM    4  O   UNL     1     -42.837  61.568 -55.678  1.00  0.00    -0.257 OA
BRANCH   3   5
HETATM    5  C   UNL     1     -42.313  59.514 -56.776  1.00  0.00     0.160 A 
HETATM    6  C   UNL     1     -42.083  59.667 -58.138  1.00  0.00     0.018 A 
HETATM    7  C   UNL     1     -42.321  58.388 -58.731  1.00  0.00     0.009 A 
HETATM    8  C   UNL     1     -42.655  57.538 -57.685  1.00  0.00     0.087 A 
HETATM    9  C   UNL     1     -42.282  57.855 -60.034  1.00  0.00     0.015 A 
HETATM   10  O   UNL     1     -42.650  58.212 -56.507  1.00  0.00    -0.303 OA
HETATM   11  C   UNL     1     -42.954  56.186 -57.836  1.00  0.00     0.038 A 
HETATM   12  C   UNL     1     -42.914  55.678 -59.138  1.00  0.00     0.003 A 
HETATM   13  C   UNL     1     -42.586  56.497 -60.221  1.00  0.00     0.001 A 
BRANCH   6  14
HETATM   14  C   UNL     1     -41.641  60.909 -58.825  1.00  0.00     0.210 C 
BRANCH  14  15
HETATM   15  O   UNL     1     -40.464  61.415 -58.201  1.00  0.00    -0.387 OA
BRANCH  15  16
HETATM   16  C   UNL     1     -40.253  62.795 -58.478  1.00  0.00     0.163 C 
HETATM   17  C   UNL     1     -39.577  62.916 -59.829  1.00  0.00     0.033 C 
ENDBRANCH  15  16
ENDBRANCH  14  15
ENDBRANCH   6  14
ENDBRANCH   3   5
ENDBRANCH   2   3
ENDBRANCH   1   2
BRANCH   1  18
HETATM   18  C   UNL     1     -41.911  58.842 -52.415  1.00  0.00     0.242 C 
HETATM   19  N   UNL     1     -42.948  58.145 -51.828  1.00  0.00    -0.350 N 
HETATM   20  H   UNL     1     -43.907  58.433 -51.975  1.00  0.00     0.163 HD
HETATM   21  O   UNL     1     -40.732  58.624 -52.159  1.00  0.00    -0.271 OA
BRANCH  19  22
HETATM   22  C   UNL     1     -42.691  57.031 -50.930  1.00  0.00     0.225 C 
BRANCH  22  23
HETATM   23  C   UNL     1     -42.500  55.656 -51.587  1.00  0.00     0.239 C 
HETATM   24  N   UNL     1     -41.205  55.417 -52.017  1.00  0.00    -0.325 N 
HETATM   25  H   UNL     1     -40.717  56.258 -52.315  1.00  0.00     0.169 HD
HETATM   26  O   UNL     1     -43.434  54.859 -51.606  1.00  0.00    -0.271 OA
BRANCH  24  27
HETATM   27  C   UNL     1     -40.683  54.195 -52.512  1.00  0.00     0.041 C 
HETATM   28  C   UNL     1     -40.222  53.107 -51.738  1.00  0.00    -0.029 C 
HETATM   29  C   UNL     1     -40.010  53.193 -50.247  1.00  0.00     0.051 C 
HETATM   30  C   UNL     1     -39.887  51.889 -52.391  1.00  0.00    -0.054 C 
HETATM   31  C   UNL     1     -39.503  50.650 -51.621  1.00  0.00     0.049 C 
HETATM   32  C   UNL     1     -39.858  51.831 -53.791  1.00  0.00     0.007 C 
HETATM   33  C   UNL     1     -40.184  52.947 -54.546  1.00  0.00     0.003 C 
HETATM   34  C   UNL     1     -40.604  54.113 -53.912  1.00  0.00     0.030 C 
ENDBRANCH  24  27
ENDBRANCH  22  23
ENDBRANCH  19  22
ENDBRANCH   1  18
TORSDOF 10
ENDMDL
MODEL 10
REMARK VINA RESULT:      -7.4      2.871      7.376
REMARK  10 active torsions:
REMARK  status: ('A' for Active; 'I' for Inactive)
REMARK    1  A    between atoms: C_2  and  O_3 
REMARK    2  A    between atoms: O_3  and  C_4 
REMARK    3  A    between atoms: C_4  and  C_5 
REMARK    4  A    between atoms: C_6  and  C_7 
REMARK    5  A    between atoms: C_7  and  O_8 
REMARK    6  A    between atoms: O_8  and  C_9 
REMARK    7  A    between atoms: C_9  and  C_10 
REMARK       I    between atoms: C_10  and  N_11 
REMARK    8  A    between atoms: N_11  and  C_12 
REMARK    9  A    between atoms: C_12  and  C_13 
REMARK       I    between atoms: C_13  and  N_14 
REMARK   10  A    between atoms: N_14  and  C_15 
ROOT
HETATM    1  C   UNL     1     -42.862  55.431 -57.192  1.00  0.00     0.281 C 
ENDROOT
BRANCH   1   2
HETATM    2  O   UNL     1     -42.081  55.104 -56.051  1.00  0.00    -0.307 OA
BRANCH   2   3
HETATM    3  C   UNL     1     -42.799  54.955 -54.900  1.00  0.00     0.318 C 
HETATM    4  O   UNL     1     -43.811  54.263 -54.810  1.00  0.00    -0.257 OA
BRANCH   3   5
HETATM    5  C   UNL     1     -42.240  55.788 -53.857  1.00  0.00     0.160 A 
HETATM    6  C   UNL     1     -42.375  55.737 -52.475  1.00  0.00     0.018 A 
HETATM    7  C   UNL     1     -41.649  56.856 -51.961  1.00  0.00     0.009 A 
HETATM    8  C   UNL     1     -41.103  57.497 -53.064  1.00  0.00     0.087 A 
HETATM    9  C   UNL     1     -41.389  57.393 -50.685  1.00  0.00     0.015 A 
HETATM   10  O   UNL     1     -41.456  56.856 -54.207  1.00  0.00    -0.303 OA
HETATM   11  C   UNL     1     -40.309  58.640 -52.997  1.00  0.00     0.038 A 
HETATM   12  C   UNL     1     -40.066  59.158 -51.721  1.00  0.00     0.003 A 
HETATM   13  C   UNL     1     -40.597  58.547 -50.583  1.00  0.00     0.001 A 
BRANCH   6  14
HETATM   14  C   UNL     1     -43.097  54.699 -51.695  1.00  0.00     0.210 C 
BRANCH  14  15
HETATM   15  O   UNL     1     -42.203  54.069 -50.781  1.00  0.00    -0.387 OA
BRANCH  15  16
HETATM   16  C   UNL     1     -41.198  53.308 -51.441  1.00  0.00     0.163 C 
HETATM   17  C   UNL     1     -39.872  53.563 -50.753  1.00  0.00     0.033 C 
ENDBRANCH  15  16
ENDBRANCH  14  15
ENDBRANCH   6  14
ENDBRANCH   3   5
ENDBRANCH   2   3
ENDBRANCH   1   2
BRANCH   1  18
HETATM   18  C   UNL     1     -43.180  56.922 -57.352  1.00  0.00     0.242 C 
HETATM   19  N   UNL     1     -44.469  57.272 -57.005  1.00  0.00    -0.350 N 
HETATM   20  H   UNL     1     -45.153  56.558 -56.791  1.00  0.00     0.163 HD
HETATM   21  O   UNL     1     -42.354  57.734 -57.756  1.00  0.00    -0.271 OA
BRANCH  19  22
HETATM   22  C   UNL     1     -44.896  58.662 -57.007  1.00  0.00     0.225 C 
BRANCH  22  23
HETATM   23  C   UNL     1     -45.126  59.306 -55.633  1.00  0.00     0.239 C 
HETATM   24  N   UNL     1     -44.464  58.666 -54.597  1.00  0.00    -0.325 N 
HETATM   25  H   UNL     1     -44.363  57.664 -54.742  1.00  0.00     0.169 HD
HETATM   26  O   UNL     1     -45.772  60.347 -55.551  1.00  0.00    -0.271 OA
BRANCH  24  27
HETATM   27  C   UNL     1     -44.351  59.108 -53.255  1.00  0.00     0.041 C 
HETATM   28  C   UNL     1     -43.646  60.246 -52.805  1.00  0.00    -0.029 C 
HETATM   29  C   UNL     1     -42.711  61.033 -53.688  1.00  0.00     0.051 C 
HETATM   30  C   UNL     1     -43.773  60.643 -51.445  1.00  0.00    -0.054 C 
HETATM   31  C   UNL     1     -43.147  61.911 -50.923  1.00  0.00     0.049 C 
HETATM   32  C   UNL     1     -44.453  59.820 -50.537  1.00  0.00     0.007 C 
HETATM   33  C   UNL     1     -45.030  58.634 -50.962  1.00  0.00     0.003 C 
HETATM   34  C   UNL     1     -44.990  58.288 -52.310  1.00  0.00     0.030 C 
ENDBRANCH  24  27
ENDBRANCH  22  23
ENDBRANCH  19  22
ENDBRANCH   1  18
TORSDOF 10
ENDMDL
