MODEL 1
REMARK VINA RESULT:      -9.3      0.000      0.000
REMARK  4 active torsions:
REMARK  status: ('A' for Active; 'I' for Inactive)
REMARK    1  A    between atoms: C_5  and  C_6 
REMARK    2  A    between atoms: C_6  and  N_7 
REMARK       I    between atoms: N_7  and  C_8 
REMARK    3  A    between atoms: C_8  and  C_10 
REMARK    4  A    between atoms: C_16  and  C_20 
ROOT
HETATM    1  C   UNL     1     -41.431  56.768 -53.674  1.00  0.00     0.059 A 
HETATM    2  C   UNL     1     -41.667  56.978 -52.325  1.00  0.00     0.106 A 
HETATM    3  N   UNL     1     -41.442  55.813 -51.651  1.00  0.00    -0.364 N 
HETATM    4  H   UNL     1     -41.547  55.687 -50.654  1.00  0.00     0.165 HD
HETATM    5  C   UNL     1     -41.028  54.835 -52.525  1.00  0.00     0.044 A 
HETATM    6  C   UNL     1     -40.682  53.499 -52.271  1.00  0.00     0.042 A 
HETATM    7  C   UNL     1     -40.248  52.703 -53.342  1.00  0.00    -0.021 A 
HETATM    8  C   UNL     1     -40.166  53.262 -54.622  1.00  0.00     0.013 A 
HETATM    9  C   UNL     1     -40.519  54.600 -54.860  1.00  0.00     0.016 A 
HETATM   10  C   UNL     1     -40.981  55.407 -53.799  1.00  0.00     0.008 A 
ENDROOT
BRANCH   1  11
HETATM   11  C   UNL     1     -41.617  57.810 -54.682  1.00  0.00     0.254 C 
HETATM   12  N   UNL     1     -42.239  57.394 -55.835  1.00  0.00    -0.353 N 
HETATM   13  H   UNL     1     -42.603  56.454 -55.879  1.00  0.00     0.163 HD
HETATM   14  O   UNL     1     -41.294  58.977 -54.483  1.00  0.00    -0.268 OA
BRANCH  12  15
HETATM   15  C   UNL     1     -42.535  58.303 -56.912  1.00  0.00     0.161 C 
BRANCH  15  16
HETATM   16  C   UNL     1     -43.126  57.576 -58.094  1.00  0.00    -0.037 A 
HETATM   17  C   UNL     1     -43.398  58.269 -59.286  1.00  0.00     0.012 A 
HETATM   18  C   UNL     1     -43.935  57.602 -60.392  1.00  0.00     0.046 A 
HETATM   19  C   UNL     1     -44.190  56.238 -60.310  1.00  0.00     0.154 A 
HETATM   20  F   UNL     1     -44.706  55.601 -61.370  1.00  0.00    -0.203 F 
HETATM   21  C   UNL     1     -43.911  55.540 -59.141  1.00  0.00     0.155 A 
HETATM   22  C   UNL     1     -43.379  56.197 -58.035  1.00  0.00     0.054 A 
HETATM   23  F   UNL     1     -44.152  54.224 -59.068  1.00  0.00    -0.203 F 
ENDBRANCH  15  16
ENDBRANCH  12  15
ENDBRANCH   1  11
BRANCH   7  24
HETATM   24  C   UNL     1     -39.886  51.314 -53.107  1.00  0.00     0.010 A 
HETATM   25  C   UNL     1     -39.764  50.226 -54.004  1.00  0.00     0.152 A 
HETATM   26  N   UNL     1     -39.423  49.087 -53.395  1.00  0.00    -0.187 NA
HETATM   27  N   UNL     1     -39.329  49.438 -52.104  1.00  0.00    -0.289 N 
HETATM   28  H   UNL     1     -39.082  48.724 -51.428  1.00  0.00     0.188 HD
HETATM   29  C   UNL     1     -39.596  50.758 -51.879  1.00  0.00     0.123 A 
ENDBRANCH   7  24
TORSDOF 4
ENDMDL
MODEL 2
REMARK VINA RESULT:      -9.0      3.650      7.793
REMARK  4 active torsions:
REMARK  status: ('A' for Active; 'I' for Inactive)
REMARK    1  A    between atoms: C_5  and  C_6 
REMARK    2  A    between atoms: C_6  and  N_7 
REMARK       I    between atoms: N_7  and  C_8 
REMARK    3  A    between atoms: C_8  and  C_10 
REMARK    4  A    between atoms: C_16  and  C_20 
ROOT
HETATM    1  C   UNL     1     -41.751  56.867 -53.953  1.00  0.00     0.059 A 
HETATM    2  C   UNL     1     -41.701  58.228 -54.202  1.00  0.00     0.106 A 
HETATM    3  N   UNL     1     -42.127  58.460 -55.477  1.00  0.00    -0.364 N 
HETATM    4  H   UNL     1     -42.183  59.368 -55.917  1.00  0.00     0.165 HD
HETATM    5  C   UNL     1     -42.492  57.276 -56.075  1.00  0.00     0.044 A 
HETATM    6  C   UNL     1     -42.990  57.044 -57.367  1.00  0.00     0.042 A 
HETATM    7  C   UNL     1     -43.329  55.732 -57.729  1.00  0.00    -0.021 A 
HETATM    8  C   UNL     1     -43.170  54.701 -56.797  1.00  0.00     0.013 A 
HETATM    9  C   UNL     1     -42.667  54.949 -55.510  1.00  0.00     0.016 A 
HETATM   10  C   UNL     1     -42.297  56.259 -55.137  1.00  0.00     0.008 A 
ENDROOT
BRANCH   1  11
HETATM   11  C   UNL     1     -41.324  56.277 -52.686  1.00  0.00     0.254 C 
HETATM   12  N   UNL     1     -41.114  54.919 -52.722  1.00  0.00    -0.353 N 
HETATM   13  H   UNL     1     -41.172  54.441 -53.608  1.00  0.00     0.163 HD
HETATM   14  O   UNL     1     -41.114  56.956 -51.686  1.00  0.00    -0.268 OA
BRANCH  12  15
HETATM   15  C   UNL     1     -40.653  54.188 -51.570  1.00  0.00     0.161 C 
BRANCH  15  16
HETATM   16  C   UNL     1     -40.275  52.774 -51.935  1.00  0.00    -0.037 A 
HETATM   17  C   UNL     1     -40.192  52.391 -53.286  1.00  0.00     0.012 A 
HETATM   18  C   UNL     1     -39.832  51.087 -53.636  1.00  0.00     0.046 A 
HETATM   19  C   UNL     1     -39.543  50.165 -52.636  1.00  0.00     0.154 A 
HETATM   20  F   UNL     1     -39.199  48.915 -52.974  1.00  0.00    -0.203 F 
HETATM   21  C   UNL     1     -39.608  50.537 -51.298  1.00  0.00     0.155 A 
HETATM   22  C   UNL     1     -39.968  51.834 -50.941  1.00  0.00     0.054 A 
HETATM   23  F   UNL     1     -39.322  49.648 -50.337  1.00  0.00    -0.203 F 
ENDBRANCH  15  16
ENDBRANCH  12  15
ENDBRANCH   1  11
BRANCH   7  24
HETATM   24  C   UNL     1     -43.845  55.463 -59.062  1.00  0.00     0.010 A 
HETATM   25  C   UNL     1     -43.925  56.292 -60.206  1.00  0.00     0.152 A 
HETATM   26  N   UNL     1     -44.487  55.680 -61.253  1.00  0.00    -0.187 NA
HETATM   27  N   UNL     1     -44.773  54.457 -60.783  1.00  0.00    -0.289 N 
HETATM   28  H   UNL     1     -45.220  53.794 -61.407  1.00  0.00     0.188 HD
HETATM   29  C   UNL     1     -44.409  54.276 -59.480  1.00  0.00     0.123 A 
ENDBRANCH   7  24
TORSDOF 4
ENDMDL
MODEL 3
REMARK VINA RESULT:      -8.9      3.551      7.925
REMARK  4 active torsions:
REMARK  status: ('A' for Active; 'I' for Inactive)
REMARK    1  A    between atoms: C_5  and  C_6 
REMARK    2  A    between atoms: C_6  and  N_7 
REMARK       I    between atoms: N_7  and  C_8 
REMARK    3  A    between atoms: C_8  and  C_10 
REMARK    4  A    between atoms: C_16  and  C_20 
ROOT
HETATM    1  C   UNL     1     -43.223  55.711 -52.667  1.00  0.00     0.059 A 
HETATM    2  C   UNL     1     -43.968  56.852 -52.422  1.00  0.00     0.106 A 
HETATM    3  N   UNL     1     -44.218  57.480 -53.607  1.00  0.00    -0.364 N 
HETATM    4  H   UNL     1     -44.737  58.341 -53.712  1.00  0.00     0.165 HD
HETATM    5  C   UNL     1     -43.678  56.759 -54.646  1.00  0.00     0.044 A 
HETATM    6  C   UNL     1     -43.699  57.025 -56.024  1.00  0.00     0.042 A 
HETATM    7  C   UNL     1     -43.101  56.101 -56.894  1.00  0.00    -0.021 A 
HETATM    8  C   UNL     1     -42.512  54.946 -56.369  1.00  0.00     0.013 A 
HETATM    9  C   UNL     1     -42.497  54.696 -54.988  1.00  0.00     0.016 A 
HETATM   10  C   UNL     1     -43.071  55.627 -54.096  1.00  0.00     0.008 A 
ENDROOT
BRANCH   1  11
HETATM   11  C   UNL     1     -42.754  54.826 -51.603  1.00  0.00     0.254 C 
HETATM   12  N   UNL     1     -41.390  54.669 -51.541  1.00  0.00    -0.353 N 
HETATM   13  H   UNL     1     -40.808  55.225 -52.149  1.00  0.00     0.163 HD
HETATM   14  O   UNL     1     -43.520  54.315 -50.792  1.00  0.00    -0.268 OA
BRANCH  12  15
HETATM   15  C   UNL     1     -40.760  53.863 -50.526  1.00  0.00     0.161 C 
BRANCH  15  16
HETATM   16  C   UNL     1     -40.322  52.531 -51.081  1.00  0.00    -0.037 A 
HETATM   17  C   UNL     1     -40.261  51.403 -50.244  1.00  0.00     0.012 A 
HETATM   18  C   UNL     1     -39.868  50.161 -50.750  1.00  0.00     0.046 A 
HETATM   19  C   UNL     1     -39.545  50.042 -52.097  1.00  0.00     0.154 A 
HETATM   20  F   UNL     1     -39.168  48.850 -52.580  1.00  0.00    -0.203 F 
HETATM   21  C   UNL     1     -39.616  51.147 -52.936  1.00  0.00     0.155 A 
HETATM   22  C   UNL     1     -40.005  52.389 -52.439  1.00  0.00     0.054 A 
HETATM   23  F   UNL     1     -39.311  51.028 -54.235  1.00  0.00    -0.203 F 
ENDBRANCH  15  16
ENDBRANCH  12  15
ENDBRANCH   1  11
BRANCH   7  24
HETATM   24  C   UNL     1     -43.106  56.354 -58.327  1.00  0.00     0.010 A 
HETATM   25  C   UNL     1     -43.666  55.613 -59.394  1.00  0.00     0.152 A 
HETATM   26  N   UNL     1     -43.443  56.171 -60.588  1.00  0.00    -0.187 NA
HETATM   27  N   UNL     1     -42.733  57.270 -60.291  1.00  0.00    -0.289 N 
HETATM   28  H   UNL     1     -42.434  57.870 -61.052  1.00  0.00     0.188 HD
HETATM   29  C   UNL     1     -42.506  57.426 -58.954  1.00  0.00     0.123 A 
ENDBRANCH   7  24
TORSDOF 4
ENDMDL
MODEL 4
REMARK VINA RESULT:      -8.8      1.788      2.382
REMARK  4 active torsions:
REMARK  status: ('A' for Active; 'I' for Inactive)
REMARK    1  A    between atoms: C_5  and  C_6 
REMARK    2  A    between atoms: C_6  and  N_7 
REMARK       I    between atoms: N_7  and  C_8 
REMARK    3  A    between atoms: C_8  and  C_10 
REMARK    4  A    between atoms: C_16  and  C_20 
ROOT
HETATM    1  C   UNL     1     -41.200  57.204 -53.015  1.00  0.00     0.059 A 
HETATM    2  C   UNL     1     -41.466  57.160 -51.656  1.00  0.00     0.106 A 
HETATM    3  N   UNL     1     -41.348  55.871 -51.224  1.00  0.00    -0.364 N 
HETATM    4  H   UNL     1     -41.496  55.559 -50.274  1.00  0.00     0.165 HD
HETATM    5  C   UNL     1     -40.978  55.056 -52.268  1.00  0.00     0.044 A 
HETATM    6  C   UNL     1     -40.738  53.673 -52.279  1.00  0.00     0.042 A 
HETATM    7  C   UNL     1     -40.327  53.073 -53.480  1.00  0.00    -0.021 A 
HETATM    8  C   UNL     1     -40.162  53.866 -54.620  1.00  0.00     0.013 A 
HETATM    9  C   UNL     1     -40.409  55.248 -54.593  1.00  0.00     0.016 A 
HETATM   10  C   UNL     1     -40.847  55.863 -53.401  1.00  0.00     0.008 A 
ENDROOT
BRANCH   1  11
HETATM   11  C   UNL     1     -41.276  58.435 -53.798  1.00  0.00     0.254 C 
HETATM   12  N   UNL     1     -42.233  58.434 -54.785  1.00  0.00    -0.353 N 
HETATM   13  H   UNL     1     -42.866  57.652 -54.848  1.00  0.00     0.163 HD
HETATM   14  O   UNL     1     -40.577  59.412 -53.549  1.00  0.00    -0.268 OA
BRANCH  12  15
HETATM   15  C   UNL     1     -42.466  59.584 -55.622  1.00  0.00     0.161 C 
BRANCH  15  16
HETATM   16  C   UNL     1     -42.292  59.242 -57.080  1.00  0.00    -0.037 A 
HETATM   17  C   UNL     1     -42.390  57.907 -57.510  1.00  0.00     0.012 A 
HETATM   18  C   UNL     1     -42.243  57.580 -58.861  1.00  0.00     0.046 A 
HETATM   19  C   UNL     1     -42.006  58.590 -59.787  1.00  0.00     0.154 A 
HETATM   20  F   UNL     1     -41.863  58.275 -61.081  1.00  0.00    -0.203 F 
HETATM   21  C   UNL     1     -41.921  59.915 -59.375  1.00  0.00     0.155 A 
HETATM   22  C   UNL     1     -42.065  60.248 -58.030  1.00  0.00     0.054 A 
HETATM   23  F   UNL     1     -41.700  60.886 -60.271  1.00  0.00    -0.203 F 
ENDBRANCH  15  16
ENDBRANCH  12  15
ENDBRANCH   1  11
BRANCH   7  24
HETATM   24  C   UNL     1     -40.076  51.641 -53.520  1.00  0.00     0.010 A 
HETATM   25  C   UNL     1     -40.214  50.708 -54.575  1.00  0.00     0.152 A 
HETATM   26  N   UNL     1     -39.896  49.462 -54.211  1.00  0.00    -0.187 NA
HETATM   27  N   UNL     1     -39.556  49.591 -52.919  1.00  0.00    -0.289 N 
HETATM   28  H   UNL     1     -39.275  48.759 -52.411  1.00  0.00     0.188 HD
HETATM   29  C   UNL     1     -39.646  50.873 -52.459  1.00  0.00     0.123 A 
ENDBRANCH   7  24
TORSDOF 4
ENDMDL
MODEL 5
REMARK VINA RESULT:      -8.6      1.751      1.849
REMARK  4 active torsions:
REMARK  status: ('A' for Active; 'I' for Inactive)
REMARK    1  A    between atoms: C_5  and  C_6 
REMARK    2  A    between atoms: C_6  and  N_7 
REMARK       I    between atoms: N_7  and  C_8 
REMARK    3  A    between atoms: C_8  and  C_10 
REMARK    4  A    between atoms: C_16  and  C_20 
ROOT
HETATM    1  C   UNL     1     -41.460  56.891 -53.434  1.00  0.00     0.059 A 
HETATM    2  C   UNL     1     -41.648  57.004 -52.066  1.00  0.00     0.106 A 
HETATM    3  N   UNL     1     -41.404  55.794 -51.485  1.00  0.00    -0.364 N 
HETATM    4  H   UNL     1     -41.475  55.598 -50.496  1.00  0.00     0.165 HD
HETATM    5  C   UNL     1     -41.025  54.880 -52.439  1.00  0.00     0.044 A 
HETATM    6  C   UNL     1     -40.675  53.529 -52.293  1.00  0.00     0.042 A 
HETATM    7  C   UNL     1     -40.281  52.811 -53.433  1.00  0.00    -0.021 A 
HETATM    8  C   UNL     1     -40.242  53.459 -54.671  1.00  0.00     0.013 A 
HETATM    9  C   UNL     1     -40.598  54.810 -54.802  1.00  0.00     0.016 A 
HETATM   10  C   UNL     1     -41.020  55.541 -53.670  1.00  0.00     0.008 A 
ENDROOT
BRANCH   1  11
HETATM   11  C   UNL     1     -41.677  58.001 -54.358  1.00  0.00     0.254 C 
HETATM   12  N   UNL     1     -42.634  57.775 -55.319  1.00  0.00    -0.353 N 
HETATM   13  H   UNL     1     -43.177  56.927 -55.274  1.00  0.00     0.163 HD
HETATM   14  O   UNL     1     -41.089  59.072 -54.244  1.00  0.00    -0.268 OA
BRANCH  12  15
HETATM   15  C   UNL     1     -42.999  58.781 -56.283  1.00  0.00     0.161 C 
BRANCH  15  16
HETATM   16  C   UNL     1     -44.122  58.305 -57.170  1.00  0.00    -0.037 A 
HETATM   17  C   UNL     1     -43.844  57.513 -58.298  1.00  0.00     0.012 A 
HETATM   18  C   UNL     1     -44.878  57.057 -59.121  1.00  0.00     0.046 A 
HETATM   19  C   UNL     1     -46.194  57.384 -58.811  1.00  0.00     0.154 A 
HETATM   20  F   UNL     1     -47.183  56.947 -59.601  1.00  0.00    -0.203 F 
HETATM   21  C   UNL     1     -46.480  58.154 -57.690  1.00  0.00     0.155 A 
HETATM   22  C   UNL     1     -45.455  58.614 -56.867  1.00  0.00     0.054 A 
HETATM   23  F   UNL     1     -47.749  58.460 -57.390  1.00  0.00    -0.203 F 
ENDBRANCH  15  16
ENDBRANCH  12  15
ENDBRANCH   1  11
BRANCH   7  24
HETATM   24  C   UNL     1     -39.917  51.408 -53.309  1.00  0.00     0.010 A 
HETATM   25  C   UNL     1     -39.812  50.390 -54.287  1.00  0.00     0.152 A 
HETATM   26  N   UNL     1     -39.462  49.208 -53.772  1.00  0.00    -0.187 NA
HETATM   27  N   UNL     1     -39.344  49.462 -52.460  1.00  0.00    -0.289 N 
HETATM   28  H   UNL     1     -39.085  48.699 -51.844  1.00  0.00     0.188 HD
HETATM   29  C   UNL     1     -39.605  50.761 -52.131  1.00  0.00     0.123 A 
ENDBRANCH   7  24
TORSDOF 4
ENDMDL
MODEL 6
REMARK VINA RESULT:      -8.1      1.814      2.298
REMARK  4 active torsions:
REMARK  status: ('A' for Active; 'I' for Inactive)
REMARK    1  A    between atoms: C_5  and  C_6 
REMARK    2  A    between atoms: C_6  and  N_7 
REMARK       I    between atoms: N_7  and  C_8 
REMARK    3  A    between atoms: C_8  and  C_10 
REMARK    4  A    between atoms: C_16  and  C_20 
ROOT
HETATM    1  C   UNL     1     -43.455  57.112 -54.316  1.00  0.00     0.059 A 
HETATM    2  C   UNL     1     -43.030  57.806 -53.196  1.00  0.00     0.106 A 
HETATM    3  N   UNL     1     -42.200  57.005 -52.468  1.00  0.00    -0.364 N 
HETATM    4  H   UNL     1     -41.755  57.264 -51.598  1.00  0.00     0.165 HD
HETATM    5  C   UNL     1     -42.038  55.795 -53.100  1.00  0.00     0.044 A 
HETATM    6  C   UNL     1     -41.272  54.682 -52.718  1.00  0.00     0.042 A 
HETATM    7  C   UNL     1     -41.241  53.566 -53.567  1.00  0.00    -0.021 A 
HETATM    8  C   UNL     1     -41.960  53.596 -54.766  1.00  0.00     0.013 A 
HETATM    9  C   UNL     1     -42.723  54.716 -55.133  1.00  0.00     0.016 A 
HETATM   10  C   UNL     1     -42.787  55.837 -54.279  1.00  0.00     0.008 A 
ENDROOT
BRANCH   1  11
HETATM   11  C   UNL     1     -44.387  57.674 -55.291  1.00  0.00     0.254 C 
HETATM   12  N   UNL     1     -43.938  57.670 -56.590  1.00  0.00    -0.353 N 
HETATM   13  H   UNL     1     -43.065  57.212 -56.801  1.00  0.00     0.163 HD
HETATM   14  O   UNL     1     -45.508  58.062 -54.975  1.00  0.00    -0.268 OA
BRANCH  12  15
HETATM   15  C   UNL     1     -44.749  58.151 -57.679  1.00  0.00     0.161 C 
BRANCH  15  16
HETATM   16  C   UNL     1     -44.811  57.144 -58.800  1.00  0.00    -0.037 A 
HETATM   17  C   UNL     1     -43.740  56.259 -59.014  1.00  0.00     0.012 A 
HETATM   18  C   UNL     1     -43.792  55.314 -60.043  1.00  0.00     0.046 A 
HETATM   19  C   UNL     1     -44.919  55.246 -60.854  1.00  0.00     0.154 A 
HETATM   20  F   UNL     1     -44.966  54.341 -61.840  1.00  0.00    -0.203 F 
HETATM   21  C   UNL     1     -45.989  56.107 -60.641  1.00  0.00     0.155 A 
HETATM   22  C   UNL     1     -45.945  57.053 -59.620  1.00  0.00     0.054 A 
HETATM   23  F   UNL     1     -47.077  56.034 -61.420  1.00  0.00    -0.203 F 
ENDBRANCH  15  16
ENDBRANCH  12  15
ENDBRANCH   1  11
BRANCH   7  24
HETATM   24  C   UNL     1     -40.458  52.398 -53.193  1.00  0.00     0.010 A 
HETATM   25  C   UNL     1     -39.822  52.065 -51.973  1.00  0.00     0.152 A 
HETATM   26  N   UNL     1     -39.177  50.896 -52.027  1.00  0.00    -0.187 NA
HETATM   27  N   UNL     1     -39.393  50.477 -53.284  1.00  0.00    -0.289 N 
HETATM   28  H   UNL     1     -38.988  49.593 -53.572  1.00  0.00     0.188 HD
HETATM   29  C   UNL     1     -40.153  51.338 -54.021  1.00  0.00     0.123 A 
ENDBRANCH   7  24
TORSDOF 4
ENDMDL
MODEL 7
REMARK VINA RESULT:      -8.0      5.176      6.550
REMARK  4 active torsions:
REMARK  status: ('A' for Active; 'I' for Inactive)
REMARK    1  A    between atoms: C_5  and  C_6 
REMARK    2  A    between atoms: C_6  and  N_7 
REMARK       I    between atoms: N_7  and  C_8 
REMARK    3  A    between atoms: C_8  and  C_10 
REMARK    4  A    between atoms: C_16  and  C_20 
ROOT
HETATM    1  C   UNL     1     -41.478  56.738 -51.533  1.00  0.00     0.059 A 
HETATM    2  C   UNL     1     -41.384  56.482 -50.175  1.00  0.00     0.106 A 
HETATM    3  N   UNL     1     -41.050  55.171 -49.995  1.00  0.00    -0.364 N 
HETATM    4  H   UNL     1     -40.924  54.720 -49.099  1.00  0.00     0.165 HD
HETATM    5  C   UNL     1     -40.889  54.554 -51.212  1.00  0.00     0.044 A 
HETATM    6  C   UNL     1     -40.541  53.225 -51.501  1.00  0.00     0.042 A 
HETATM    7  C   UNL     1     -40.399  52.845 -52.844  1.00  0.00    -0.021 A 
HETATM    8  C   UNL     1     -40.598  53.796 -53.850  1.00  0.00     0.013 A 
HETATM    9  C   UNL     1     -40.948  55.121 -53.545  1.00  0.00     0.016 A 
HETATM   10  C   UNL     1     -41.120  55.514 -52.201  1.00  0.00     0.008 A 
ENDROOT
BRANCH   1  11
HETATM   11  C   UNL     1     -41.856  58.043 -52.070  1.00  0.00     0.254 C 
HETATM   12  N   UNL     1     -43.206  58.301 -52.065  1.00  0.00    -0.353 N 
HETATM   13  H   UNL     1     -43.826  57.641 -51.622  1.00  0.00     0.163 HD
HETATM   14  O   UNL     1     -41.023  58.865 -52.439  1.00  0.00    -0.268 OA
BRANCH  12  15
HETATM   15  C   UNL     1     -43.745  59.557 -52.522  1.00  0.00     0.161 C 
BRANCH  15  16
HETATM   16  C   UNL     1     -43.905  60.530 -51.381  1.00  0.00    -0.037 A 
HETATM   17  C   UNL     1     -44.910  60.330 -50.418  1.00  0.00     0.012 A 
HETATM   18  C   UNL     1     -45.060  61.219 -49.349  1.00  0.00     0.046 A 
HETATM   19  C   UNL     1     -44.198  62.304 -49.237  1.00  0.00     0.154 A 
HETATM   20  F   UNL     1     -44.345  63.156 -48.213  1.00  0.00    -0.203 F 
HETATM   21  C   UNL     1     -43.193  62.503 -50.175  1.00  0.00     0.155 A 
HETATM   22  C   UNL     1     -43.038  61.623 -51.243  1.00  0.00     0.054 A 
HETATM   23  F   UNL     1     -42.360  63.546 -50.059  1.00  0.00    -0.203 F 
ENDBRANCH  15  16
ENDBRANCH  12  15
ENDBRANCH   1  11
BRANCH   7  24
HETATM   24  C   UNL     1     -40.044  51.473 -53.171  1.00  0.00     0.010 A 
HETATM   25  C   UNL     1     -40.085  50.775 -54.401  1.00  0.00     0.152 A 
HETATM   26  N   UNL     1     -39.688  49.504 -54.291  1.00  0.00    -0.187 NA
HETATM   27  N   UNL     1     -39.394  49.380 -52.988  1.00  0.00    -0.289 N 
HETATM   28  H   UNL     1     -39.069  48.480 -52.652  1.00  0.00     0.188 HD
HETATM   29  C   UNL     1     -39.590  50.527 -52.275  1.00  0.00     0.123 A 
ENDBRANCH   7  24
TORSDOF 4
ENDMDL
MODEL 8
REMARK VINA RESULT:      -8.0      3.988      8.876
REMARK  4 active torsions:
REMARK  status: ('A' for Active; 'I' for Inactive)
REMARK    1  A    between atoms: C_5  and  C_6 
REMARK    2  A    between atoms: C_6  and  N_7 
REMARK       I    between atoms: N_7  and  C_8 
REMARK    3  A    between atoms: C_8  and  C_10 
REMARK    4  A    between atoms: C_16  and  C_20 
ROOT
HETATM    1  C   UNL     1     -42.317  55.758 -55.080  1.00  0.00     0.059 A 
HETATM    2  C   UNL     1     -42.502  55.140 -56.306  1.00  0.00     0.106 A 
HETATM    3  N   UNL     1     -42.567  56.097 -57.277  1.00  0.00    -0.364 N 
HETATM    4  H   UNL     1     -42.704  55.918 -58.262  1.00  0.00     0.165 HD
HETATM    5  C   UNL     1     -42.396  57.343 -56.723  1.00  0.00     0.044 A 
HETATM    6  C   UNL     1     -42.382  58.602 -57.343  1.00  0.00     0.042 A 
HETATM    7  C   UNL     1     -42.147  59.737 -56.553  1.00  0.00    -0.021 A 
HETATM    8  C   UNL     1     -41.927  59.583 -55.180  1.00  0.00     0.013 A 
HETATM    9  C   UNL     1     -41.947  58.317 -54.574  1.00  0.00     0.016 A 
HETATM   10  C   UNL     1     -42.207  57.167 -55.350  1.00  0.00     0.008 A 
ENDROOT
BRANCH   1  11
HETATM   11  C   UNL     1     -42.243  55.017 -53.823  1.00  0.00     0.254 C 
HETATM   12  N   UNL     1     -40.973  54.847 -53.325  1.00  0.00    -0.353 N 
HETATM   13  H   UNL     1     -40.204  55.307 -53.788  1.00  0.00     0.163 HD
HETATM   14  O   UNL     1     -43.247  54.631 -53.231  1.00  0.00    -0.268 OA
BRANCH  12  15
HETATM   15  C   UNL     1     -40.727  54.175 -52.075  1.00  0.00     0.161 C 
BRANCH  15  16
HETATM   16  C   UNL     1     -40.315  52.741 -52.298  1.00  0.00    -0.037 A 
HETATM   17  C   UNL     1     -40.237  52.223 -53.603  1.00  0.00     0.012 A 
HETATM   18  C   UNL     1     -39.844  50.899 -53.821  1.00  0.00     0.046 A 
HETATM   19  C   UNL     1     -39.520  50.094 -52.736  1.00  0.00     0.154 A 
HETATM   20  F   UNL     1     -39.145  48.825 -52.947  1.00  0.00    -0.203 F 
HETATM   21  C   UNL     1     -39.579  50.601 -51.443  1.00  0.00     0.155 A 
HETATM   22  C   UNL     1     -39.971  51.918 -51.217  1.00  0.00     0.054 A 
HETATM   23  F   UNL     1     -39.259  49.824 -50.399  1.00  0.00    -0.203 F 
ENDBRANCH  15  16
ENDBRANCH  12  15
ENDBRANCH   1  11
BRANCH   7  24
HETATM   24  C   UNL     1     -42.130  61.054 -57.170  1.00  0.00     0.010 A 
HETATM   25  C   UNL     1     -41.283  61.598 -58.165  1.00  0.00     0.152 A 
HETATM   26  N   UNL     1     -41.578  62.867 -58.462  1.00  0.00    -0.187 NA
HETATM   27  N   UNL     1     -42.614  63.144 -57.655  1.00  0.00    -0.289 N 
HETATM   28  H   UNL     1     -43.020  64.073 -57.695  1.00  0.00     0.188 HD
HETATM   29  C   UNL     1     -42.983  62.094 -56.864  1.00  0.00     0.123 A 
ENDBRANCH   7  24
TORSDOF 4
ENDMDL
MODEL 9
REMARK VINA RESULT:      -7.8      3.139      7.752
REMARK  4 active torsions:
REMARK  status: ('A' for Active; 'I' for Inactive)
REMARK    1  A    between atoms: C_5  and  C_6 
REMARK    2  A    between atoms: C_6  and  N_7 
REMARK       I    between atoms: N_7  and  C_8 
REMARK    3  A    between atoms: C_8  and  C_10 
REMARK    4  A    between atoms: C_16  and  C_20 
ROOT
HETATM    1  C   UNL     1     -41.523  58.104 -53.135  1.00  0.00     0.059 A 
HETATM    2  C   UNL     1     -41.475  59.485 -53.054  1.00  0.00     0.106 A 
HETATM    3  N   UNL     1     -41.808  60.011 -54.268  1.00  0.00    -0.364 N 
HETATM    4  H   UNL     1     -41.844  60.997 -54.486  1.00  0.00     0.165 HD
HETATM    5  C   UNL     1     -42.108  59.002 -55.152  1.00  0.00     0.044 A 
HETATM    6  C   UNL     1     -42.505  59.081 -56.497  1.00  0.00     0.042 A 
HETATM    7  C   UNL     1     -42.795  57.890 -57.181  1.00  0.00    -0.021 A 
HETATM    8  C   UNL     1     -42.690  56.669 -56.507  1.00  0.00     0.013 A 
HETATM    9  C   UNL     1     -42.290  56.607 -55.163  1.00  0.00     0.016 A 
HETATM   10  C   UNL     1     -41.969  57.792 -54.467  1.00  0.00     0.008 A 
ENDROOT
BRANCH   1  11
HETATM   11  C   UNL     1     -41.184  57.231 -52.012  1.00  0.00     0.254 C 
HETATM   12  N   UNL     1     -41.501  55.906 -52.193  1.00  0.00    -0.353 N 
HETATM   13  H   UNL     1     -41.848  55.608 -53.092  1.00  0.00     0.163 HD
HETATM   14  O   UNL     1     -40.607  57.647 -51.012  1.00  0.00    -0.268 OA
BRANCH  12  15
HETATM   15  C   UNL     1     -41.197  54.907 -51.201  1.00  0.00     0.161 C 
BRANCH  15  16
HETATM   16  C   UNL     1     -40.645  53.656 -51.837  1.00  0.00    -0.037 A 
HETATM   17  C   UNL     1     -40.092  52.642 -51.036  1.00  0.00     0.012 A 
HETATM   18  C   UNL     1     -39.588  51.473 -51.614  1.00  0.00     0.046 A 
HETATM   19  C   UNL     1     -39.646  51.312 -52.993  1.00  0.00     0.154 A 
HETATM   20  F   UNL     1     -39.161  50.191 -53.545  1.00  0.00    -0.203 F 
HETATM   21  C   UNL     1     -40.204  52.302 -53.793  1.00  0.00     0.155 A 
HETATM   22  C   UNL     1     -40.706  53.470 -53.225  1.00  0.00     0.054 A 
HETATM   23  F   UNL     1     -40.265  52.140 -55.122  1.00  0.00    -0.203 F 
ENDBRANCH  15  16
ENDBRANCH  12  15
ENDBRANCH   1  11
BRANCH   7  24
HETATM   24  C   UNL     1     -43.205  57.944 -58.576  1.00  0.00     0.010 A 
HETATM   25  C   UNL     1     -43.651  59.029 -59.367  1.00  0.00     0.152 A 
HETATM   26  N   UNL     1     -43.954  58.670 -60.618  1.00  0.00    -0.187 NA
HETATM   27  N   UNL     1     -43.707  57.351 -60.633  1.00  0.00    -0.289 N 
HETATM   28  H   UNL     1     -43.872  56.841 -61.494  1.00  0.00     0.188 HD
HETATM   29  C   UNL     1     -43.257  56.869 -59.438  1.00  0.00     0.123 A 
ENDBRANCH   7  24
TORSDOF 4
ENDMDL
MODEL 10
REMARK VINA RESULT:      -7.7     14.635     16.534
REMARK  4 active torsions:
REMARK  status: ('A' for Active; 'I' for Inactive)
REMARK    1  A    between atoms: C_5  and  C_6 
REMARK    2  A    between atoms: C_6  and  N_7 
REMARK       I    between atoms: N_7  and  C_8 
REMARK    3  A    between atoms: C_8  and  C_10 
REMARK    4  A    between atoms: C_16  and  C_20 
ROOT
HETATM    1  C   UNL     1     -34.494  41.008 -53.588  1.00  0.00     0.059 A 
HETATM    2  C   UNL     1     -33.342  40.822 -54.333  1.00  0.00     0.106 A 
HETATM    3  N   UNL     1     -32.347  40.386 -53.507  1.00  0.00    -0.364 N 
HETATM    4  H   UNL     1     -31.401  40.179 -53.794  1.00  0.00     0.165 HD
HETATM    5  C   UNL     1     -32.825  40.248 -52.225  1.00  0.00     0.044 A 
HETATM    6  C   UNL     1     -32.160  39.823 -51.065  1.00  0.00     0.042 A 
HETATM    7  C   UNL     1     -32.889  39.728 -49.870  1.00  0.00    -0.021 A 
HETATM    8  C   UNL     1     -34.250  40.050 -49.871  1.00  0.00     0.013 A 
HETATM    9  C   UNL     1     -34.901  40.476 -51.039  1.00  0.00     0.016 A 
HETATM   10  C   UNL     1     -34.177  40.601 -52.244  1.00  0.00     0.008 A 
ENDROOT
BRANCH   1  11
HETATM   11  C   UNL     1     -35.740  41.508 -54.165  1.00  0.00     0.254 C 
HETATM   12  N   UNL     1     -36.450  40.585 -54.897  1.00  0.00    -0.353 N 
HETATM   13  H   UNL     1     -36.131  39.629 -54.913  1.00  0.00     0.163 HD
HETATM   14  O   UNL     1     -36.145  42.648 -53.960  1.00  0.00    -0.268 OA
BRANCH  12  15
HETATM   15  C   UNL     1     -37.718  40.903 -55.500  1.00  0.00     0.161 C 
BRANCH  15  16
HETATM   16  C   UNL     1     -37.657  40.775 -57.001  1.00  0.00    -0.037 A 
HETATM   17  C   UNL     1     -37.959  39.548 -57.619  1.00  0.00     0.012 A 
HETATM   18  C   UNL     1     -37.916  39.421 -59.010  1.00  0.00     0.046 A 
HETATM   19  C   UNL     1     -37.581  40.524 -59.788  1.00  0.00     0.154 A 
HETATM   20  F   UNL     1     -37.539  40.400 -61.121  1.00  0.00    -0.203 F 
HETATM   21  C   UNL     1     -37.294  41.745 -59.189  1.00  0.00     0.155 A 
HETATM   22  C   UNL     1     -37.333  41.879 -57.803  1.00  0.00     0.054 A 
HETATM   23  F   UNL     1     -36.979  42.807 -59.941  1.00  0.00    -0.203 F 
ENDBRANCH  15  16
ENDBRANCH  12  15
ENDBRANCH   1  11
BRANCH   7  24
HETATM   24  C   UNL     1     -32.223  39.294 -48.652  1.00  0.00     0.010 A 
HETATM   25  C   UNL     1     -31.131  39.853 -47.946  1.00  0.00     0.152 A 
HETATM   26  N   UNL     1     -30.793  39.144 -46.865  1.00  0.00    -0.187 NA
HETATM   27  N   UNL     1     -31.665  38.124 -46.876  1.00  0.00    -0.289 N 
HETATM   28  H   UNL     1     -31.602  37.431 -46.138  1.00  0.00     0.188 HD
HETATM   29  C   UNL     1     -32.540  38.168 -47.923  1.00  0.00     0.123 A 
ENDBRANCH   7  24
TORSDOF 4
ENDMDL
