MODEL 1
REMARK VINA RESULT:      -7.8      0.000      0.000
REMARK  9 active torsions:
REMARK  status: ('A' for Active; 'I' for Inactive)
REMARK    1  A    between atoms: C_3  and  O_4 
REMARK    2  A    between atoms: O_4  and  C_5 
REMARK    3  A    between atoms: C_5  and  C_6 
REMARK    4  A    between atoms: N_7  and  C_8 
REMARK    5  A    between atoms: C_8  and  C_9 
REMARK    6  A    between atoms: C_9  and  C_10 
REMARK    7  A    between atoms: C_16  and  S_17 
REMARK    8  A    between atoms: S_17  and  C_18 
REMARK    9  A    between atoms: C_18  and  C_19 
REMARK       I    between atoms: C_19  and  N_20 
ROOT
HETATM    1  C   UNL     1     -41.545  57.881 -53.896  1.00  0.00     0.155 A 
HETATM    2  N   UNL     1     -41.493  56.681 -54.583  1.00  0.00    -0.309 N 
HETATM    3  C   UNL     1     -42.400  56.826 -55.604  1.00  0.00     0.192 A 
HETATM    4  N   UNL     1     -42.991  57.994 -55.519  1.00  0.00    -0.123 NA
HETATM    5  N   UNL     1     -42.453  58.659 -54.458  1.00  0.00    -0.132 NA
ENDROOT
BRANCH   1   6
HETATM    6  C   UNL     1     -40.775  58.247 -52.675  1.00  0.00     0.256 C 
BRANCH   6   7
HETATM    7  O   UNL     1     -41.672  58.224 -51.567  1.00  0.00    -0.343 OA
BRANCH   7   8
HETATM    8  C   UNL     1     -41.803  57.005 -50.953  1.00  0.00     0.075 A 
HETATM    9  C   UNL     1     -43.084  56.428 -50.970  1.00  0.00    -0.029 A 
HETATM   10  C   UNL     1     -44.231  57.099 -51.672  1.00  0.00     0.051 C 
HETATM   11  C   UNL     1     -43.275  55.169 -50.381  1.00  0.00     0.009 A 
HETATM   12  C   UNL     1     -42.219  54.509 -49.753  1.00  0.00     0.001 A 
HETATM   13  C   UNL     1     -40.961  55.103 -49.706  1.00  0.00     0.003 A 
HETATM   14  C   UNL     1     -40.752  56.349 -50.299  1.00  0.00     0.037 A 
ENDBRANCH   7   8
ENDBRANCH   6   7
ENDBRANCH   1   6
BRANCH   2  15
HETATM   15  C   UNL     1     -40.664  55.523 -54.282  1.00  0.00     0.137 C 
BRANCH  15  16
HETATM   16  C   UNL     1     -41.413  54.427 -53.509  1.00  0.00     0.059 C 
BRANCH  16  17
HETATM   17  C   UNL     1     -40.721  53.088 -53.415  1.00  0.00    -0.057 A 
HETATM   18  C   UNL     1     -40.748  52.170 -54.473  1.00  0.00     0.007 A 
HETATM   19  C   UNL     1     -40.180  50.903 -54.332  1.00  0.00     0.001 A 
HETATM   20  C   UNL     1     -39.589  50.528 -53.126  1.00  0.00     0.000 A 
HETATM   21  C   UNL     1     -39.558  51.425 -52.063  1.00  0.00     0.001 A 
HETATM   22  C   UNL     1     -40.119  52.697 -52.206  1.00  0.00     0.007 A 
ENDBRANCH  16  17
ENDBRANCH  15  16
ENDBRANCH   2  15
BRANCH   3  23
HETATM   23  S   UNL     1     -42.732  55.646 -56.823  1.00  0.00    -0.081 SA
BRANCH  23  24
HETATM   24  C   UNL     1     -42.719  56.675 -58.322  1.00  0.00     0.185 C 
BRANCH  24  25
HETATM   25  C   UNL     1     -43.443  55.997 -59.474  1.00  0.00     0.226 C 
HETATM   26  N   UNL     1     -44.323  55.004 -59.095  1.00  0.00    -0.365 N 
HETATM   27  C   UNL     1     -45.119  54.306 -60.072  1.00  0.00     0.149 C 
HETATM   28  H   UNL     1     -44.694  55.065 -58.146  1.00  0.00     0.161 HD
HETATM   29  O   UNL     1     -43.230  56.293 -60.648  1.00  0.00    -0.273 OA
ENDBRANCH  24  25
ENDBRANCH  23  24
ENDBRANCH   3  23
TORSDOF 9
ENDMDL
MODEL 2
REMARK VINA RESULT:      -7.7      1.734      4.543
REMARK  9 active torsions:
REMARK  status: ('A' for Active; 'I' for Inactive)
REMARK    1  A    between atoms: C_3  and  O_4 
REMARK    2  A    between atoms: O_4  and  C_5 
REMARK    3  A    between atoms: C_5  and  C_6 
REMARK    4  A    between atoms: N_7  and  C_8 
REMARK    5  A    between atoms: C_8  and  C_9 
REMARK    6  A    between atoms: C_9  and  C_10 
REMARK    7  A    between atoms: C_16  and  S_17 
REMARK    8  A    between atoms: S_17  and  C_18 
REMARK    9  A    between atoms: C_18  and  C_19 
REMARK       I    between atoms: C_19  and  N_20 
ROOT
HETATM    1  C   UNL     1     -41.490  54.510 -54.519  1.00  0.00     0.155 A 
HETATM    2  N   UNL     1     -41.854  55.820 -54.770  1.00  0.00    -0.309 N 
HETATM    3  C   UNL     1     -42.782  55.736 -55.779  1.00  0.00     0.192 A 
HETATM    4  N   UNL     1     -42.935  54.485 -56.145  1.00  0.00    -0.123 NA
HETATM    5  N   UNL     1     -42.135  53.716 -55.354  1.00  0.00    -0.132 NA
ENDROOT
BRANCH   1   6
HETATM    6  C   UNL     1     -40.484  54.035 -53.528  1.00  0.00     0.256 C 
BRANCH   6   7
HETATM    7  O   UNL     1     -40.098  52.712 -53.893  1.00  0.00    -0.343 OA
BRANCH   7   8
HETATM    8  C   UNL     1     -39.995  51.830 -52.848  1.00  0.00     0.075 A 
HETATM    9  C   UNL     1     -39.770  50.484 -53.182  1.00  0.00    -0.029 A 
HETATM   10  C   UNL     1     -39.602  50.055 -54.613  1.00  0.00     0.051 C 
HETATM   11  C   UNL     1     -39.628  49.539 -52.155  1.00  0.00     0.009 A 
HETATM   12  C   UNL     1     -39.746  49.917 -50.818  1.00  0.00     0.001 A 
HETATM   13  C   UNL     1     -40.006  51.246 -50.494  1.00  0.00     0.003 A 
HETATM   14  C   UNL     1     -40.136  52.200 -51.504  1.00  0.00     0.037 A 
ENDBRANCH   7   8
ENDBRANCH   6   7
ENDBRANCH   1   6
BRANCH   2  15
HETATM   15  C   UNL     1     -41.355  57.020 -54.113  1.00  0.00     0.137 C 
BRANCH  15  16
HETATM   16  C   UNL     1     -42.212  57.456 -52.915  1.00  0.00     0.059 C 
BRANCH  16  17
HETATM   17  C   UNL     1     -42.183  56.543 -51.712  1.00  0.00    -0.057 A 
HETATM   18  C   UNL     1     -41.098  56.527 -50.827  1.00  0.00     0.007 A 
HETATM   19  C   UNL     1     -41.051  55.611 -49.773  1.00  0.00     0.001 A 
HETATM   20  C   UNL     1     -42.082  54.689 -49.597  1.00  0.00     0.000 A 
HETATM   21  C   UNL     1     -43.165  54.689 -50.471  1.00  0.00     0.001 A 
HETATM   22  C   UNL     1     -43.217  55.609 -51.521  1.00  0.00     0.007 A 
ENDBRANCH  16  17
ENDBRANCH  15  16
ENDBRANCH   2  15
BRANCH   3  23
HETATM   23  S   UNL     1     -43.625  57.073 -56.478  1.00  0.00    -0.081 SA
BRANCH  23  24
HETATM   24  C   UNL     1     -42.638  57.367 -57.977  1.00  0.00     0.185 C 
BRANCH  24  25
HETATM   25  C   UNL     1     -43.069  56.460 -59.118  1.00  0.00     0.226 C 
HETATM   26  N   UNL     1     -44.130  55.628 -58.824  1.00  0.00    -0.365 N 
HETATM   27  C   UNL     1     -44.682  54.748 -59.822  1.00  0.00     0.149 C 
HETATM   28  H   UNL     1     -44.752  55.935 -58.075  1.00  0.00     0.161 HD
HETATM   29  O   UNL     1     -42.490  56.452 -60.203  1.00  0.00    -0.273 OA
ENDBRANCH  24  25
ENDBRANCH  23  24
ENDBRANCH   3  23
TORSDOF 9
ENDMDL
MODEL 3
REMARK VINA RESULT:      -7.6      1.554      2.511
REMARK  9 active torsions:
REMARK  status: ('A' for Active; 'I' for Inactive)
REMARK    1  A    between atoms: C_3  and  O_4 
REMARK    2  A    between atoms: O_4  and  C_5 
REMARK    3  A    between atoms: C_5  and  C_6 
REMARK    4  A    between atoms: N_7  and  C_8 
REMARK    5  A    between atoms: C_8  and  C_9 
REMARK    6  A    between atoms: C_9  and  C_10 
REMARK    7  A    between atoms: C_16  and  S_17 
REMARK    8  A    between atoms: S_17  and  C_18 
REMARK    9  A    between atoms: C_18  and  C_19 
REMARK       I    between atoms: C_19  and  N_20 
ROOT
HETATM    1  C   UNL     1     -44.049  57.127 -55.408  1.00  0.00     0.155 A 
HETATM    2  N   UNL     1     -43.424  56.193 -56.215  1.00  0.00    -0.309 N 
HETATM    3  C   UNL     1     -43.510  56.716 -57.482  1.00  0.00     0.192 A 
HETATM    4  N   UNL     1     -44.173  57.847 -57.458  1.00  0.00    -0.123 NA
HETATM    5  N   UNL     1     -44.504  58.111 -56.162  1.00  0.00    -0.132 NA
ENDROOT
BRANCH   1   6
HETATM    6  C   UNL     1     -44.261  57.038 -53.936  1.00  0.00     0.256 C 
BRANCH   6   7
HETATM    7  O   UNL     1     -43.194  57.734 -53.296  1.00  0.00    -0.343 OA
BRANCH   7   8
HETATM    8  C   UNL     1     -42.699  57.126 -52.171  1.00  0.00     0.075 A 
HETATM    9  C   UNL     1     -41.422  57.530 -51.749  1.00  0.00    -0.029 A 
HETATM   10  C   UNL     1     -40.668  58.610 -52.473  1.00  0.00     0.051 C 
HETATM   11  C   UNL     1     -40.873  56.963 -50.589  1.00  0.00     0.009 A 
HETATM   12  C   UNL     1     -41.567  55.983 -49.879  1.00  0.00     0.001 A 
HETATM   13  C   UNL     1     -42.816  55.560 -50.323  1.00  0.00     0.003 A 
HETATM   14  C   UNL     1     -43.380  56.124 -51.468  1.00  0.00     0.037 A 
ENDBRANCH   7   8
ENDBRANCH   6   7
ENDBRANCH   1   6
BRANCH   2  15
HETATM   15  C   UNL     1     -42.818  54.933 -55.808  1.00  0.00     0.137 C 
BRANCH  15  16
HETATM   16  C   UNL     1     -41.418  55.103 -55.199  1.00  0.00     0.059 C 
BRANCH  16  17
HETATM   17  C   UNL     1     -40.940  53.981 -54.308  1.00  0.00    -0.057 A 
HETATM   18  C   UNL     1     -40.729  54.169 -52.936  1.00  0.00     0.007 A 
HETATM   19  C   UNL     1     -40.199  53.145 -52.150  1.00  0.00     0.001 A 
HETATM   20  C   UNL     1     -39.859  51.921 -52.724  1.00  0.00     0.000 A 
HETATM   21  C   UNL     1     -40.057  51.720 -54.087  1.00  0.00     0.001 A 
HETATM   22  C   UNL     1     -40.594  52.741 -54.874  1.00  0.00     0.007 A 
ENDBRANCH  16  17
ENDBRANCH  15  16
ENDBRANCH   2  15
BRANCH   3  23
HETATM   23  S   UNL     1     -42.853  55.995 -58.909  1.00  0.00    -0.081 SA
BRANCH  23  24
HETATM   24  C   UNL     1     -44.119  54.747 -59.289  1.00  0.00     0.185 C 
BRANCH  24  25
HETATM   25  C   UNL     1     -45.084  55.235 -60.357  1.00  0.00     0.226 C 
HETATM   26  N   UNL     1     -46.275  55.736 -59.871  1.00  0.00    -0.365 N 
HETATM   27  C   UNL     1     -47.268  56.281 -60.762  1.00  0.00     0.149 C 
HETATM   28  H   UNL     1     -46.262  56.086 -58.913  1.00  0.00     0.161 HD
HETATM   29  O   UNL     1     -44.829  55.154 -61.557  1.00  0.00    -0.273 OA
ENDBRANCH  24  25
ENDBRANCH  23  24
ENDBRANCH   3  23
TORSDOF 9
ENDMDL
MODEL 4
REMARK VINA RESULT:      -7.5      2.081      6.578
REMARK  9 active torsions:
REMARK  status: ('A' for Active; 'I' for Inactive)
REMARK    1  A    between atoms: C_3  and  O_4 
REMARK    2  A    between atoms: O_4  and  C_5 
REMARK    3  A    between atoms: C_5  and  C_6 
REMARK    4  A    between atoms: N_7  and  C_8 
REMARK    5  A    between atoms: C_8  and  C_9 
REMARK    6  A    between atoms: C_9  and  C_10 
REMARK    7  A    between atoms: C_16  and  S_17 
REMARK    8  A    between atoms: S_17  and  C_18 
REMARK    9  A    between atoms: C_18  and  C_19 
REMARK       I    between atoms: C_19  and  N_20 
ROOT
HETATM    1  C   UNL     1     -42.555  56.067 -55.694  1.00  0.00     0.155 A 
HETATM    2  N   UNL     1     -42.249  55.389 -54.528  1.00  0.00    -0.309 N 
HETATM    3  C   UNL     1     -42.066  56.377 -53.591  1.00  0.00     0.192 A 
HETATM    4  N   UNL     1     -42.200  57.556 -54.149  1.00  0.00    -0.123 NA
HETATM    5  N   UNL     1     -42.514  57.366 -55.461  1.00  0.00    -0.132 NA
ENDROOT
BRANCH   1   6
HETATM    6  C   UNL     1     -42.820  55.468 -57.033  1.00  0.00     0.256 C 
BRANCH   6   7
HETATM    7  O   UNL     1     -43.068  56.532 -57.948  1.00  0.00    -0.343 OA
BRANCH   7   8
HETATM    8  C   UNL     1     -44.011  56.264 -58.907  1.00  0.00     0.075 A 
HETATM    9  C   UNL     1     -45.133  57.109 -58.938  1.00  0.00    -0.029 A 
HETATM   10  C   UNL     1     -45.255  58.275 -57.998  1.00  0.00     0.051 C 
HETATM   11  C   UNL     1     -46.120  56.901 -59.914  1.00  0.00     0.009 A 
HETATM   12  C   UNL     1     -46.013  55.847 -60.820  1.00  0.00     0.001 A 
HETATM   13  C   UNL     1     -44.918  54.989 -60.760  1.00  0.00     0.003 A 
HETATM   14  C   UNL     1     -43.922  55.192 -59.804  1.00  0.00     0.037 A 
ENDBRANCH   7   8
ENDBRANCH   6   7
ENDBRANCH   1   6
BRANCH   2  15
HETATM   15  C   UNL     1     -42.139  53.949 -54.342  1.00  0.00     0.137 C 
BRANCH  15  16
HETATM   16  C   UNL     1     -40.748  53.399 -54.686  1.00  0.00     0.059 C 
BRANCH  16  17
HETATM   17  C   UNL     1     -40.271  52.230 -53.856  1.00  0.00    -0.057 A 
HETATM   18  C   UNL     1     -40.166  50.941 -54.393  1.00  0.00     0.007 A 
HETATM   19  C   UNL     1     -39.812  49.859 -53.584  1.00  0.00     0.001 A 
HETATM   20  C   UNL     1     -39.571  50.047 -52.225  1.00  0.00     0.000 A 
HETATM   21  C   UNL     1     -39.676  51.321 -51.674  1.00  0.00     0.001 A 
HETATM   22  C   UNL     1     -40.023  52.405 -52.483  1.00  0.00     0.007 A 
ENDBRANCH  16  17
ENDBRANCH  15  16
ENDBRANCH   2  15
BRANCH   3  23
HETATM   23  S   UNL     1     -41.703  56.117 -51.921  1.00  0.00    -0.081 SA
BRANCH  23  24
HETATM   24  C   UNL     1     -43.369  55.892 -51.228  1.00  0.00     0.185 C 
BRANCH  24  25
HETATM   25  C   UNL     1     -44.071  57.223 -51.014  1.00  0.00     0.226 C 
HETATM   26  N   UNL     1     -43.253  58.329 -51.120  1.00  0.00    -0.365 N 
HETATM   27  C   UNL     1     -43.788  59.661 -50.992  1.00  0.00     0.149 C 
HETATM   28  H   UNL     1     -42.408  58.215 -51.681  1.00  0.00     0.161 HD
HETATM   29  O   UNL     1     -45.267  57.295 -50.735  1.00  0.00    -0.273 OA
ENDBRANCH  24  25
ENDBRANCH  23  24
ENDBRANCH   3  23
TORSDOF 9
ENDMDL
MODEL 5
REMARK VINA RESULT:      -7.4      2.166      6.583
REMARK  9 active torsions:
REMARK  status: ('A' for Active; 'I' for Inactive)
REMARK    1  A    between atoms: C_3  and  O_4 
REMARK    2  A    between atoms: O_4  and  C_5 
REMARK    3  A    between atoms: C_5  and  C_6 
REMARK    4  A    between atoms: N_7  and  C_8 
REMARK    5  A    between atoms: C_8  and  C_9 
REMARK    6  A    between atoms: C_9  and  C_10 
REMARK    7  A    between atoms: C_16  and  S_17 
REMARK    8  A    between atoms: S_17  and  C_18 
REMARK    9  A    between atoms: C_18  and  C_19 
REMARK       I    between atoms: C_19  and  N_20 
ROOT
HETATM    1  C   UNL     1     -42.689  56.003 -54.717  1.00  0.00     0.155 A 
HETATM    2  N   UNL     1     -42.575  55.382 -53.486  1.00  0.00    -0.309 N 
HETATM    3  C   UNL     1     -42.888  56.360 -52.574  1.00  0.00     0.192 A 
HETATM    4  N   UNL     1     -43.125  57.493 -53.192  1.00  0.00    -0.123 NA
HETATM    5  N   UNL     1     -43.009  57.271 -54.532  1.00  0.00    -0.132 NA
ENDROOT
BRANCH   1   6
HETATM    6  C   UNL     1     -42.428  55.396 -56.052  1.00  0.00     0.256 C 
BRANCH   6   7
HETATM    7  O   UNL     1     -43.448  55.840 -56.943  1.00  0.00    -0.343 OA
BRANCH   7   8
HETATM    8  C   UNL     1     -43.003  56.568 -58.016  1.00  0.00     0.075 A 
HETATM    9  C   UNL     1     -43.284  56.047 -59.290  1.00  0.00    -0.029 A 
HETATM   10  C   UNL     1     -44.076  54.780 -59.455  1.00  0.00     0.051 C 
HETATM   11  C   UNL     1     -42.878  56.761 -60.427  1.00  0.00     0.009 A 
HETATM   12  C   UNL     1     -42.171  57.956 -60.301  1.00  0.00     0.001 A 
HETATM   13  C   UNL     1     -41.862  58.450 -59.037  1.00  0.00     0.003 A 
HETATM   14  C   UNL     1     -42.272  57.757 -57.897  1.00  0.00     0.037 A 
ENDBRANCH   7   8
ENDBRANCH   6   7
ENDBRANCH   1   6
BRANCH   2  15
HETATM   15  C   UNL     1     -42.198  54.001 -53.221  1.00  0.00     0.137 C 
BRANCH  15  16
HETATM   16  C   UNL     1     -40.685  53.757 -53.315  1.00  0.00     0.059 C 
BRANCH  16  17
HETATM   17  C   UNL     1     -40.239  52.316 -53.245  1.00  0.00    -0.057 A 
HETATM   18  C   UNL     1     -40.386  51.446 -54.332  1.00  0.00     0.007 A 
HETATM   19  C   UNL     1     -40.052  50.095 -54.215  1.00  0.00     0.001 A 
HETATM   20  C   UNL     1     -39.578  49.591 -53.005  1.00  0.00     0.000 A 
HETATM   21  C   UNL     1     -39.431  50.441 -51.913  1.00  0.00     0.001 A 
HETATM   22  C   UNL     1     -39.758  51.794 -52.031  1.00  0.00     0.007 A 
ENDBRANCH  16  17
ENDBRANCH  15  16
ENDBRANCH   2  15
BRANCH   3  23
HETATM   23  S   UNL     1     -42.955  56.146 -50.860  1.00  0.00    -0.081 SA
BRANCH  23  24
HETATM   24  C   UNL     1     -41.260  56.598 -50.382  1.00  0.00     0.185 C 
BRANCH  24  25
HETATM   25  C   UNL     1     -41.019  58.092 -50.518  1.00  0.00     0.226 C 
HETATM   26  N   UNL     1     -42.146  58.874 -50.365  1.00  0.00    -0.365 N 
HETATM   27  C   UNL     1     -42.064  60.311 -50.418  1.00  0.00     0.149 C 
HETATM   28  H   UNL     1     -42.909  58.468 -49.822  1.00  0.00     0.161 HD
HETATM   29  O   UNL     1     -39.910  58.556 -50.777  1.00  0.00    -0.273 OA
ENDBRANCH  24  25
ENDBRANCH  23  24
ENDBRANCH   3  23
TORSDOF 9
ENDMDL
MODEL 6
REMARK VINA RESULT:      -7.3      2.794      6.637
REMARK  9 active torsions:
REMARK  status: ('A' for Active; 'I' for Inactive)
REMARK    1  A    between atoms: C_3  and  O_4 
REMARK    2  A    between atoms: O_4  and  C_5 
REMARK    3  A    between atoms: C_5  and  C_6 
REMARK    4  A    between atoms: N_7  and  C_8 
REMARK    5  A    between atoms: C_8  and  C_9 
REMARK    6  A    between atoms: C_9  and  C_10 
REMARK    7  A    between atoms: C_16  and  S_17 
REMARK    8  A    between atoms: S_17  and  C_18 
REMARK    9  A    between atoms: C_18  and  C_19 
REMARK       I    between atoms: C_19  and  N_20 
ROOT
HETATM    1  C   UNL     1     -42.486  55.150 -53.056  1.00  0.00     0.155 A 
HETATM    2  N   UNL     1     -43.236  56.216 -53.518  1.00  0.00    -0.309 N 
HETATM    3  C   UNL     1     -43.506  56.962 -52.397  1.00  0.00     0.192 A 
HETATM    4  N   UNL     1     -43.006  56.375 -51.336  1.00  0.00    -0.123 NA
HETATM    5  N   UNL     1     -42.361  55.247 -51.745  1.00  0.00    -0.132 NA
ENDROOT
BRANCH   1   6
HETATM    6  C   UNL     1     -41.953  54.016 -53.862  1.00  0.00     0.256 C 
BRANCH   6   7
HETATM    7  O   UNL     1     -40.619  53.760 -53.431  1.00  0.00    -0.343 OA
BRANCH   7   8
HETATM    8  C   UNL     1     -40.295  52.433 -53.305  1.00  0.00     0.075 A 
HETATM    9  C   UNL     1     -39.856  52.011 -52.039  1.00  0.00    -0.029 A 
HETATM   10  C   UNL     1     -39.796  52.964 -50.878  1.00  0.00     0.051 C 
HETATM   11  C   UNL     1     -39.535  50.660 -51.841  1.00  0.00     0.009 A 
HETATM   12  C   UNL     1     -39.615  49.748 -52.893  1.00  0.00     0.001 A 
HETATM   13  C   UNL     1     -40.015  50.179 -54.155  1.00  0.00     0.003 A 
HETATM   14  C   UNL     1     -40.350  51.518 -54.363  1.00  0.00     0.037 A 
ENDBRANCH   7   8
ENDBRANCH   6   7
ENDBRANCH   1   6
BRANCH   2  15
HETATM   15  C   UNL     1     -43.651  56.481 -54.888  1.00  0.00     0.137 C 
BRANCH  15  16
HETATM   16  C   UNL     1     -42.629  57.309 -55.681  1.00  0.00     0.059 C 
BRANCH  16  17
HETATM   17  C   UNL     1     -42.585  57.062 -57.170  1.00  0.00    -0.057 A 
HETATM   18  C   UNL     1     -42.160  58.049 -58.068  1.00  0.00     0.007 A 
HETATM   19  C   UNL     1     -42.214  57.831 -59.446  1.00  0.00     0.001 A 
HETATM   20  C   UNL     1     -42.707  56.628 -59.948  1.00  0.00     0.000 A 
HETATM   21  C   UNL     1     -43.139  55.638 -59.070  1.00  0.00     0.001 A 
HETATM   22  C   UNL     1     -43.079  55.852 -57.691  1.00  0.00     0.007 A 
ENDBRANCH  16  17
ENDBRANCH  15  16
ENDBRANCH   2  15
BRANCH   3  23
HETATM   23  S   UNL     1     -44.382  58.452 -52.373  1.00  0.00    -0.081 SA
BRANCH  23  24
HETATM   24  C   UNL     1     -43.116  59.615 -52.966  1.00  0.00     0.185 C 
BRANCH  24  25
HETATM   25  C   UNL     1     -41.840  59.521 -52.146  1.00  0.00     0.226 C 
HETATM   26  N   UNL     1     -42.035  59.488 -50.780  1.00  0.00    -0.365 N 
HETATM   27  C   UNL     1     -40.922  59.349 -49.876  1.00  0.00     0.149 C 
HETATM   28  H   UNL     1     -42.943  59.150 -50.460  1.00  0.00     0.161 HD
HETATM   29  O   UNL     1     -40.726  59.511 -52.667  1.00  0.00    -0.273 OA
ENDBRANCH  24  25
ENDBRANCH  23  24
ENDBRANCH   3  23
TORSDOF 9
ENDMDL
MODEL 7
REMARK VINA RESULT:      -7.2      3.005      6.276
REMARK  9 active torsions:
REMARK  status: ('A' for Active; 'I' for Inactive)
REMARK    1  A    between atoms: C_3  and  O_4 
REMARK    2  A    between atoms: O_4  and  C_5 
REMARK    3  A    between atoms: C_5  and  C_6 
REMARK    4  A    between atoms: N_7  and  C_8 
REMARK    5  A    between atoms: C_8  and  C_9 
REMARK    6  A    between atoms: C_9  and  C_10 
REMARK    7  A    between atoms: C_16  and  S_17 
REMARK    8  A    between atoms: S_17  and  C_18 
REMARK    9  A    between atoms: C_18  and  C_19 
REMARK       I    between atoms: C_19  and  N_20 
ROOT
HETATM    1  C   UNL     1     -41.211  54.569 -50.646  1.00  0.00     0.155 A 
HETATM    2  N   UNL     1     -42.136  55.393 -51.260  1.00  0.00    -0.309 N 
HETATM    3  C   UNL     1     -41.701  56.667 -50.987  1.00  0.00     0.192 A 
HETATM    4  N   UNL     1     -40.631  56.624 -50.229  1.00  0.00    -0.123 NA
HETATM    5  N   UNL     1     -40.318  55.314 -50.021  1.00  0.00    -0.132 NA
ENDROOT
BRANCH   1   6
HETATM    6  C   UNL     1     -41.226  53.080 -50.608  1.00  0.00     0.256 C 
BRANCH   6   7
HETATM    7  O   UNL     1     -39.936  52.617 -50.999  1.00  0.00    -0.343 OA
BRANCH   7   8
HETATM    8  C   UNL     1     -39.913  51.867 -52.147  1.00  0.00     0.075 A 
HETATM    9  C   UNL     1     -39.680  50.490 -51.994  1.00  0.00    -0.029 A 
HETATM   10  C   UNL     1     -39.516  49.876 -50.632  1.00  0.00     0.051 C 
HETATM   11  C   UNL     1     -39.672  49.667 -53.130  1.00  0.00     0.009 A 
HETATM   12  C   UNL     1     -39.855  50.208 -54.402  1.00  0.00     0.001 A 
HETATM   13  C   UNL     1     -40.048  51.578 -54.551  1.00  0.00     0.003 A 
HETATM   14  C   UNL     1     -40.073  52.408 -53.429  1.00  0.00     0.037 A 
ENDBRANCH   7   8
ENDBRANCH   6   7
ENDBRANCH   1   6
BRANCH   2  15
HETATM   15  C   UNL     1     -43.312  54.995 -52.021  1.00  0.00     0.137 C 
BRANCH  15  16
HETATM   16  C   UNL     1     -42.969  54.346 -53.370  1.00  0.00     0.059 C 
BRANCH  16  17
HETATM   17  C   UNL     1     -43.086  55.237 -54.584  1.00  0.00    -0.057 A 
HETATM   18  C   UNL     1     -43.745  56.472 -54.530  1.00  0.00     0.007 A 
HETATM   19  C   UNL     1     -43.921  57.237 -55.685  1.00  0.00     0.001 A 
HETATM   20  C   UNL     1     -43.454  56.773 -56.914  1.00  0.00     0.000 A 
HETATM   21  C   UNL     1     -42.803  55.545 -56.986  1.00  0.00     0.001 A 
HETATM   22  C   UNL     1     -42.619  54.782 -55.830  1.00  0.00     0.007 A 
ENDBRANCH  16  17
ENDBRANCH  15  16
ENDBRANCH   2  15
BRANCH   3  23
HETATM   23  S   UNL     1     -42.450  58.122 -51.544  1.00  0.00    -0.081 SA
BRANCH  23  24
HETATM   24  C   UNL     1     -41.126  58.829 -52.571  1.00  0.00     0.185 C 
BRANCH  24  25
HETATM   25  C   UNL     1     -41.680  59.767 -53.631  1.00  0.00     0.226 C 
HETATM   26  N   UNL     1     -42.511  60.757 -53.147  1.00  0.00    -0.365 N 
HETATM   27  C   UNL     1     -43.071  61.750 -54.028  1.00  0.00     0.149 C 
HETATM   28  H   UNL     1     -42.384  61.016 -52.168  1.00  0.00     0.161 HD
HETATM   29  O   UNL     1     -41.428  59.625 -54.827  1.00  0.00    -0.273 OA
ENDBRANCH  24  25
ENDBRANCH  23  24
ENDBRANCH   3  23
TORSDOF 9
ENDMDL
MODEL 8
REMARK VINA RESULT:      -7.2      1.944      4.679
REMARK  9 active torsions:
REMARK  status: ('A' for Active; 'I' for Inactive)
REMARK    1  A    between atoms: C_3  and  O_4 
REMARK    2  A    between atoms: O_4  and  C_5 
REMARK    3  A    between atoms: C_5  and  C_6 
REMARK    4  A    between atoms: N_7  and  C_8 
REMARK    5  A    between atoms: C_8  and  C_9 
REMARK    6  A    between atoms: C_9  and  C_10 
REMARK    7  A    between atoms: C_16  and  S_17 
REMARK    8  A    between atoms: S_17  and  C_18 
REMARK    9  A    between atoms: C_18  and  C_19 
REMARK       I    between atoms: C_19  and  N_20 
ROOT
HETATM    1  C   UNL     1     -41.349  55.422 -54.922  1.00  0.00     0.155 A 
HETATM    2  N   UNL     1     -41.701  56.746 -54.739  1.00  0.00    -0.309 N 
HETATM    3  C   UNL     1     -42.689  56.974 -55.666  1.00  0.00     0.192 A 
HETATM    4  N   UNL     1     -42.887  55.895 -56.386  1.00  0.00    -0.123 NA
HETATM    5  N   UNL     1     -42.057  54.921 -55.918  1.00  0.00    -0.132 NA
ENDROOT
BRANCH   1   6
HETATM    6  C   UNL     1     -40.295  54.667 -54.187  1.00  0.00     0.256 C 
BRANCH   6   7
HETATM    7  O   UNL     1     -40.942  53.795 -53.265  1.00  0.00    -0.343 OA
BRANCH   7   8
HETATM    8  C   UNL     1     -40.523  52.489 -53.311  1.00  0.00     0.075 A 
HETATM    9  C   UNL     1     -39.864  52.000 -52.171  1.00  0.00    -0.029 A 
HETATM   10  C   UNL     1     -39.678  52.858 -50.951  1.00  0.00     0.051 C 
HETATM   11  C   UNL     1     -39.436  50.664 -52.149  1.00  0.00     0.009 A 
HETATM   12  C   UNL     1     -39.627  49.837 -53.255  1.00  0.00     0.001 A 
HETATM   13  C   UNL     1     -40.248  50.338 -54.396  1.00  0.00     0.003 A 
HETATM   14  C   UNL     1     -40.691  51.661 -54.428  1.00  0.00     0.037 A 
ENDBRANCH   7   8
ENDBRANCH   6   7
ENDBRANCH   1   6
BRANCH   2  15
HETATM   15  C   UNL     1     -41.142  57.689 -53.781  1.00  0.00     0.137 C 
BRANCH  15  16
HETATM   16  C   UNL     1     -42.080  57.982 -52.601  1.00  0.00     0.059 C 
BRANCH  16  17
HETATM   17  C   UNL     1     -42.204  56.891 -51.564  1.00  0.00    -0.057 A 
HETATM   18  C   UNL     1     -41.266  56.745 -50.533  1.00  0.00     0.007 A 
HETATM   19  C   UNL     1     -41.348  55.675 -49.640  1.00  0.00     0.001 A 
HETATM   20  C   UNL     1     -42.361  54.727 -49.772  1.00  0.00     0.000 A 
HETATM   21  C   UNL     1     -43.297  54.853 -50.793  1.00  0.00     0.001 A 
HETATM   22  C   UNL     1     -43.221  55.927 -51.683  1.00  0.00     0.007 A 
ENDBRANCH  16  17
ENDBRANCH  15  16
ENDBRANCH   2  15
BRANCH   3  23
HETATM   23  S   UNL     1     -43.546  58.461 -55.872  1.00  0.00    -0.081 SA
BRANCH  23  24
HETATM   24  C   UNL     1     -42.402  59.382 -56.945  1.00  0.00     0.185 C 
BRANCH  24  25
HETATM   25  C   UNL     1     -42.550  58.974 -58.402  1.00  0.00     0.226 C 
HETATM   26  N   UNL     1     -41.752  57.916 -58.787  1.00  0.00    -0.365 N 
HETATM   27  C   UNL     1     -41.820  57.386 -60.125  1.00  0.00     0.149 C 
HETATM   28  H   UNL     1     -41.452  57.282 -58.047  1.00  0.00     0.161 HD
HETATM   29  O   UNL     1     -43.299  59.568 -59.176  1.00  0.00    -0.273 OA
ENDBRANCH  24  25
ENDBRANCH  23  24
ENDBRANCH   3  23
TORSDOF 9
ENDMDL
MODEL 9
REMARK VINA RESULT:      -7.1      1.919      4.497
REMARK  9 active torsions:
REMARK  status: ('A' for Active; 'I' for Inactive)
REMARK    1  A    between atoms: C_3  and  O_4 
REMARK    2  A    between atoms: O_4  and  C_5 
REMARK    3  A    between atoms: C_5  and  C_6 
REMARK    4  A    between atoms: N_7  and  C_8 
REMARK    5  A    between atoms: C_8  and  C_9 
REMARK    6  A    between atoms: C_9  and  C_10 
REMARK    7  A    between atoms: C_16  and  S_17 
REMARK    8  A    between atoms: S_17  and  C_18 
REMARK    9  A    between atoms: C_18  and  C_19 
REMARK       I    between atoms: C_19  and  N_20 
ROOT
HETATM    1  C   UNL     1     -43.239  55.429 -54.176  1.00  0.00     0.155 A 
HETATM    2  N   UNL     1     -43.161  56.540 -54.995  1.00  0.00    -0.309 N 
HETATM    3  C   UNL     1     -43.003  56.028 -56.260  1.00  0.00     0.192 A 
HETATM    4  N   UNL     1     -42.940  54.719 -56.211  1.00  0.00    -0.123 NA
HETATM    5  N   UNL     1     -43.095  54.341 -54.911  1.00  0.00    -0.132 NA
ENDROOT
BRANCH   1   6
HETATM    6  C   UNL     1     -43.384  55.419 -52.693  1.00  0.00     0.256 C 
BRANCH   6   7
HETATM    7  O   UNL     1     -42.928  54.156 -52.215  1.00  0.00    -0.343 OA
BRANCH   7   8
HETATM    8  C   UNL     1     -41.967  54.219 -51.239  1.00  0.00     0.075 A 
HETATM    9  C   UNL     1     -40.730  53.625 -51.536  1.00  0.00    -0.029 A 
HETATM   10  C   UNL     1     -40.469  52.999 -52.878  1.00  0.00     0.051 C 
HETATM   11  C   UNL     1     -39.698  53.680 -50.588  1.00  0.00     0.009 A 
HETATM   12  C   UNL     1     -39.903  54.284 -49.348  1.00  0.00     0.001 A 
HETATM   13  C   UNL     1     -41.143  54.839 -49.043  1.00  0.00     0.003 A 
HETATM   14  C   UNL     1     -42.175  54.803 -49.983  1.00  0.00     0.037 A 
ENDBRANCH   7   8
ENDBRANCH   6   7
ENDBRANCH   1   6
BRANCH   2  15
HETATM   15  C   UNL     1     -43.226  57.940 -54.600  1.00  0.00     0.137 C 
BRANCH  15  16
HETATM   16  C   UNL     1     -41.845  58.561 -54.344  1.00  0.00     0.059 C 
BRANCH  16  17
HETATM   17  C   UNL     1     -41.481  58.800 -52.898  1.00  0.00    -0.057 A 
HETATM   18  C   UNL     1     -40.757  57.859 -52.155  1.00  0.00     0.007 A 
HETATM   19  C   UNL     1     -40.511  58.059 -50.796  1.00  0.00     0.001 A 
HETATM   20  C   UNL     1     -40.998  59.197 -50.154  1.00  0.00     0.000 A 
HETATM   21  C   UNL     1     -41.725  60.139 -50.875  1.00  0.00     0.001 A 
HETATM   22  C   UNL     1     -41.965  59.944 -52.237  1.00  0.00     0.007 A 
ENDBRANCH  16  17
ENDBRANCH  15  16
ENDBRANCH   2  15
BRANCH   3  23
HETATM   23  S   UNL     1     -42.893  56.961 -57.711  1.00  0.00    -0.081 SA
BRANCH  23  24
HETATM   24  C   UNL     1     -43.550  55.788 -58.936  1.00  0.00     0.185 C 
BRANCH  24  25
HETATM   25  C   UNL     1     -44.667  56.406 -59.760  1.00  0.00     0.226 C 
HETATM   26  N   UNL     1     -45.884  55.763 -59.654  1.00  0.00    -0.365 N 
HETATM   27  C   UNL     1     -47.048  56.264 -60.339  1.00  0.00     0.149 C 
HETATM   28  H   UNL     1     -46.037  55.221 -58.804  1.00  0.00     0.161 HD
HETATM   29  O   UNL     1     -44.483  57.381 -60.486  1.00  0.00    -0.273 OA
ENDBRANCH  24  25
ENDBRANCH  23  24
ENDBRANCH   3  23
TORSDOF 9
ENDMDL
MODEL 10
REMARK VINA RESULT:      -7.1      3.559      6.875
REMARK  9 active torsions:
REMARK  status: ('A' for Active; 'I' for Inactive)
REMARK    1  A    between atoms: C_3  and  O_4 
REMARK    2  A    between atoms: O_4  and  C_5 
REMARK    3  A    between atoms: C_5  and  C_6 
REMARK    4  A    between atoms: N_7  and  C_8 
REMARK    5  A    between atoms: C_8  and  C_9 
REMARK    6  A    between atoms: C_9  and  C_10 
REMARK    7  A    between atoms: C_16  and  S_17 
REMARK    8  A    between atoms: S_17  and  C_18 
REMARK    9  A    between atoms: C_18  and  C_19 
REMARK       I    between atoms: C_19  and  N_20 
ROOT
HETATM    1  C   UNL     1     -41.361  54.481 -50.651  1.00  0.00     0.155 A 
HETATM    2  N   UNL     1     -42.261  55.214 -51.403  1.00  0.00    -0.309 N 
HETATM    3  C   UNL     1     -42.047  56.518 -51.026  1.00  0.00     0.192 A 
HETATM    4  N   UNL     1     -41.130  56.570 -50.089  1.00  0.00    -0.123 NA
HETATM    5  N   UNL     1     -40.694  55.300 -49.858  1.00  0.00    -0.132 NA
ENDROOT
BRANCH   1   6
HETATM    6  C   UNL     1     -41.193  53.001 -50.651  1.00  0.00     0.256 C 
BRANCH   6   7
HETATM    7  O   UNL     1     -39.892  52.706 -51.153  1.00  0.00    -0.343 OA
BRANCH   7   8
HETATM    8  C   UNL     1     -39.867  51.876 -52.245  1.00  0.00     0.075 A 
HETATM    9  C   UNL     1     -39.679  50.508 -51.989  1.00  0.00    -0.029 A 
HETATM   10  C   UNL     1     -39.563  49.987 -50.583  1.00  0.00     0.051 C 
HETATM   11  C   UNL     1     -39.671  49.605 -53.063  1.00  0.00     0.009 A 
HETATM   12  C   UNL     1     -39.811  50.059 -54.374  1.00  0.00     0.001 A 
HETATM   13  C   UNL     1     -39.960  51.420 -54.625  1.00  0.00     0.003 A 
HETATM   14  C   UNL     1     -39.983  52.328 -53.565  1.00  0.00     0.037 A 
ENDBRANCH   7   8
ENDBRANCH   6   7
ENDBRANCH   1   6
BRANCH   2  15
HETATM   15  C   UNL     1     -43.224  54.711 -52.372  1.00  0.00     0.137 C 
BRANCH  15  16
HETATM   16  C   UNL     1     -42.592  54.355 -53.725  1.00  0.00     0.059 C 
BRANCH  16  17
HETATM   17  C   UNL     1     -42.897  55.293 -54.869  1.00  0.00    -0.057 A 
HETATM   18  C   UNL     1     -43.632  56.470 -54.679  1.00  0.00     0.007 A 
HETATM   19  C   UNL     1     -43.981  57.276 -55.765  1.00  0.00     0.001 A 
HETATM   20  C   UNL     1     -43.612  56.910 -57.058  1.00  0.00     0.000 A 
HETATM   21  C   UNL     1     -42.887  55.741 -57.265  1.00  0.00     0.001 A 
HETATM   22  C   UNL     1     -42.530  54.938 -56.179  1.00  0.00     0.007 A 
ENDBRANCH  16  17
ENDBRANCH  15  16
ENDBRANCH   2  15
BRANCH   3  23
HETATM   23  S   UNL     1     -42.865  57.895 -51.676  1.00  0.00    -0.081 SA
BRANCH  23  24
HETATM   24  C   UNL     1     -44.578  57.563 -51.161  1.00  0.00     0.185 C 
BRANCH  24  25
HETATM   25  C   UNL     1     -45.248  58.811 -50.608  1.00  0.00     0.226 C 
HETATM   26  N   UNL     1     -44.385  59.849 -50.322  1.00  0.00    -0.365 N 
HETATM   27  C   UNL     1     -44.881  61.113 -49.839  1.00  0.00     0.149 C 
HETATM   28  H   UNL     1     -43.500  59.856 -50.830  1.00  0.00     0.161 HD
HETATM   29  O   UNL     1     -46.459  58.868 -50.405  1.00  0.00    -0.273 OA
ENDBRANCH  24  25
ENDBRANCH  23  24
ENDBRANCH   3  23
TORSDOF 9
ENDMDL
