MODEL 1
REMARK VINA RESULT:      -9.9      0.000      0.000
REMARK  8 active torsions:
REMARK  status: ('A' for Active; 'I' for Inactive)
REMARK    1  A    between atoms: C_8  and  N_9 
REMARK       I    between atoms: N_9  and  C_10 
REMARK    2  A    between atoms: C_10  and  C_11 
REMARK    3  A    between atoms: C_11  and  N_12 
REMARK    4  A    between atoms: N_16  and  C_17 
REMARK    5  A    between atoms: C_19  and  N_20 
REMARK    6  A    between atoms: N_20  and  C_21 
REMARK    7  A    between atoms: C_28  and  N_29 
REMARK    8  A    between atoms: N_29  and  C_30 
ROOT
HETATM    1  C   UNL     1     -42.181  58.914 -56.314  1.00  0.00     0.756 A 
HETATM    2  N   UNL     1     -42.564  58.263 -57.403  1.00  0.00     0.131 NA
HETATM    3  C   UNL     1     -42.427  58.905 -58.560  1.00  0.00     0.758 A 
HETATM    4  N   UNL     1     -42.032  60.164 -58.654  1.00  0.00     0.131 NA
HETATM    5  C   UNL     1     -41.674  60.752 -57.525  1.00  0.00     0.758 A 
HETATM    6  N   UNL     1     -41.718  60.153 -56.340  1.00  0.00     0.131 NA
ENDROOT
BRANCH   1   7
HETATM    7  N   UNL     1     -42.244  58.250 -55.082  1.00  0.00    -0.210 N 
HETATM    8  C   UNL     1     -42.412  56.793 -55.183  1.00  0.00     0.169 C 
HETATM    9  C   UNL     1     -42.701  56.183 -53.796  1.00  0.00     0.256 C 
HETATM   10  N   UNL     1     -41.619  56.608 -52.798  1.00  0.00    -0.060 N 
HETATM   11  H   UNL     1     -40.725  56.312 -53.205  1.00  0.00     0.280 HD
HETATM   12  C   UNL     1     -41.578  58.131 -52.698  1.00  0.00     0.256 C 
HETATM   13  C   UNL     1     -41.297  58.754 -54.081  1.00  0.00     0.169 C 
BRANCH  10  14
HETATM   14  C   UNL     1     -41.738  55.920 -51.436  1.00  0.00     0.337 C 
BRANCH  14  15
HETATM   15  C   UNL     1     -41.720  54.382 -51.444  1.00  0.00     0.248 C 
HETATM   16  N   UNL     1     -40.471  53.849 -51.725  1.00  0.00    -0.325 N 
HETATM   17  H   UNL     1     -39.694  54.491 -51.825  1.00  0.00     0.169 HD
HETATM   18  O   UNL     1     -42.743  53.750 -51.203  1.00  0.00    -0.271 OA
BRANCH  16  19
HETATM   19  C   UNL     1     -40.135  52.474 -51.875  1.00  0.00     0.042 A 
HETATM   20  C   UNL     1     -40.006  51.933 -53.183  1.00  0.00    -0.014 A 
HETATM   21  C   UNL     1     -40.160  52.808 -54.404  1.00  0.00     0.052 C 
HETATM   22  C   UNL     1     -39.755  50.550 -53.320  1.00  0.00     0.042 A 
HETATM   23 CL   UNL     1     -39.647  49.775 -54.863  1.00  0.00    -0.084 Cl
HETATM   24  C   UNL     1     -39.591  49.732 -52.201  1.00  0.00     0.024 A 
HETATM   25  C   UNL     1     -39.688  50.275 -50.927  1.00  0.00     0.004 A 
HETATM   26  C   UNL     1     -39.962  51.632 -50.767  1.00  0.00     0.030 A 
ENDBRANCH  16  19
ENDBRANCH  14  15
ENDBRANCH  10  14
ENDBRANCH   1   7
BRANCH   3  27
HETATM   27  N   UNL     1     -42.753  58.158 -59.693  1.00  0.00    -0.187 N 
HETATM   28  H   UNL     1     -42.540  58.701 -60.519  1.00  0.00     0.184 HD
BRANCH  27  29
HETATM   29  C   UNL     1     -43.705  57.147 -59.903  1.00  0.00     0.049 A 
HETATM   30  C   UNL     1     -45.057  57.388 -60.169  1.00  0.00     0.030 A 
HETATM   31  C   UNL     1     -45.958  56.333 -60.353  1.00  0.00     0.002 A 
HETATM   32  C   UNL     1     -45.524  55.015 -60.250  1.00  0.00     0.000 A 
HETATM   33  C   UNL     1     -44.191  54.753 -59.953  1.00  0.00     0.002 A 
HETATM   34  C   UNL     1     -43.295  55.809 -59.772  1.00  0.00     0.030 A 
ENDBRANCH  27  29
ENDBRANCH   3  27
BRANCH   5  35
HETATM   35  N   UNL     1     -41.293  62.088 -57.623  1.00  0.00    -0.187 N 
HETATM   36  H   UNL     1     -41.727  62.627 -56.886  1.00  0.00     0.184 HD
BRANCH  35  37
HETATM   37  C   UNL     1     -40.843  62.838 -58.718  1.00  0.00     0.049 A 
HETATM   38  C   UNL     1     -39.539  62.755 -59.222  1.00  0.00     0.030 A 
HETATM   39  C   UNL     1     -39.136  63.537 -60.310  1.00  0.00     0.002 A 
HETATM   40  C   UNL     1     -40.025  64.437 -60.890  1.00  0.00     0.000 A 
HETATM   41  C   UNL     1     -41.316  64.555 -60.385  1.00  0.00     0.002 A 
HETATM   42  C   UNL     1     -41.720  63.761 -59.308  1.00  0.00     0.030 A 
ENDBRANCH  35  37
ENDBRANCH   5  35
TORSDOF 8
ENDMDL
MODEL 2
REMARK VINA RESULT:      -9.8      1.020      5.019
REMARK  8 active torsions:
REMARK  status: ('A' for Active; 'I' for Inactive)
REMARK    1  A    between atoms: C_8  and  N_9 
REMARK       I    between atoms: N_9  and  C_10 
REMARK    2  A    between atoms: C_10  and  C_11 
REMARK    3  A    between atoms: C_11  and  N_12 
REMARK    4  A    between atoms: N_16  and  C_17 
REMARK    5  A    between atoms: C_19  and  N_20 
REMARK    6  A    between atoms: N_20  and  C_21 
REMARK    7  A    between atoms: C_28  and  N_29 
REMARK    8  A    between atoms: N_29  and  C_30 
ROOT
HETATM    1  C   UNL     1     -42.417  59.100 -56.003  1.00  0.00     0.756 A 
HETATM    2  N   UNL     1     -41.633  60.087 -56.412  1.00  0.00     0.131 NA
HETATM    3  C   UNL     1     -42.052  60.782 -57.467  1.00  0.00     0.758 A 
HETATM    4  N   UNL     1     -43.134  60.472 -58.162  1.00  0.00     0.131 NA
HETATM    5  C   UNL     1     -43.862  59.470 -57.698  1.00  0.00     0.758 A 
HETATM    6  N   UNL     1     -43.545  58.774 -56.613  1.00  0.00     0.131 NA
ENDROOT
BRANCH   1   7
HETATM    7  N   UNL     1     -42.049  58.388 -54.854  1.00  0.00    -0.210 N 
HETATM    8  C   UNL     1     -42.756  58.793 -53.631  1.00  0.00     0.169 C 
HETATM    9  C   UNL     1     -42.125  58.124 -52.392  1.00  0.00     0.256 C 
HETATM   10  N   UNL     1     -42.062  56.606 -52.589  1.00  0.00    -0.060 N 
HETATM   11  H   UNL     1     -43.023  56.304 -52.782  1.00  0.00     0.280 HD
HETATM   12  C   UNL     1     -41.236  56.281 -53.832  1.00  0.00     0.256 C 
HETATM   13  C   UNL     1     -41.853  56.951 -55.077  1.00  0.00     0.169 C 
BRANCH  10  14
HETATM   14  C   UNL     1     -41.596  55.847 -51.345  1.00  0.00     0.337 C 
BRANCH  14  15
HETATM   15  C   UNL     1     -41.637  54.312 -51.426  1.00  0.00     0.248 C 
HETATM   16  N   UNL     1     -40.387  53.738 -51.598  1.00  0.00    -0.325 N 
HETATM   17  H   UNL     1     -39.580  54.348 -51.584  1.00  0.00     0.169 HD
HETATM   18  O   UNL     1     -42.704  53.715 -51.327  1.00  0.00    -0.271 OA
BRANCH  16  19
HETATM   19  C   UNL     1     -40.090  52.357 -51.779  1.00  0.00     0.042 A 
HETATM   20  C   UNL     1     -39.969  51.844 -53.099  1.00  0.00    -0.014 A 
HETATM   21  C   UNL     1     -40.090  52.751 -54.299  1.00  0.00     0.052 C 
HETATM   22  C   UNL     1     -39.759  50.457 -53.267  1.00  0.00     0.042 A 
HETATM   23 CL   UNL     1     -39.664  49.716 -54.828  1.00  0.00    -0.084 Cl
HETATM   24  C   UNL     1     -39.625  49.609 -52.167  1.00  0.00     0.024 A 
HETATM   25  C   UNL     1     -39.714  50.124 -50.881  1.00  0.00     0.004 A 
HETATM   26  C   UNL     1     -39.949  51.484 -50.690  1.00  0.00     0.030 A 
ENDBRANCH  16  19
ENDBRANCH  14  15
ENDBRANCH  10  14
ENDBRANCH   1   7
BRANCH   3  27
HETATM   27  N   UNL     1     -41.250  61.870 -57.815  1.00  0.00    -0.187 N 
HETATM   28  H   UNL     1     -41.404  62.619 -57.154  1.00  0.00     0.184 HD
BRANCH  27  29
HETATM   29  C   UNL     1     -40.739  62.295 -59.053  1.00  0.00     0.049 A 
HETATM   30  C   UNL     1     -41.215  61.850 -60.291  1.00  0.00     0.030 A 
HETATM   31  C   UNL     1     -40.649  62.302 -61.488  1.00  0.00     0.002 A 
HETATM   32  C   UNL     1     -39.580  63.191 -61.467  1.00  0.00     0.000 A 
HETATM   33  C   UNL     1     -39.069  63.620 -60.247  1.00  0.00     0.002 A 
HETATM   34  C   UNL     1     -39.639  63.168 -59.053  1.00  0.00     0.030 A 
ENDBRANCH  27  29
ENDBRANCH   3  27
BRANCH   5  35
HETATM   35  N   UNL     1     -44.980  59.124 -58.453  1.00  0.00    -0.187 N 
HETATM   36  H   UNL     1     -45.789  59.640 -58.131  1.00  0.00     0.184 HD
BRANCH  35  37
HETATM   37  C   UNL     1     -45.272  57.967 -59.189  1.00  0.00     0.049 A 
HETATM   38  C   UNL     1     -44.305  57.247 -59.902  1.00  0.00     0.030 A 
HETATM   39  C   UNL     1     -44.651  56.106 -60.633  1.00  0.00     0.002 A 
HETATM   40  C   UNL     1     -45.977  55.686 -60.686  1.00  0.00     0.000 A 
HETATM   41  C   UNL     1     -46.956  56.405 -60.008  1.00  0.00     0.002 A 
HETATM   42  C   UNL     1     -46.604  57.536 -59.266  1.00  0.00     0.030 A 
ENDBRANCH  35  37
ENDBRANCH   5  35
TORSDOF 8
ENDMDL
MODEL 3
REMARK VINA RESULT:      -9.1      3.495      9.720
REMARK  8 active torsions:
REMARK  status: ('A' for Active; 'I' for Inactive)
REMARK    1  A    between atoms: C_8  and  N_9 
REMARK       I    between atoms: N_9  and  C_10 
REMARK    2  A    between atoms: C_10  and  C_11 
REMARK    3  A    between atoms: C_11  and  N_12 
REMARK    4  A    between atoms: N_16  and  C_17 
REMARK    5  A    between atoms: C_19  and  N_20 
REMARK    6  A    between atoms: N_20  and  C_21 
REMARK    7  A    between atoms: C_28  and  N_29 
REMARK    8  A    between atoms: N_29  and  C_30 
ROOT
HETATM    1  C   UNL     1     -42.249  55.839 -55.240  1.00  0.00     0.756 A 
HETATM    2  N   UNL     1     -41.437  54.800 -55.378  1.00  0.00     0.131 NA
HETATM    3  C   UNL     1     -40.946  54.275 -54.258  1.00  0.00     0.758 A 
HETATM    4  N   UNL     1     -41.149  54.795 -53.058  1.00  0.00     0.131 NA
HETATM    5  C   UNL     1     -41.964  55.834 -53.000  1.00  0.00     0.758 A 
HETATM    6  N   UNL     1     -42.546  56.371 -54.067  1.00  0.00     0.131 NA
ENDROOT
BRANCH   1   7
HETATM    7  N   UNL     1     -42.843  56.378 -56.389  1.00  0.00    -0.210 N 
HETATM    8  C   UNL     1     -42.986  55.431 -57.504  1.00  0.00     0.169 C 
HETATM    9  C   UNL     1     -43.429  56.166 -58.786  1.00  0.00     0.256 C 
HETATM   10  N   UNL     1     -44.694  56.986 -58.512  1.00  0.00    -0.060 N 
HETATM   11  H   UNL     1     -45.389  56.325 -58.150  1.00  0.00     0.280 HD
HETATM   12  C   UNL     1     -44.422  57.999 -57.401  1.00  0.00     0.256 C 
HETATM   13  C   UNL     1     -43.970  57.276 -56.115  1.00  0.00     0.169 C 
BRANCH  10  14
HETATM   14  C   UNL     1     -45.295  57.622 -59.768  1.00  0.00     0.337 C 
BRANCH  14  15
HETATM   15  C   UNL     1     -44.773  59.019 -60.143  1.00  0.00     0.248 C 
HETATM   16  N   UNL     1     -43.433  59.027 -60.500  1.00  0.00    -0.325 N 
HETATM   17  H   UNL     1     -42.951  58.138 -60.551  1.00  0.00     0.169 HD
HETATM   18  O   UNL     1     -45.525  59.987 -60.122  1.00  0.00    -0.271 OA
BRANCH  16  19
HETATM   19  C   UNL     1     -42.636  60.159 -60.831  1.00  0.00     0.042 A 
HETATM   20  C   UNL     1     -41.796  60.727 -59.835  1.00  0.00    -0.014 A 
HETATM   21  C   UNL     1     -41.695  60.110 -58.460  1.00  0.00     0.052 C 
HETATM   22  C   UNL     1     -41.074  61.900 -60.149  1.00  0.00     0.042 A 
HETATM   23 CL   UNL     1     -40.076  62.712 -58.993  1.00  0.00    -0.084 Cl
HETATM   24  C   UNL     1     -41.142  62.470 -61.421  1.00  0.00     0.024 A 
HETATM   25  C   UNL     1     -41.941  61.891 -62.397  1.00  0.00     0.004 A 
HETATM   26  C   UNL     1     -42.684  60.749 -62.102  1.00  0.00     0.030 A 
ENDBRANCH  16  19
ENDBRANCH  14  15
ENDBRANCH  10  14
ENDBRANCH   1   7
BRANCH   3  27
HETATM   27  N   UNL     1     -40.169  53.129 -54.433  1.00  0.00    -0.187 N 
HETATM   28  H   UNL     1     -40.056  52.954 -55.421  1.00  0.00     0.184 HD
BRANCH  27  29
HETATM   29  C   UNL     1     -39.985  51.994 -53.626  1.00  0.00     0.049 A 
HETATM   30  C   UNL     1     -39.774  52.041 -52.244  1.00  0.00     0.030 A 
HETATM   31  C   UNL     1     -39.581  50.872 -51.500  1.00  0.00     0.002 A 
HETATM   32  C   UNL     1     -39.571  49.633 -52.133  1.00  0.00     0.000 A 
HETATM   33  C   UNL     1     -39.743  49.565 -53.511  1.00  0.00     0.002 A 
HETATM   34  C   UNL     1     -39.939  50.735 -54.249  1.00  0.00     0.030 A 
ENDBRANCH  27  29
ENDBRANCH   3  27
BRANCH   5  35
HETATM   35  N   UNL     1     -42.147  56.400 -51.741  1.00  0.00    -0.187 N 
HETATM   36  H   UNL     1     -42.821  55.860 -51.213  1.00  0.00     0.184 HD
BRANCH  35  37
HETATM   37  C   UNL     1     -41.951  57.710 -51.283  1.00  0.00     0.049 A 
HETATM   38  C   UNL     1     -40.767  58.141 -50.673  1.00  0.00     0.030 A 
HETATM   39  C   UNL     1     -40.626  59.457 -50.220  1.00  0.00     0.002 A 
HETATM   40  C   UNL     1     -41.683  60.354 -50.345  1.00  0.00     0.000 A 
HETATM   41  C   UNL     1     -42.878  59.937 -50.922  1.00  0.00     0.002 A 
HETATM   42  C   UNL     1     -43.009  58.626 -51.388  1.00  0.00     0.030 A 
ENDBRANCH  35  37
ENDBRANCH   5  35
TORSDOF 8
ENDMDL
MODEL 4
REMARK VINA RESULT:      -9.0      5.595      9.716
REMARK  8 active torsions:
REMARK  status: ('A' for Active; 'I' for Inactive)
REMARK    1  A    between atoms: C_8  and  N_9 
REMARK       I    between atoms: N_9  and  C_10 
REMARK    2  A    between atoms: C_10  and  C_11 
REMARK    3  A    between atoms: C_11  and  N_12 
REMARK    4  A    between atoms: N_16  and  C_17 
REMARK    5  A    between atoms: C_19  and  N_20 
REMARK    6  A    between atoms: N_20  and  C_21 
REMARK    7  A    between atoms: C_28  and  N_29 
REMARK    8  A    between atoms: N_29  and  C_30 
ROOT
HETATM    1  C   UNL     1     -42.665  56.897 -54.464  1.00  0.00     0.756 A 
HETATM    2  N   UNL     1     -42.709  57.203 -55.753  1.00  0.00     0.131 NA
HETATM    3  C   UNL     1     -42.669  56.185 -56.608  1.00  0.00     0.758 A 
HETATM    4  N   UNL     1     -42.490  54.927 -56.238  1.00  0.00     0.131 NA
HETATM    5  C   UNL     1     -42.449  54.700 -54.936  1.00  0.00     0.758 A 
HETATM    6  N   UNL     1     -42.550  55.656 -54.021  1.00  0.00     0.131 NA
ENDROOT
BRANCH   1   7
HETATM    7  N   UNL     1     -42.775  57.933 -53.528  1.00  0.00    -0.210 N 
HETATM    8  C   UNL     1     -44.061  58.646 -53.554  1.00  0.00     0.169 C 
HETATM    9  C   UNL     1     -44.003  59.903 -52.662  1.00  0.00     0.256 C 
HETATM   10  N   UNL     1     -43.539  59.526 -51.251  1.00  0.00    -0.060 N 
HETATM   11  H   UNL     1     -44.193  58.809 -50.919  1.00  0.00     0.280 HD
HETATM   12  C   UNL     1     -42.160  58.873 -51.318  1.00  0.00     0.256 C 
HETATM   13  C   UNL     1     -42.203  57.618 -52.215  1.00  0.00     0.169 C 
BRANCH  10  14
HETATM   14  C   UNL     1     -43.605  60.686 -50.255  1.00  0.00     0.337 C 
BRANCH  14  15
HETATM   15  C   UNL     1     -44.998  61.037 -49.707  1.00  0.00     0.248 C 
HETATM   16  N   UNL     1     -45.148  62.383 -49.409  1.00  0.00    -0.325 N 
HETATM   17  H   UNL     1     -44.384  63.006 -49.637  1.00  0.00     0.169 HD
HETATM   18  O   UNL     1     -45.852  60.165 -49.583  1.00  0.00    -0.271 OA
BRANCH  16  19
HETATM   19  C   UNL     1     -46.282  63.015 -48.825  1.00  0.00     0.042 A 
HETATM   20  C   UNL     1     -46.349  63.143 -47.411  1.00  0.00    -0.014 A 
HETATM   21  C   UNL     1     -45.213  62.675 -46.534  1.00  0.00     0.052 C 
HETATM   22  C   UNL     1     -47.516  63.695 -46.837  1.00  0.00     0.042 A 
HETATM   23 CL   UNL     1     -47.732  63.836 -45.127  1.00  0.00    -0.084 Cl
HETATM   24  C   UNL     1     -48.566  64.150 -47.636  1.00  0.00     0.024 A 
HETATM   25  C   UNL     1     -48.479  64.050 -49.018  1.00  0.00     0.004 A 
HETATM   26  C   UNL     1     -47.349  63.483 -49.605  1.00  0.00     0.030 A 
ENDBRANCH  16  19
ENDBRANCH  14  15
ENDBRANCH  10  14
ENDBRANCH   1   7
BRANCH   3  27
HETATM   27  N   UNL     1     -42.808  56.535 -57.952  1.00  0.00    -0.187 N 
HETATM   28  H   UNL     1     -42.314  57.400 -58.121  1.00  0.00     0.184 HD
BRANCH  27  29
HETATM   29  C   UNL     1     -43.820  56.262 -58.888  1.00  0.00     0.049 A 
HETATM   30  C   UNL     1     -43.771  55.210 -59.809  1.00  0.00     0.030 A 
HETATM   31  C   UNL     1     -44.806  55.003 -60.727  1.00  0.00     0.002 A 
HETATM   32  C   UNL     1     -45.900  55.862 -60.756  1.00  0.00     0.000 A 
HETATM   33  C   UNL     1     -45.952  56.935 -59.873  1.00  0.00     0.002 A 
HETATM   34  C   UNL     1     -44.917  57.136 -58.956  1.00  0.00     0.030 A 
ENDBRANCH  27  29
ENDBRANCH   3  27
BRANCH   5  35
HETATM   35  N   UNL     1     -42.225  53.380 -54.552  1.00  0.00    -0.187 N 
HETATM   36  H   UNL     1     -43.079  52.844 -54.638  1.00  0.00     0.184 HD
BRANCH  35  37
HETATM   37  C   UNL     1     -41.259  52.819 -53.705  1.00  0.00     0.049 A 
HETATM   38  C   UNL     1     -40.995  53.300 -52.417  1.00  0.00     0.030 A 
HETATM   39  C   UNL     1     -40.010  52.713 -51.616  1.00  0.00     0.002 A 
HETATM   40  C   UNL     1     -39.252  51.654 -52.106  1.00  0.00     0.000 A 
HETATM   41  C   UNL     1     -39.479  51.181 -53.394  1.00  0.00     0.002 A 
HETATM   42  C   UNL     1     -40.475  51.759 -54.186  1.00  0.00     0.030 A 
ENDBRANCH  35  37
ENDBRANCH   5  35
TORSDOF 8
ENDMDL
MODEL 5
REMARK VINA RESULT:      -8.9     16.579     19.125
REMARK  8 active torsions:
REMARK  status: ('A' for Active; 'I' for Inactive)
REMARK    1  A    between atoms: C_8  and  N_9 
REMARK       I    between atoms: N_9  and  C_10 
REMARK    2  A    between atoms: C_10  and  C_11 
REMARK    3  A    between atoms: C_11  and  N_12 
REMARK    4  A    between atoms: N_16  and  C_17 
REMARK    5  A    between atoms: C_19  and  N_20 
REMARK    6  A    between atoms: N_20  and  C_21 
REMARK    7  A    between atoms: C_28  and  N_29 
REMARK    8  A    between atoms: N_29  and  C_30 
ROOT
HETATM    1  C   UNL     1     -37.870  40.758 -52.926  1.00  0.00     0.756 A 
HETATM    2  N   UNL     1     -36.727  40.966 -52.286  1.00  0.00     0.131 NA
HETATM    3  C   UNL     1     -35.823  41.717 -52.910  1.00  0.00     0.758 A 
HETATM    4  N   UNL     1     -35.974  42.166 -54.146  1.00  0.00     0.131 NA
HETATM    5  C   UNL     1     -37.136  41.913 -54.723  1.00  0.00     0.758 A 
HETATM    6  N   UNL     1     -38.113  41.229 -54.138  1.00  0.00     0.131 NA
ENDROOT
BRANCH   1   7
HETATM    7  N   UNL     1     -38.875  40.031 -52.277  1.00  0.00    -0.210 N 
HETATM    8  C   UNL     1     -38.419  39.272 -51.104  1.00  0.00     0.169 C 
HETATM    9  C   UNL     1     -39.533  38.330 -50.600  1.00  0.00     0.256 C 
HETATM   10  N   UNL     1     -40.821  39.124 -50.355  1.00  0.00    -0.060 N 
HETATM   11  H   UNL     1     -40.574  39.868 -49.694  1.00  0.00     0.280 HD
HETATM   12  C   UNL     1     -41.262  39.805 -51.648  1.00  0.00     0.256 C 
HETATM   13  C   UNL     1     -40.153  40.744 -52.166  1.00  0.00     0.169 C 
BRANCH  10  14
HETATM   14  C   UNL     1     -41.932  38.298 -49.702  1.00  0.00     0.337 C 
BRANCH  14  15
HETATM   15  C   UNL     1     -42.186  38.555 -48.208  1.00  0.00     0.248 C 
HETATM   16  N   UNL     1     -41.066  39.013 -47.531  1.00  0.00    -0.325 N 
HETATM   17  H   UNL     1     -40.230  39.200 -48.071  1.00  0.00     0.169 HD
HETATM   18  O   UNL     1     -43.299  38.367 -47.727  1.00  0.00    -0.271 OA
BRANCH  16  19
HETATM   19  C   UNL     1     -40.949  39.276 -46.136  1.00  0.00     0.042 A 
HETATM   20  C   UNL     1     -40.365  38.292 -45.294  1.00  0.00    -0.014 A 
HETATM   21  C   UNL     1     -39.816  37.007 -45.866  1.00  0.00     0.052 C 
HETATM   22  C   UNL     1     -40.330  38.529 -43.902  1.00  0.00     0.042 A 
HETATM   23 CL   UNL     1     -39.705  37.371 -42.779  1.00  0.00    -0.084 Cl
HETATM   24  C   UNL     1     -40.816  39.720 -43.361  1.00  0.00     0.024 A 
HETATM   25  C   UNL     1     -41.357  40.689 -44.194  1.00  0.00     0.004 A 
HETATM   26  C   UNL     1     -41.426  40.467 -45.568  1.00  0.00     0.030 A 
ENDBRANCH  16  19
ENDBRANCH  14  15
ENDBRANCH  10  14
ENDBRANCH   1   7
BRANCH   3  27
HETATM   27  N   UNL     1     -34.671  41.990 -52.172  1.00  0.00    -0.187 N 
HETATM   28  H   UNL     1     -34.252  42.843 -52.517  1.00  0.00     0.184 HD
BRANCH  27  29
HETATM   29  C   UNL     1     -33.775  41.148 -51.492  1.00  0.00     0.049 A 
HETATM   30  C   UNL     1     -33.988  40.660 -50.199  1.00  0.00     0.030 A 
HETATM   31  C   UNL     1     -33.047  39.836 -49.572  1.00  0.00     0.002 A 
HETATM   32  C   UNL     1     -31.861  39.506 -50.221  1.00  0.00     0.000 A 
HETATM   33  C   UNL     1     -31.613  40.009 -51.494  1.00  0.00     0.002 A 
HETATM   34  C   UNL     1     -32.558  40.829 -52.117  1.00  0.00     0.030 A 
ENDBRANCH  27  29
ENDBRANCH   3  27
BRANCH   5  35
HETATM   35  N   UNL     1     -37.278  42.357 -56.036  1.00  0.00    -0.187 N 
HETATM   36  H   UNL     1     -37.629  43.306 -56.045  1.00  0.00     0.184 HD
BRANCH  35  37
HETATM   37  C   UNL     1     -37.456  41.649 -57.232  1.00  0.00     0.049 A 
HETATM   38  C   UNL     1     -37.964  40.345 -57.284  1.00  0.00     0.030 A 
HETATM   39  C   UNL     1     -38.110  39.676 -58.503  1.00  0.00     0.002 A 
HETATM   40  C   UNL     1     -37.720  40.293 -59.689  1.00  0.00     0.000 A 
HETATM   41  C   UNL     1     -37.186  41.577 -59.655  1.00  0.00     0.002 A 
HETATM   42  C   UNL     1     -37.057  42.248 -58.436  1.00  0.00     0.030 A 
ENDBRANCH  35  37
ENDBRANCH   5  35
TORSDOF 8
ENDMDL
MODEL 6
REMARK VINA RESULT:      -8.9      5.358      9.231
REMARK  8 active torsions:
REMARK  status: ('A' for Active; 'I' for Inactive)
REMARK    1  A    between atoms: C_8  and  N_9 
REMARK       I    between atoms: N_9  and  C_10 
REMARK    2  A    between atoms: C_10  and  C_11 
REMARK    3  A    between atoms: C_11  and  N_12 
REMARK    4  A    between atoms: N_16  and  C_17 
REMARK    5  A    between atoms: C_19  and  N_20 
REMARK    6  A    between atoms: N_20  and  C_21 
REMARK    7  A    between atoms: C_28  and  N_29 
REMARK    8  A    between atoms: N_29  and  C_30 
ROOT
HETATM    1  C   UNL     1     -43.094  57.359 -54.765  1.00  0.00     0.756 A 
HETATM    2  N   UNL     1     -43.030  56.306 -53.963  1.00  0.00     0.131 NA
HETATM    3  C   UNL     1     -42.790  55.131 -54.540  1.00  0.00     0.758 A 
HETATM    4  N   UNL     1     -42.717  54.964 -55.851  1.00  0.00     0.131 NA
HETATM    5  C   UNL     1     -42.797  56.060 -56.587  1.00  0.00     0.758 A 
HETATM    6  N   UNL     1     -42.967  57.275 -56.078  1.00  0.00     0.131 NA
ENDROOT
BRANCH   1   7
HETATM    7  N   UNL     1     -43.276  58.624 -54.191  1.00  0.00    -0.210 N 
HETATM    8  C   UNL     1     -44.032  58.620 -52.930  1.00  0.00     0.169 C 
HETATM    9  C   UNL     1     -44.379  60.060 -52.500  1.00  0.00     0.256 C 
HETATM   10  N   UNL     1     -43.108  60.914 -52.450  1.00  0.00    -0.060 N 
HETATM   11  H   UNL     1     -42.466  60.432 -51.811  1.00  0.00     0.280 HD
HETATM   12  C   UNL     1     -42.440  60.929 -53.824  1.00  0.00     0.256 C 
HETATM   13  C   UNL     1     -42.096  59.492 -54.268  1.00  0.00     0.169 C 
BRANCH  10  14
HETATM   14  C   UNL     1     -43.335  62.316 -51.879  1.00  0.00     0.337 C 
BRANCH  14  15
HETATM   15  C   UNL     1     -44.423  62.445 -50.799  1.00  0.00     0.248 C 
HETATM   16  N   UNL     1     -43.946  62.244 -49.513  1.00  0.00    -0.325 N 
HETATM   17  H   UNL     1     -42.951  62.107 -49.393  1.00  0.00     0.169 HD
HETATM   18  O   UNL     1     -45.577  62.716 -51.113  1.00  0.00    -0.271 OA
BRANCH  16  19
HETATM   19  C   UNL     1     -44.703  62.225 -48.307  1.00  0.00     0.042 A 
HETATM   20  C   UNL     1     -44.809  63.417 -47.540  1.00  0.00    -0.014 A 
HETATM   21  C   UNL     1     -44.185  64.706 -48.017  1.00  0.00     0.052 C 
HETATM   22  C   UNL     1     -45.490  63.365 -46.304  1.00  0.00     0.042 A 
HETATM   23 CL   UNL     1     -45.621  64.738 -45.258  1.00  0.00    -0.084 Cl
HETATM   24  C   UNL     1     -46.089  62.186 -45.859  1.00  0.00     0.024 A 
HETATM   25  C   UNL     1     -46.007  61.034 -46.629  1.00  0.00     0.004 A 
HETATM   26  C   UNL     1     -45.317  61.054 -47.840  1.00  0.00     0.030 A 
ENDBRANCH  16  19
ENDBRANCH  14  15
ENDBRANCH  10  14
ENDBRANCH   1   7
BRANCH   3  27
HETATM   27  N   UNL     1     -42.639  54.059 -53.660  1.00  0.00    -0.187 N 
HETATM   28  H   UNL     1     -43.329  54.134 -52.926  1.00  0.00     0.184 HD
BRANCH  27  29
HETATM   29  C   UNL     1     -41.518  53.285 -53.315  1.00  0.00     0.049 A 
HETATM   30  C   UNL     1     -40.940  52.326 -54.154  1.00  0.00     0.030 A 
HETATM   31  C   UNL     1     -39.832  51.577 -53.741  1.00  0.00     0.002 A 
HETATM   32  C   UNL     1     -39.298  51.758 -52.469  1.00  0.00     0.000 A 
HETATM   33  C   UNL     1     -39.878  52.681 -51.606  1.00  0.00     0.002 A 
HETATM   34  C   UNL     1     -40.983  53.429 -52.024  1.00  0.00     0.030 A 
ENDBRANCH  27  29
ENDBRANCH   3  27
BRANCH   5  35
HETATM   35  N   UNL     1     -42.754  55.875 -57.967  1.00  0.00    -0.187 N 
HETATM   36  H   UNL     1     -41.855  56.166 -58.328  1.00  0.00     0.184 HD
BRANCH  35  37
HETATM   37  C   UNL     1     -43.781  55.812 -58.919  1.00  0.00     0.049 A 
HETATM   38  C   UNL     1     -44.084  54.655 -59.647  1.00  0.00     0.030 A 
HETATM   39  C   UNL     1     -45.111  54.649 -60.597  1.00  0.00     0.002 A 
HETATM   40  C   UNL     1     -45.831  55.812 -60.853  1.00  0.00     0.000 A 
HETATM   41  C   UNL     1     -45.525  56.979 -60.162  1.00  0.00     0.002 A 
HETATM   42  C   UNL     1     -44.509  56.978 -59.202  1.00  0.00     0.030 A 
ENDBRANCH  35  37
ENDBRANCH   5  35
TORSDOF 8
ENDMDL
MODEL 7
REMARK VINA RESULT:      -8.8      3.133      5.939
REMARK  8 active torsions:
REMARK  status: ('A' for Active; 'I' for Inactive)
REMARK    1  A    between atoms: C_8  and  N_9 
REMARK       I    between atoms: N_9  and  C_10 
REMARK    2  A    between atoms: C_10  and  C_11 
REMARK    3  A    between atoms: C_11  and  N_12 
REMARK    4  A    between atoms: N_16  and  C_17 
REMARK    5  A    between atoms: C_19  and  N_20 
REMARK    6  A    between atoms: N_20  and  C_21 
REMARK    7  A    between atoms: C_28  and  N_29 
REMARK    8  A    between atoms: N_29  and  C_30 
ROOT
HETATM    1  C   UNL     1     -43.791  57.884 -53.568  1.00  0.00     0.756 A 
HETATM    2  N   UNL     1     -44.181  59.112 -53.259  1.00  0.00     0.131 NA
HETATM    3  C   UNL     1     -44.872  59.769 -54.187  1.00  0.00     0.758 A 
HETATM    4  N   UNL     1     -45.090  59.298 -55.405  1.00  0.00     0.131 NA
HETATM    5  C   UNL     1     -44.666  58.068 -55.642  1.00  0.00     0.758 A 
HETATM    6  N   UNL     1     -44.029  57.326 -54.743  1.00  0.00     0.131 NA
ENDROOT
BRANCH   1   7
HETATM    7  N   UNL     1     -43.121  57.132 -52.595  1.00  0.00    -0.210 N 
HETATM    8  C   UNL     1     -41.819  57.681 -52.188  1.00  0.00     0.169 C 
HETATM    9  C   UNL     1     -41.061  56.676 -51.296  1.00  0.00     0.256 C 
HETATM   10  N   UNL     1     -41.943  56.249 -50.118  1.00  0.00    -0.060 N 
HETATM   11  H   UNL     1     -42.211  57.113 -49.635  1.00  0.00     0.280 HD
HETATM   12  C   UNL     1     -43.230  55.612 -50.639  1.00  0.00     0.256 C 
HETATM   13  C   UNL     1     -43.993  56.606 -51.539  1.00  0.00     0.169 C 
BRANCH  10  14
HETATM   14  C   UNL     1     -41.214  55.375 -49.094  1.00  0.00     0.337 C 
BRANCH  14  15
HETATM   15  C   UNL     1     -40.301  54.275 -49.662  1.00  0.00     0.248 C 
HETATM   16  N   UNL     1     -40.992  53.281 -50.337  1.00  0.00    -0.325 N 
HETATM   17  H   UNL     1     -41.991  53.397 -50.456  1.00  0.00     0.169 HD
HETATM   18  O   UNL     1     -39.085  54.340 -49.509  1.00  0.00    -0.271 OA
BRANCH  16  19
HETATM   19  C   UNL     1     -40.454  52.096 -50.914  1.00  0.00     0.042 A 
HETATM   20  C   UNL     1     -40.213  52.058 -52.314  1.00  0.00    -0.014 A 
HETATM   21  C   UNL     1     -40.462  53.270 -53.179  1.00  0.00     0.052 C 
HETATM   22  C   UNL     1     -39.759  50.850 -52.888  1.00  0.00     0.042 A 
HETATM   23 CL   UNL     1     -39.498  50.671 -54.589  1.00  0.00    -0.084 Cl
HETATM   24  C   UNL     1     -39.505  49.727 -52.099  1.00  0.00     0.024 A 
HETATM   25  C   UNL     1     -39.714  49.783 -50.728  1.00  0.00     0.004 A 
HETATM   26  C   UNL     1     -40.187  50.956 -50.142  1.00  0.00     0.030 A 
ENDBRANCH  16  19
ENDBRANCH  14  15
ENDBRANCH  10  14
ENDBRANCH   1   7
BRANCH   3  27
HETATM   27  N   UNL     1     -45.344  61.023 -53.797  1.00  0.00    -0.187 N 
HETATM   28  H   UNL     1     -45.318  61.648 -54.590  1.00  0.00     0.184 HD
BRANCH  27  29
HETATM   29  C   UNL     1     -45.340  61.677 -52.553  1.00  0.00     0.049 A 
HETATM   30  C   UNL     1     -44.318  62.529 -52.120  1.00  0.00     0.030 A 
HETATM   31  C   UNL     1     -44.368  63.137 -50.861  1.00  0.00     0.002 A 
HETATM   32  C   UNL     1     -45.432  62.884 -50.002  1.00  0.00     0.000 A 
HETATM   33  C   UNL     1     -46.441  62.013 -50.398  1.00  0.00     0.002 A 
HETATM   34  C   UNL     1     -46.389  61.410 -51.658  1.00  0.00     0.030 A 
ENDBRANCH  27  29
ENDBRANCH   3  27
BRANCH   5  35
HETATM   35  N   UNL     1     -44.866  57.590 -56.934  1.00  0.00    -0.187 N 
HETATM   36  H   UNL     1     -45.703  57.022 -56.968  1.00  0.00     0.184 HD
BRANCH  35  37
HETATM   37  C   UNL     1     -43.965  57.377 -57.987  1.00  0.00     0.049 A 
HETATM   38  C   UNL     1     -44.006  56.249 -58.816  1.00  0.00     0.030 A 
HETATM   39  C   UNL     1     -43.074  56.077 -59.845  1.00  0.00     0.002 A 
HETATM   40  C   UNL     1     -42.067  57.018 -60.039  1.00  0.00     0.000 A 
HETATM   41  C   UNL     1     -41.992  58.129 -59.206  1.00  0.00     0.002 A 
HETATM   42  C   UNL     1     -42.934  58.306 -58.189  1.00  0.00     0.030 A 
ENDBRANCH  35  37
ENDBRANCH   5  35
TORSDOF 8
ENDMDL
MODEL 8
REMARK VINA RESULT:      -8.7      1.870      5.302
REMARK  8 active torsions:
REMARK  status: ('A' for Active; 'I' for Inactive)
REMARK    1  A    between atoms: C_8  and  N_9 
REMARK       I    between atoms: N_9  and  C_10 
REMARK    2  A    between atoms: C_10  and  C_11 
REMARK    3  A    between atoms: C_11  and  N_12 
REMARK    4  A    between atoms: N_16  and  C_17 
REMARK    5  A    between atoms: C_19  and  N_20 
REMARK    6  A    between atoms: N_20  and  C_21 
REMARK    7  A    between atoms: C_28  and  N_29 
REMARK    8  A    between atoms: N_29  and  C_30 
ROOT
HETATM    1  C   UNL     1     -43.825  58.851 -57.291  1.00  0.00     0.756 A 
HETATM    2  N   UNL     1     -42.795  59.209 -58.046  1.00  0.00     0.131 NA
HETATM    3  C   UNL     1     -43.082  59.725 -59.238  1.00  0.00     0.758 A 
HETATM    4  N   UNL     1     -44.310  59.798 -59.726  1.00  0.00     0.131 NA
HETATM    5  C   UNL     1     -45.285  59.415 -58.918  1.00  0.00     0.758 A 
HETATM    6  N   UNL     1     -45.082  58.954 -57.689  1.00  0.00     0.131 NA
ENDROOT
BRANCH   1   7
HETATM    7  N   UNL     1     -43.570  58.368 -56.001  1.00  0.00    -0.210 N 
HETATM    8  C   UNL     1     -44.616  57.487 -55.461  1.00  0.00     0.169 C 
HETATM    9  C   UNL     1     -44.363  57.197 -53.967  1.00  0.00     0.256 C 
HETATM   10  N   UNL     1     -42.943  56.656 -53.769  1.00  0.00    -0.060 N 
HETATM   11  H   UNL     1     -42.867  55.830 -54.373  1.00  0.00     0.280 HD
HETATM   12  C   UNL     1     -41.926  57.675 -54.280  1.00  0.00     0.256 C 
HETATM   13  C   UNL     1     -42.174  57.980 -55.772  1.00  0.00     0.169 C 
BRANCH  10  14
HETATM   14  C   UNL     1     -42.660  56.191 -52.339  1.00  0.00     0.337 C 
BRANCH  14  15
HETATM   15  C   UNL     1     -42.424  54.683 -52.145  1.00  0.00     0.248 C 
HETATM   16  N   UNL     1     -41.083  54.333 -52.140  1.00  0.00    -0.325 N 
HETATM   17  H   UNL     1     -40.399  55.078 -52.190  1.00  0.00     0.169 HD
HETATM   18  O   UNL     1     -43.375  53.922 -52.001  1.00  0.00    -0.271 OA
BRANCH  16  19
HETATM   19  C   UNL     1     -40.535  53.022 -52.053  1.00  0.00     0.042 A 
HETATM   20  C   UNL     1     -40.225  52.322 -53.250  1.00  0.00    -0.014 A 
HETATM   21  C   UNL     1     -40.412  52.971 -54.600  1.00  0.00     0.052 C 
HETATM   22  C   UNL     1     -39.761  50.992 -53.153  1.00  0.00     0.042 A 
HETATM   23 CL   UNL     1     -39.418  50.024 -54.546  1.00  0.00    -0.084 Cl
HETATM   24  C   UNL     1     -39.564  50.385 -51.912  1.00  0.00     0.024 A 
HETATM   25  C   UNL     1     -39.840  51.087 -50.747  1.00  0.00     0.004 A 
HETATM   26  C   UNL     1     -40.325  52.392 -50.818  1.00  0.00     0.030 A 
ENDBRANCH  16  19
ENDBRANCH  14  15
ENDBRANCH  10  14
ENDBRANCH   1   7
BRANCH   3  27
HETATM   27  N   UNL     1     -41.982  60.174 -59.969  1.00  0.00    -0.187 N 
HETATM   28  H   UNL     1     -41.408  59.382 -60.223  1.00  0.00     0.184 HD
BRANCH  27  29
HETATM   29  C   UNL     1     -41.295  61.400 -59.964  1.00  0.00     0.049 A 
HETATM   30  C   UNL     1     -41.006  62.140 -61.116  1.00  0.00     0.030 A 
HETATM   31  C   UNL     1     -40.303  63.347 -61.044  1.00  0.00     0.002 A 
HETATM   32  C   UNL     1     -39.854  63.825 -59.816  1.00  0.00     0.000 A 
HETATM   33  C   UNL     1     -40.100  63.088 -58.662  1.00  0.00     0.002 A 
HETATM   34  C   UNL     1     -40.805  61.884 -58.739  1.00  0.00     0.030 A 
ENDBRANCH  27  29
ENDBRANCH   3  27
BRANCH   5  35
HETATM   35  N   UNL     1     -46.572  59.461 -59.447  1.00  0.00    -0.187 N 
HETATM   36  H   UNL     1     -47.187  59.966 -58.822  1.00  0.00     0.184 HD
BRANCH  35  37
HETATM   37  C   UNL     1     -47.222  58.619 -60.361  1.00  0.00     0.049 A 
HETATM   38  C   UNL     1     -46.984  57.242 -60.439  1.00  0.00     0.030 A 
HETATM   39  C   UNL     1     -47.648  56.447 -61.380  1.00  0.00     0.002 A 
HETATM   40  C   UNL     1     -48.539  57.028 -62.278  1.00  0.00     0.000 A 
HETATM   41  C   UNL     1     -48.766  58.399 -62.236  1.00  0.00     0.002 A 
HETATM   42  C   UNL     1     -48.113  59.187 -61.284  1.00  0.00     0.030 A 
ENDBRANCH  35  37
ENDBRANCH   5  35
TORSDOF 8
ENDMDL
MODEL 9
REMARK VINA RESULT:      -8.6      3.726      9.569
REMARK  8 active torsions:
REMARK  status: ('A' for Active; 'I' for Inactive)
REMARK    1  A    between atoms: C_8  and  N_9 
REMARK       I    between atoms: N_9  and  C_10 
REMARK    2  A    between atoms: C_10  and  C_11 
REMARK    3  A    between atoms: C_11  and  N_12 
REMARK    4  A    between atoms: N_16  and  C_17 
REMARK    5  A    between atoms: C_19  and  N_20 
REMARK    6  A    between atoms: N_20  and  C_21 
REMARK    7  A    between atoms: C_28  and  N_29 
REMARK    8  A    between atoms: N_29  and  C_30 
ROOT
HETATM    1  C   UNL     1     -42.890  56.451 -53.892  1.00  0.00     0.756 A 
HETATM    2  N   UNL     1     -41.984  55.570 -53.491  1.00  0.00     0.131 NA
HETATM    3  C   UNL     1     -41.881  55.378 -52.178  1.00  0.00     0.758 A 
HETATM    4  N   UNL     1     -42.553  56.082 -51.282  1.00  0.00     0.131 NA
HETATM    5  C   UNL     1     -43.434  56.946 -51.757  1.00  0.00     0.758 A 
HETATM    6  N   UNL     1     -43.642  57.145 -53.054  1.00  0.00     0.131 NA
ENDROOT
BRANCH   1   7
HETATM    7  N   UNL     1     -43.080  56.633 -55.268  1.00  0.00    -0.210 N 
HETATM    8  C   UNL     1     -42.858  55.427 -56.079  1.00  0.00     0.169 C 
HETATM    9  C   UNL     1     -42.862  55.777 -57.582  1.00  0.00     0.256 C 
HETATM   10  N   UNL     1     -44.145  56.532 -57.943  1.00  0.00    -0.060 N 
HETATM   11  H   UNL     1     -44.922  55.926 -57.654  1.00  0.00     0.280 HD
HETATM   12  C   UNL     1     -44.244  57.809 -57.113  1.00  0.00     0.256 C 
HETATM   13  C   UNL     1     -44.233  57.473 -55.607  1.00  0.00     0.169 C 
BRANCH  10  14
HETATM   14  C   UNL     1     -44.307  56.778 -59.445  1.00  0.00     0.337 C 
BRANCH  14  15
HETATM   15  C   UNL     1     -43.227  57.644 -60.115  1.00  0.00     0.248 C 
HETATM   16  N   UNL     1     -43.433  59.005 -59.949  1.00  0.00    -0.325 N 
HETATM   17  H   UNL     1     -44.204  59.299 -59.363  1.00  0.00     0.169 HD
HETATM   18  O   UNL     1     -42.294  57.118 -60.712  1.00  0.00    -0.271 OA
BRANCH  16  19
HETATM   19  C   UNL     1     -42.661  60.067 -60.500  1.00  0.00     0.042 A 
HETATM   20  C   UNL     1     -41.734  60.750 -59.668  1.00  0.00    -0.014 A 
HETATM   21  C   UNL     1     -41.515  60.326 -58.236  1.00  0.00     0.052 C 
HETATM   22  C   UNL     1     -41.035  61.856 -60.201  1.00  0.00     0.042 A 
HETATM   23 CL   UNL     1     -39.934  62.801 -59.259  1.00  0.00    -0.084 Cl
HETATM   24  C   UNL     1     -41.212  62.248 -61.529  1.00  0.00     0.024 A 
HETATM   25  C   UNL     1     -42.097  61.556 -62.344  1.00  0.00     0.004 A 
HETATM   26  C   UNL     1     -42.818  60.479 -61.831  1.00  0.00     0.030 A 
ENDBRANCH  16  19
ENDBRANCH  14  15
ENDBRANCH  10  14
ENDBRANCH   1   7
BRANCH   3  27
HETATM   27  N   UNL     1     -40.983  54.380 -51.795  1.00  0.00    -0.187 N 
HETATM   28  H   UNL     1     -40.284  54.781 -51.186  1.00  0.00     0.184 HD
BRANCH  27  29
HETATM   29  C   UNL     1     -40.575  53.196 -52.432  1.00  0.00     0.049 A 
HETATM   30  C   UNL     1     -40.854  52.889 -53.768  1.00  0.00     0.030 A 
HETATM   31  C   UNL     1     -40.432  51.683 -54.337  1.00  0.00     0.002 A 
HETATM   32  C   UNL     1     -39.743  50.749 -53.570  1.00  0.00     0.000 A 
HETATM   33  C   UNL     1     -39.485  51.018 -52.230  1.00  0.00     0.002 A 
HETATM   34  C   UNL     1     -39.906  52.226 -51.667  1.00  0.00     0.030 A 
ENDBRANCH  27  29
ENDBRANCH   3  27
BRANCH   5  35
HETATM   35  N   UNL     1     -44.114  57.710 -50.811  1.00  0.00    -0.187 N 
HETATM   36  H   UNL     1     -44.650  57.107 -50.200  1.00  0.00     0.184 HD
BRANCH  35  37
HETATM   37  C   UNL     1     -44.531  59.048 -50.836  1.00  0.00     0.049 A 
HETATM   38  C   UNL     1     -45.871  59.433 -50.960  1.00  0.00     0.030 A 
HETATM   39  C   UNL     1     -46.233  60.784 -50.994  1.00  0.00     0.002 A 
HETATM   40  C   UNL     1     -45.253  61.770 -50.935  1.00  0.00     0.000 A 
HETATM   41  C   UNL     1     -43.914  61.408 -50.841  1.00  0.00     0.002 A 
HETATM   42  C   UNL     1     -43.557  60.057 -50.791  1.00  0.00     0.030 A 
ENDBRANCH  35  37
ENDBRANCH   5  35
TORSDOF 8
ENDMDL
MODEL 10
REMARK VINA RESULT:      -8.6      5.483      9.368
REMARK  8 active torsions:
REMARK  status: ('A' for Active; 'I' for Inactive)
REMARK    1  A    between atoms: C_8  and  N_9 
REMARK       I    between atoms: N_9  and  C_10 
REMARK    2  A    between atoms: C_10  and  C_11 
REMARK    3  A    between atoms: C_11  and  N_12 
REMARK    4  A    between atoms: N_16  and  C_17 
REMARK    5  A    between atoms: C_19  and  N_20 
REMARK    6  A    between atoms: N_20  and  C_21 
REMARK    7  A    between atoms: C_28  and  N_29 
REMARK    8  A    between atoms: N_29  and  C_30 
ROOT
HETATM    1  C   UNL     1     -43.348  57.589 -54.101  1.00  0.00     0.756 A 
HETATM    2  N   UNL     1     -43.035  57.637 -55.388  1.00  0.00     0.131 NA
HETATM    3  C   UNL     1     -42.720  56.482 -55.968  1.00  0.00     0.758 A 
HETATM    4  N   UNL     1     -42.610  55.340 -55.309  1.00  0.00     0.131 NA
HETATM    5  C   UNL     1     -42.932  55.371 -54.027  1.00  0.00     0.758 A 
HETATM    6  N   UNL     1     -43.322  56.471 -53.394  1.00  0.00     0.131 NA
ENDROOT
BRANCH   1   7
HETATM    7  N   UNL     1     -43.754  58.771 -53.469  1.00  0.00    -0.210 N 
HETATM    8  C   UNL     1     -42.707  59.799 -53.367  1.00  0.00     0.169 C 
HETATM    9  C   UNL     1     -43.172  60.958 -52.461  1.00  0.00     0.256 C 
HETATM   10  N   UNL     1     -44.519  61.500 -52.949  1.00  0.00    -0.060 N 
HETATM   11  H   UNL     1     -44.379  61.768 -53.930  1.00  0.00     0.280 HD
HETATM   12  C   UNL     1     -45.561  60.383 -52.938  1.00  0.00     0.256 C 
HETATM   13  C   UNL     1     -45.104  59.213 -53.835  1.00  0.00     0.169 C 
BRANCH  10  14
HETATM   14  C   UNL     1     -44.979  62.755 -52.205  1.00  0.00     0.337 C 
BRANCH  14  15
HETATM   15  C   UNL     1     -44.690  62.799 -50.695  1.00  0.00     0.248 C 
HETATM   16  N   UNL     1     -45.581  62.048 -49.944  1.00  0.00    -0.325 N 
HETATM   17  H   UNL     1     -46.273  61.499 -50.439  1.00  0.00     0.169 HD
HETATM   18  O   UNL     1     -43.740  63.444 -50.265  1.00  0.00    -0.271 OA
BRANCH  16  19
HETATM   19  C   UNL     1     -45.632  61.936 -48.525  1.00  0.00     0.042 A 
HETATM   20  C   UNL     1     -46.590  62.699 -47.806  1.00  0.00    -0.014 A 
HETATM   21  C   UNL     1     -47.588  63.573 -48.528  1.00  0.00     0.052 C 
HETATM   22  C   UNL     1     -46.576  62.644 -46.395  1.00  0.00     0.042 A 
HETATM   23 CL   UNL     1     -47.652  63.583 -45.418  1.00  0.00    -0.084 Cl
HETATM   24  C   UNL     1     -45.673  61.826 -45.714  1.00  0.00     0.024 A 
HETATM   25  C   UNL     1     -44.760  61.060 -46.425  1.00  0.00     0.004 A 
HETATM   26  C   UNL     1     -44.738  61.119 -47.818  1.00  0.00     0.030 A 
ENDBRANCH  16  19
ENDBRANCH  14  15
ENDBRANCH  10  14
ENDBRANCH   1   7
BRANCH   3  27
HETATM   27  N   UNL     1     -42.484  56.554 -57.342  1.00  0.00    -0.187 N 
HETATM   28  H   UNL     1     -41.724  57.197 -57.514  1.00  0.00     0.184 HD
BRANCH  27  29
HETATM   29  C   UNL     1     -43.332  56.363 -58.446  1.00  0.00     0.049 A 
HETATM   30  C   UNL     1     -44.000  57.399 -59.109  1.00  0.00     0.030 A 
HETATM   31  C   UNL     1     -44.844  57.139 -60.194  1.00  0.00     0.002 A 
HETATM   32  C   UNL     1     -45.053  55.831 -60.621  1.00  0.00     0.000 A 
HETATM   33  C   UNL     1     -44.426  54.783 -59.956  1.00  0.00     0.002 A 
HETATM   34  C   UNL     1     -43.582  55.049 -58.874  1.00  0.00     0.030 A 
ENDBRANCH  27  29
ENDBRANCH   3  27
BRANCH   5  35
HETATM   35  N   UNL     1     -42.782  54.175 -53.329  1.00  0.00    -0.187 N 
HETATM   36  H   UNL     1     -43.575  54.028 -52.718  1.00  0.00     0.184 HD
BRANCH  35  37
HETATM   37  C   UNL     1     -41.634  53.443 -52.993  1.00  0.00     0.049 A 
HETATM   38  C   UNL     1     -41.013  53.521 -51.741  1.00  0.00     0.030 A 
HETATM   39  C   UNL     1     -39.859  52.780 -51.460  1.00  0.00     0.002 A 
HETATM   40  C   UNL     1     -39.294  51.972 -52.442  1.00  0.00     0.000 A 
HETATM   41  C   UNL     1     -39.880  51.904 -53.702  1.00  0.00     0.002 A 
HETATM   42  C   UNL     1     -41.041  52.634 -53.974  1.00  0.00     0.030 A 
ENDBRANCH  35  37
ENDBRANCH   5  35
TORSDOF 8
ENDMDL
