MODEL 1
REMARK VINA RESULT:      -7.8      0.000      0.000
REMARK  6 active torsions:
REMARK  status: ('A' for Active; 'I' for Inactive)
REMARK    1  A    between atoms: C_3  and  O_4 
REMARK    2  A    between atoms: O_4  and  C_5 
REMARK    3  A    between atoms: C_5  and  C_6 
REMARK    4  A    between atoms: C_15  and  C_16 
REMARK       I    between atoms: C_16  and  N_17 
REMARK    5  A    between atoms: N_17  and  N_18 
REMARK       I    between atoms: N_18  and  C_19 
REMARK    6  A    between atoms: C_19  and  C_20 
ROOT
HETATM    1  C   UNL     1     -42.469  55.674 -56.075  1.00  0.00     0.051 C 
HETATM    2  C   UNL     1     -42.738  55.882 -54.610  1.00  0.00    -0.027 A 
HETATM    3  C   UNL     1     -42.562  54.850 -53.672  1.00  0.00     0.081 A 
HETATM    4  C   UNL     1     -42.883  55.045 -52.319  1.00  0.00    -0.027 A 
HETATM    5  C   UNL     1     -42.819  53.940 -51.303  1.00  0.00     0.051 C 
HETATM    6  C   UNL     1     -43.257  56.331 -51.894  1.00  0.00     0.026 A 
HETATM    7  C   UNL     1     -43.359  57.393 -52.802  1.00  0.00     0.034 A 
HETATM    8  C   UNL     1     -43.123  57.157 -54.161  1.00  0.00     0.026 A 
ENDROOT
BRANCH   7   9
HETATM    9  C   UNL     1     -43.743  58.732 -52.272  1.00  0.00     0.270 C 
HETATM   10  N   UNL     1     -43.697  58.899 -50.902  1.00  0.00    -0.263 N 
HETATM   11  H   UNL     1     -43.565  58.144 -50.234  1.00  0.00     0.190 HD
HETATM   12  O   UNL     1     -44.113  59.627 -53.028  1.00  0.00    -0.266 OA
BRANCH  10  13
HETATM   13  N   UNL     1     -44.172  60.105 -50.375  1.00  0.00    -0.262 N 
HETATM   14  C   UNL     1     -45.401  60.128 -49.753  1.00  0.00     0.286 C 
HETATM   15  O   UNL     1     -46.087  59.111 -49.639  1.00  0.00    -0.264 OA
HETATM   16  H   UNL     1     -43.578  60.921 -50.495  1.00  0.00     0.190 HD
BRANCH  14  17
HETATM   17  C   UNL     1     -45.825  61.417 -49.252  1.00  0.00     0.102 A 
HETATM   18  N   UNL     1     -46.068  62.474 -50.106  1.00  0.00    -0.361 N 
HETATM   19  H   UNL     1     -45.970  62.416 -51.113  1.00  0.00     0.165 HD
HETATM   20  C   UNL     1     -46.454  63.579 -49.398  1.00  0.00     0.088 A 
HETATM   21  C   UNL     1     -46.458  63.244 -48.065  1.00  0.00     0.019 A 
HETATM   22  C   UNL     1     -46.064  61.886 -47.970  1.00  0.00     0.036 A 
ENDBRANCH  14  17
ENDBRANCH  10  13
ENDBRANCH   7   9
BRANCH   3  23
HETATM   23  O   UNL     1     -42.130  53.634 -54.143  1.00  0.00    -0.346 OA
BRANCH  23  24
HETATM   24  C   UNL     1     -40.700  53.512 -54.090  1.00  0.00     0.216 C 
BRANCH  24  25
HETATM   25  C   UNL     1     -40.266  52.156 -53.597  1.00  0.00    -0.017 A 
HETATM   26  C   UNL     1     -39.861  52.014 -52.271  1.00  0.00     0.125 A 
HETATM   27  N   UNL     1     -39.468  50.848 -51.711  1.00  0.00    -0.272 NA
HETATM   28  C   UNL     1     -39.483  49.760 -52.508  1.00  0.00     0.116 A 
HETATM   29  C   UNL     1     -39.880  49.786 -53.834  1.00  0.00     0.020 A 
HETATM   30  C   UNL     1     -40.282  51.001 -54.382  1.00  0.00     0.012 A 
ENDBRANCH  24  25
ENDBRANCH  23  24
ENDBRANCH   3  23
TORSDOF 6
ENDMDL
MODEL 2
REMARK VINA RESULT:      -7.6      4.228      5.680
REMARK  6 active torsions:
REMARK  status: ('A' for Active; 'I' for Inactive)
REMARK    1  A    between atoms: C_3  and  O_4 
REMARK    2  A    between atoms: O_4  and  C_5 
REMARK    3  A    between atoms: C_5  and  C_6 
REMARK    4  A    between atoms: C_15  and  C_16 
REMARK       I    between atoms: C_16  and  N_17 
REMARK    5  A    between atoms: N_17  and  N_18 
REMARK       I    between atoms: N_18  and  C_19 
REMARK    6  A    between atoms: C_19  and  C_20 
ROOT
HETATM    1  C   UNL     1     -42.188  53.977 -54.651  1.00  0.00     0.051 C 
HETATM    2  C   UNL     1     -41.898  55.181 -53.798  1.00  0.00    -0.027 A 
HETATM    3  C   UNL     1     -41.565  55.059 -52.438  1.00  0.00     0.081 A 
HETATM    4  C   UNL     1     -41.364  56.199 -51.642  1.00  0.00    -0.027 A 
HETATM    5  C   UNL     1     -41.119  56.121 -50.162  1.00  0.00     0.051 C 
HETATM    6  C   UNL     1     -41.368  57.461 -52.259  1.00  0.00     0.026 A 
HETATM    7  C   UNL     1     -41.617  57.595 -53.632  1.00  0.00     0.034 A 
HETATM    8  C   UNL     1     -41.906  56.456 -54.390  1.00  0.00     0.026 A 
ENDROOT
BRANCH   7   9
HETATM    9  C   UNL     1     -41.585  58.966 -54.217  1.00  0.00     0.270 C 
HETATM   10  N   UNL     1     -41.976  59.093 -55.535  1.00  0.00    -0.263 N 
HETATM   11  H   UNL     1     -42.138  58.311 -56.165  1.00  0.00     0.190 HD
HETATM   12  O   UNL     1     -41.196  59.926 -53.554  1.00  0.00    -0.266 OA
BRANCH  10  13
HETATM   13  N   UNL     1     -41.835  60.346 -56.141  1.00  0.00    -0.262 N 
HETATM   14  C   UNL     1     -41.680  60.419 -57.507  1.00  0.00     0.286 C 
HETATM   15  O   UNL     1     -41.676  59.407 -58.211  1.00  0.00    -0.264 OA
HETATM   16  H   UNL     1     -41.839  61.154 -55.524  1.00  0.00     0.190 HD
BRANCH  14  17
HETATM   17  C   UNL     1     -41.524  61.749 -58.050  1.00  0.00     0.102 A 
HETATM   18  N   UNL     1     -41.867  62.867 -57.316  1.00  0.00    -0.361 N 
HETATM   19  H   UNL     1     -42.239  62.829 -56.375  1.00  0.00     0.165 HD
HETATM   20  C   UNL     1     -41.629  64.004 -58.041  1.00  0.00     0.088 A 
HETATM   21  C   UNL     1     -41.130  63.625 -59.265  1.00  0.00     0.019 A 
HETATM   22  C   UNL     1     -41.062  62.210 -59.273  1.00  0.00     0.036 A 
ENDBRANCH  14  17
ENDBRANCH  10  13
ENDBRANCH   7   9
BRANCH   3  23
HETATM   23  O   UNL     1     -41.513  53.792 -51.910  1.00  0.00    -0.346 OA
BRANCH  23  24
HETATM   24  C   UNL     1     -40.164  53.361 -51.675  1.00  0.00     0.216 C 
BRANCH  24  25
HETATM   25  C   UNL     1     -39.908  51.980 -52.219  1.00  0.00    -0.017 A 
HETATM   26  C   UNL     1     -39.741  50.921 -51.330  1.00  0.00     0.125 A 
HETATM   27  N   UNL     1     -39.525  49.638 -51.698  1.00  0.00    -0.272 NA
HETATM   28  C   UNL     1     -39.477  49.390 -53.023  1.00  0.00     0.116 A 
HETATM   29  C   UNL     1     -39.643  50.365 -53.993  1.00  0.00     0.020 A 
HETATM   30  C   UNL     1     -39.868  51.677 -53.582  1.00  0.00     0.012 A 
ENDBRANCH  24  25
ENDBRANCH  23  24
ENDBRANCH   3  23
TORSDOF 6
ENDMDL
MODEL 3
REMARK VINA RESULT:      -7.6      0.353      1.701
REMARK  6 active torsions:
REMARK  status: ('A' for Active; 'I' for Inactive)
REMARK    1  A    between atoms: C_3  and  O_4 
REMARK    2  A    between atoms: O_4  and  C_5 
REMARK    3  A    between atoms: C_5  and  C_6 
REMARK    4  A    between atoms: C_15  and  C_16 
REMARK       I    between atoms: C_16  and  N_17 
REMARK    5  A    between atoms: N_17  and  N_18 
REMARK       I    between atoms: N_18  and  C_19 
REMARK    6  A    between atoms: C_19  and  C_20 
ROOT
HETATM    1  C   UNL     1     -42.794  53.928 -51.119  1.00  0.00     0.051 C 
HETATM    2  C   UNL     1     -42.792  55.103 -52.056  1.00  0.00    -0.027 A 
HETATM    3  C   UNL     1     -42.434  54.969 -53.409  1.00  0.00     0.081 A 
HETATM    4  C   UNL     1     -42.374  56.091 -54.252  1.00  0.00    -0.027 A 
HETATM    5  C   UNL     1     -41.888  56.013 -55.671  1.00  0.00     0.051 C 
HETATM    6  C   UNL     1     -42.808  57.331 -53.755  1.00  0.00     0.026 A 
HETATM    7  C   UNL     1     -43.247  57.467 -52.431  1.00  0.00     0.034 A 
HETATM    8  C   UNL     1     -43.213  56.357 -51.580  1.00  0.00     0.026 A 
ENDROOT
BRANCH   7   9
HETATM    9  C   UNL     1     -43.710  58.812 -51.982  1.00  0.00     0.270 C 
HETATM   10  N   UNL     1     -43.590  59.098 -50.637  1.00  0.00    -0.263 N 
HETATM   11  H   UNL     1     -43.350  58.416 -49.922  1.00  0.00     0.190 HD
HETATM   12  O   UNL     1     -44.204  59.606 -52.780  1.00  0.00    -0.266 OA
BRANCH  10  13
HETATM   13  N   UNL     1     -44.132  60.302 -50.175  1.00  0.00    -0.262 N 
HETATM   14  C   UNL     1     -45.402  60.306 -49.640  1.00  0.00     0.286 C 
HETATM   15  O   UNL     1     -46.066  59.273 -49.547  1.00  0.00    -0.264 OA
HETATM   16  H   UNL     1     -43.554  61.132 -50.275  1.00  0.00     0.190 HD
BRANCH  14  17
HETATM   17  C   UNL     1     -45.893  61.593 -49.203  1.00  0.00     0.102 A 
HETATM   18  N   UNL     1     -46.657  62.389 -50.033  1.00  0.00    -0.361 N 
HETATM   19  H   UNL     1     -46.918  62.128 -50.976  1.00  0.00     0.165 HD
HETATM   20  C   UNL     1     -46.999  63.551 -49.395  1.00  0.00     0.088 A 
HETATM   21  C   UNL     1     -46.447  63.518 -48.137  1.00  0.00     0.019 A 
HETATM   22  C   UNL     1     -45.753  62.290 -48.012  1.00  0.00     0.036 A 
ENDBRANCH  14  17
ENDBRANCH  10  13
ENDBRANCH   7   9
BRANCH   3  23
HETATM   23  O   UNL     1     -42.084  53.716 -53.849  1.00  0.00    -0.346 OA
BRANCH  23  24
HETATM   24  C   UNL     1     -40.659  53.540 -53.897  1.00  0.00     0.216 C 
BRANCH  24  25
HETATM   25  C   UNL     1     -40.246  52.154 -53.474  1.00  0.00    -0.017 A 
HETATM   26  C   UNL     1     -39.866  51.934 -52.151  1.00  0.00     0.125 A 
HETATM   27  N   UNL     1     -39.494  50.734 -51.651  1.00  0.00    -0.272 NA
HETATM   28  C   UNL     1     -39.504  49.693 -52.508  1.00  0.00     0.116 A 
HETATM   29  C   UNL     1     -39.876  49.797 -53.838  1.00  0.00     0.020 A 
HETATM   30  C   UNL     1     -40.258  51.046 -54.324  1.00  0.00     0.012 A 
ENDBRANCH  24  25
ENDBRANCH  23  24
ENDBRANCH   3  23
TORSDOF 6
ENDMDL
MODEL 4
REMARK VINA RESULT:      -7.5      5.106      7.719
REMARK  6 active torsions:
REMARK  status: ('A' for Active; 'I' for Inactive)
REMARK    1  A    between atoms: C_3  and  O_4 
REMARK    2  A    between atoms: O_4  and  C_5 
REMARK    3  A    between atoms: C_5  and  C_6 
REMARK    4  A    between atoms: C_15  and  C_16 
REMARK       I    between atoms: C_16  and  N_17 
REMARK    5  A    between atoms: N_17  and  N_18 
REMARK       I    between atoms: N_18  and  C_19 
REMARK    6  A    between atoms: C_19  and  C_20 
ROOT
HETATM    1  C   UNL     1     -41.746  58.541 -53.801  1.00  0.00     0.051 C 
HETATM    2  C   UNL     1     -41.926  57.287 -54.610  1.00  0.00    -0.027 A 
HETATM    3  C   UNL     1     -41.508  56.033 -54.131  1.00  0.00     0.081 A 
HETATM    4  C   UNL     1     -41.625  54.883 -54.930  1.00  0.00    -0.027 A 
HETATM    5  C   UNL     1     -41.090  53.544 -54.506  1.00  0.00     0.051 C 
HETATM    6  C   UNL     1     -42.290  54.983 -56.162  1.00  0.00     0.026 A 
HETATM    7  C   UNL     1     -42.787  56.211 -56.620  1.00  0.00     0.034 A 
HETATM    8  C   UNL     1     -42.580  57.362 -55.852  1.00  0.00     0.026 A 
ENDROOT
BRANCH   7   9
HETATM    9  C   UNL     1     -43.497  56.234 -57.930  1.00  0.00     0.270 C 
HETATM   10  N   UNL     1     -44.661  56.974 -57.998  1.00  0.00    -0.263 N 
HETATM   11  H   UNL     1     -45.136  57.376 -57.193  1.00  0.00     0.190 HD
HETATM   12  O   UNL     1     -43.073  55.592 -58.889  1.00  0.00    -0.266 OA
BRANCH  10  13
HETATM   13  N   UNL     1     -45.409  56.908 -59.179  1.00  0.00    -0.262 N 
HETATM   14  C   UNL     1     -46.574  57.636 -59.277  1.00  0.00     0.286 C 
HETATM   15  O   UNL     1     -46.968  58.353 -58.357  1.00  0.00    -0.264 OA
HETATM   16  H   UNL     1     -45.053  56.300 -59.912  1.00  0.00     0.190 HD
BRANCH  14  17
HETATM   17  C   UNL     1     -47.295  57.497 -60.523  1.00  0.00     0.102 A 
HETATM   18  N   UNL     1     -47.873  58.587 -61.142  1.00  0.00    -0.361 N 
HETATM   19  H   UNL     1     -47.830  59.530 -60.773  1.00  0.00     0.165 HD
HETATM   20  C   UNL     1     -48.494  58.203 -62.299  1.00  0.00     0.088 A 
HETATM   21  C   UNL     1     -48.325  56.846 -62.437  1.00  0.00     0.019 A 
HETATM   22  C   UNL     1     -47.571  56.400 -61.324  1.00  0.00     0.036 A 
ENDBRANCH  14  17
ENDBRANCH  10  13
ENDBRANCH   7   9
BRANCH   3  23
HETATM   23  O   UNL     1     -40.925  55.992 -52.889  1.00  0.00    -0.346 OA
BRANCH  23  24
HETATM   24  C   UNL     1     -41.895  55.828 -51.842  1.00  0.00     0.216 C 
BRANCH  24  25
HETATM   25  C   UNL     1     -41.360  55.005 -50.699  1.00  0.00    -0.017 A 
HETATM   26  C   UNL     1     -41.377  55.540 -49.413  1.00  0.00     0.125 A 
HETATM   27  N   UNL     1     -40.943  54.893 -48.308  1.00  0.00    -0.272 NA
HETATM   28  C   UNL     1     -40.471  53.642 -48.487  1.00  0.00     0.116 A 
HETATM   29  C   UNL     1     -40.420  53.010 -49.719  1.00  0.00     0.020 A 
HETATM   30  C   UNL     1     -40.878  53.701 -50.838  1.00  0.00     0.012 A 
ENDBRANCH  24  25
ENDBRANCH  23  24
ENDBRANCH   3  23
TORSDOF 6
ENDMDL
MODEL 5
REMARK VINA RESULT:      -7.3     17.540     20.770
REMARK  6 active torsions:
REMARK  status: ('A' for Active; 'I' for Inactive)
REMARK    1  A    between atoms: C_3  and  O_4 
REMARK    2  A    between atoms: O_4  and  C_5 
REMARK    3  A    between atoms: C_5  and  C_6 
REMARK    4  A    between atoms: C_15  and  C_16 
REMARK       I    between atoms: C_16  and  N_17 
REMARK    5  A    between atoms: N_17  and  N_18 
REMARK       I    between atoms: N_18  and  C_19 
REMARK    6  A    between atoms: C_19  and  C_20 
ROOT
HETATM    1  C   UNL     1     -31.778  38.843 -53.694  1.00  0.00     0.051 C 
HETATM    2  C   UNL     1     -32.395  39.528 -52.506  1.00  0.00    -0.027 A 
HETATM    3  C   UNL     1     -33.412  40.488 -52.654  1.00  0.00     0.081 A 
HETATM    4  C   UNL     1     -33.928  41.165 -51.536  1.00  0.00    -0.027 A 
HETATM    5  C   UNL     1     -34.931  42.277 -51.656  1.00  0.00     0.051 C 
HETATM    6  C   UNL     1     -33.508  40.771 -50.256  1.00  0.00     0.026 A 
HETATM    7  C   UNL     1     -32.555  39.757 -50.086  1.00  0.00     0.034 A 
HETATM    8  C   UNL     1     -31.985  39.158 -51.214  1.00  0.00     0.026 A 
ENDROOT
BRANCH   7   9
HETATM    9  C   UNL     1     -32.174  39.382 -48.694  1.00  0.00     0.270 C 
HETATM   10  N   UNL     1     -31.080  40.024 -48.150  1.00  0.00    -0.263 N 
HETATM   11  H   UNL     1     -30.439  40.615 -48.675  1.00  0.00     0.190 HD
HETATM   12  O   UNL     1     -32.795  38.515 -48.083  1.00  0.00    -0.266 OA
BRANCH  10  13
HETATM   13  N   UNL     1     -30.629  39.598 -46.896  1.00  0.00    -0.262 N 
HETATM   14  C   UNL     1     -29.947  40.483 -46.091  1.00  0.00     0.286 C 
HETATM   15  O   UNL     1     -29.735  41.645 -46.443  1.00  0.00    -0.264 OA
HETATM   16  H   UNL     1     -30.821  38.631 -46.646  1.00  0.00     0.190 HD
BRANCH  14  17
HETATM   17  C   UNL     1     -29.502  39.958 -44.820  1.00  0.00     0.102 A 
HETATM   18  N   UNL     1     -28.966  40.783 -43.851  1.00  0.00    -0.361 N 
HETATM   19  H   UNL     1     -28.855  41.783 -43.964  1.00  0.00     0.165 HD
HETATM   20  C   UNL     1     -28.623  40.055 -42.744  1.00  0.00     0.088 A 
HETATM   21  C   UNL     1     -28.932  38.739 -42.993  1.00  0.00     0.019 A 
HETATM   22  C   UNL     1     -29.485  38.675 -44.295  1.00  0.00     0.036 A 
ENDBRANCH  14  17
ENDBRANCH  10  13
ENDBRANCH   7   9
BRANCH   3  23
HETATM   23  O   UNL     1     -33.825  40.781 -53.930  1.00  0.00    -0.346 OA
BRANCH  23  24
HETATM   24  C   UNL     1     -35.072  40.146 -54.252  1.00  0.00     0.216 C 
BRANCH  24  25
HETATM   25  C   UNL     1     -35.749  40.794 -55.431  1.00  0.00    -0.017 A 
HETATM   26  C   UNL     1     -37.087  40.500 -55.691  1.00  0.00     0.125 A 
HETATM   27  N   UNL     1     -37.805  41.032 -56.705  1.00  0.00    -0.272 NA
HETATM   28  C   UNL     1     -37.163  41.909 -57.505  1.00  0.00     0.116 A 
HETATM   29  C   UNL     1     -35.841  42.282 -57.329  1.00  0.00     0.020 A 
HETATM   30  C   UNL     1     -35.128  41.719 -56.274  1.00  0.00     0.012 A 
ENDBRANCH  24  25
ENDBRANCH  23  24
ENDBRANCH   3  23
TORSDOF 6
ENDMDL
MODEL 6
REMARK VINA RESULT:      -7.2      2.158     10.061
REMARK  6 active torsions:
REMARK  status: ('A' for Active; 'I' for Inactive)
REMARK    1  A    between atoms: C_3  and  O_4 
REMARK    2  A    between atoms: O_4  and  C_5 
REMARK    3  A    between atoms: C_5  and  C_6 
REMARK    4  A    between atoms: C_15  and  C_16 
REMARK       I    between atoms: C_16  and  N_17 
REMARK    5  A    between atoms: N_17  and  N_18 
REMARK       I    between atoms: N_18  and  C_19 
REMARK    6  A    between atoms: C_19  and  C_20 
ROOT
HETATM    1  C   UNL     1     -46.242  59.015 -50.933  1.00  0.00     0.051 C 
HETATM    2  C   UNL     1     -44.802  58.598 -51.039  1.00  0.00    -0.027 A 
HETATM    3  C   UNL     1     -43.754  59.532 -50.953  1.00  0.00     0.081 A 
HETATM    4  C   UNL     1     -42.418  59.131 -51.122  1.00  0.00    -0.027 A 
HETATM    5  C   UNL     1     -41.277  60.108 -51.152  1.00  0.00     0.051 C 
HETATM    6  C   UNL     1     -42.136  57.761 -51.242  1.00  0.00     0.026 A 
HETATM    7  C   UNL     1     -43.163  56.807 -51.247  1.00  0.00     0.034 A 
HETATM    8  C   UNL     1     -44.493  57.233 -51.170  1.00  0.00     0.026 A 
ENDROOT
BRANCH   7   9
HETATM    9  C   UNL     1     -42.782  55.370 -51.360  1.00  0.00     0.270 C 
HETATM   10  N   UNL     1     -41.480  55.095 -51.726  1.00  0.00    -0.263 N 
HETATM   11  H   UNL     1     -40.817  55.789 -52.062  1.00  0.00     0.190 HD
HETATM   12  O   UNL     1     -43.610  54.482 -51.164  1.00  0.00    -0.266 OA
BRANCH  10  13
HETATM   13  N   UNL     1     -41.136  53.759 -51.960  1.00  0.00    -0.262 N 
HETATM   14  C   UNL     1     -40.522  53.421 -53.145  1.00  0.00     0.286 C 
HETATM   15  O   UNL     1     -40.256  54.268 -54.000  1.00  0.00    -0.264 OA
HETATM   16  H   UNL     1     -41.377  53.091 -51.232  1.00  0.00     0.190 HD
BRANCH  14  17
HETATM   17  C   UNL     1     -40.216  52.018 -53.314  1.00  0.00     0.102 A 
HETATM   18  N   UNL     1     -39.696  51.268 -52.278  1.00  0.00    -0.361 N 
HETATM   19  H   UNL     1     -39.502  51.642 -51.357  1.00  0.00     0.165 HD
HETATM   20  C   UNL     1     -39.493  49.976 -52.682  1.00  0.00     0.088 A 
HETATM   21  C   UNL     1     -39.879  49.880 -53.998  1.00  0.00     0.019 A 
HETATM   22  C   UNL     1     -40.334  51.161 -54.397  1.00  0.00     0.036 A 
ENDBRANCH  14  17
ENDBRANCH  10  13
ENDBRANCH   7   9
BRANCH   3  23
HETATM   23  O   UNL     1     -44.094  60.849 -50.768  1.00  0.00    -0.346 OA
BRANCH  23  24
HETATM   24  C   UNL     1     -43.651  61.347 -49.496  1.00  0.00     0.216 C 
BRANCH  24  25
HETATM   25  C   UNL     1     -44.795  61.544 -48.535  1.00  0.00    -0.017 A 
HETATM   26  C   UNL     1     -45.976  62.121 -48.997  1.00  0.00     0.125 A 
HETATM   27  N   UNL     1     -47.074  62.331 -48.237  1.00  0.00    -0.272 NA
HETATM   28  C   UNL     1     -46.998  61.943 -46.947  1.00  0.00     0.116 A 
HETATM   29  C   UNL     1     -45.879  61.349 -46.388  1.00  0.00     0.020 A 
HETATM   30  C   UNL     1     -44.765  61.142 -47.198  1.00  0.00     0.012 A 
ENDBRANCH  24  25
ENDBRANCH  23  24
ENDBRANCH   3  23
TORSDOF 6
ENDMDL
MODEL 7
REMARK VINA RESULT:      -7.0      4.810      7.061
REMARK  6 active torsions:
REMARK  status: ('A' for Active; 'I' for Inactive)
REMARK    1  A    between atoms: C_3  and  O_4 
REMARK    2  A    between atoms: O_4  and  C_5 
REMARK    3  A    between atoms: C_5  and  C_6 
REMARK    4  A    between atoms: C_15  and  C_16 
REMARK       I    between atoms: C_16  and  N_17 
REMARK    5  A    between atoms: N_17  and  N_18 
REMARK       I    between atoms: N_18  and  C_19 
REMARK    6  A    between atoms: C_19  and  C_20 
ROOT
HETATM    1  C   UNL     1     -42.970  53.780 -55.467  1.00  0.00     0.051 C 
HETATM    2  C   UNL     1     -42.555  55.156 -55.024  1.00  0.00    -0.027 A 
HETATM    3  C   UNL     1     -42.038  55.392 -53.738  1.00  0.00     0.081 A 
HETATM    4  C   UNL     1     -41.719  56.695 -53.320  1.00  0.00    -0.027 A 
HETATM    5  C   UNL     1     -41.273  57.010 -51.920  1.00  0.00     0.051 C 
HETATM    6  C   UNL     1     -41.797  57.741 -54.254  1.00  0.00     0.026 A 
HETATM    7  C   UNL     1     -42.232  57.509 -55.566  1.00  0.00     0.034 A 
HETATM    8  C   UNL     1     -42.633  56.221 -55.937  1.00  0.00     0.026 A 
ENDROOT
BRANCH   7   9
HETATM    9  C   UNL     1     -42.270  58.666 -56.505  1.00  0.00     0.270 C 
HETATM   10  N   UNL     1     -42.882  58.462 -57.726  1.00  0.00    -0.263 N 
HETATM   11  H   UNL     1     -43.172  57.554 -58.080  1.00  0.00     0.190 HD
HETATM   12  O   UNL     1     -41.747  59.738 -56.206  1.00  0.00    -0.266 OA
BRANCH  10  13
HETATM   13  N   UNL     1     -42.819  59.494 -58.669  1.00  0.00    -0.262 N 
HETATM   14  C   UNL     1     -42.250  59.246 -59.899  1.00  0.00     0.286 C 
HETATM   15  O   UNL     1     -41.808  58.134 -60.193  1.00  0.00    -0.264 OA
HETATM   16  H   UNL     1     -43.190  60.396 -58.384  1.00  0.00     0.190 HD
BRANCH  14  17
HETATM   17  C   UNL     1     -42.209  60.369 -60.807  1.00  0.00     0.102 A 
HETATM   18  N   UNL     1     -43.075  60.457 -61.879  1.00  0.00    -0.361 N 
HETATM   19  H   UNL     1     -43.778  59.759 -62.091  1.00  0.00     0.165 HD
HETATM   20  C   UNL     1     -42.842  61.605 -62.586  1.00  0.00     0.088 A 
HETATM   21  C   UNL     1     -41.808  62.274 -61.974  1.00  0.00     0.019 A 
HETATM   22  C   UNL     1     -41.410  61.500 -60.856  1.00  0.00     0.036 A 
ENDBRANCH  14  17
ENDBRANCH  10  13
ENDBRANCH   7   9
BRANCH   3  23
HETATM   23  O   UNL     1     -41.924  54.315 -52.893  1.00  0.00    -0.346 OA
BRANCH  23  24
HETATM   24  C   UNL     1     -40.553  53.989 -52.618  1.00  0.00     0.216 C 
BRANCH  24  25
HETATM   25  C   UNL     1     -40.253  52.537 -52.887  1.00  0.00    -0.017 A 
HETATM   26  C   UNL     1     -39.807  51.732 -51.840  1.00  0.00     0.125 A 
HETATM   27  N   UNL     1     -39.523  50.415 -51.955  1.00  0.00    -0.272 NA
HETATM   28  C   UNL     1     -39.696  49.863 -53.174  1.00  0.00     0.116 A 
HETATM   29  C   UNL     1     -40.146  50.568 -54.278  1.00  0.00     0.020 A 
HETATM   30  C   UNL     1     -40.433  51.922 -54.128  1.00  0.00     0.012 A 
ENDBRANCH  24  25
ENDBRANCH  23  24
ENDBRANCH   3  23
TORSDOF 6
ENDMDL
MODEL 8
REMARK VINA RESULT:      -7.0      1.629      2.261
REMARK  6 active torsions:
REMARK  status: ('A' for Active; 'I' for Inactive)
REMARK    1  A    between atoms: C_3  and  O_4 
REMARK    2  A    between atoms: O_4  and  C_5 
REMARK    3  A    between atoms: C_5  and  C_6 
REMARK    4  A    between atoms: C_15  and  C_16 
REMARK       I    between atoms: C_16  and  N_17 
REMARK    5  A    between atoms: N_17  and  N_18 
REMARK       I    between atoms: N_18  and  C_19 
REMARK    6  A    between atoms: C_19  and  C_20 
ROOT
HETATM    1  C   UNL     1     -42.350  57.448 -54.642  1.00  0.00     0.051 C 
HETATM    2  C   UNL     1     -43.069  57.374 -53.324  1.00  0.00    -0.027 A 
HETATM    3  C   UNL     1     -43.081  56.198 -52.554  1.00  0.00     0.081 A 
HETATM    4  C   UNL     1     -43.814  56.129 -51.358  1.00  0.00    -0.027 A 
HETATM    5  C   UNL     1     -43.948  54.861 -50.562  1.00  0.00     0.051 C 
HETATM    6  C   UNL     1     -44.425  57.297 -50.874  1.00  0.00     0.026 A 
HETATM    7  C   UNL     1     -44.354  58.501 -51.587  1.00  0.00     0.034 A 
HETATM    8  C   UNL     1     -43.697  58.527 -52.822  1.00  0.00     0.026 A 
ENDROOT
BRANCH   7   9
HETATM    9  C   UNL     1     -45.013  59.702 -50.999  1.00  0.00     0.270 C 
HETATM   10  N   UNL     1     -44.482  60.193 -49.823  1.00  0.00    -0.263 N 
HETATM   11  H   UNL     1     -43.781  59.714 -49.263  1.00  0.00     0.190 HD
HETATM   12  O   UNL     1     -46.002  60.202 -51.531  1.00  0.00    -0.266 OA
BRANCH  10  13
HETATM   13  N   UNL     1     -45.159  61.240 -49.189  1.00  0.00    -0.262 N 
HETATM   14  C   UNL     1     -45.955  60.964 -48.099  1.00  0.00     0.286 C 
HETATM   15  O   UNL     1     -46.075  59.818 -47.661  1.00  0.00    -0.264 OA
HETATM   16  H   UNL     1     -45.037  62.169 -49.584  1.00  0.00     0.190 HD
BRANCH  14  17
HETATM   17  C   UNL     1     -46.632  62.099 -47.514  1.00  0.00     0.102 A 
HETATM   18  N   UNL     1     -46.551  62.363 -46.161  1.00  0.00    -0.361 N 
HETATM   19  H   UNL     1     -46.025  61.794 -45.508  1.00  0.00     0.165 HD
HETATM   20  C   UNL     1     -47.272  63.485 -45.851  1.00  0.00     0.088 A 
HETATM   21  C   UNL     1     -47.835  63.957 -47.013  1.00  0.00     0.019 A 
HETATM   22  C   UNL     1     -47.434  63.090 -48.059  1.00  0.00     0.036 A 
ENDBRANCH  14  17
ENDBRANCH  10  13
ENDBRANCH   7   9
BRANCH   3  23
HETATM   23  O   UNL     1     -42.407  55.109 -53.052  1.00  0.00    -0.346 OA
BRANCH  23  24
HETATM   24  C   UNL     1     -41.116  54.949 -52.444  1.00  0.00     0.216 C 
BRANCH  24  25
HETATM   25  C   UNL     1     -40.568  53.559 -52.635  1.00  0.00    -0.017 A 
HETATM   26  C   UNL     1     -40.638  52.971 -53.897  1.00  0.00     0.125 A 
HETATM   27  N   UNL     1     -40.165  51.740 -54.195  1.00  0.00    -0.272 NA
HETATM   28  C   UNL     1     -39.586  51.055 -53.187  1.00  0.00     0.116 A 
HETATM   29  C   UNL     1     -39.452  51.549 -51.900  1.00  0.00     0.020 A 
HETATM   30  C   UNL     1     -39.946  52.822 -51.625  1.00  0.00     0.012 A 
ENDBRANCH  24  25
ENDBRANCH  23  24
ENDBRANCH   3  23
TORSDOF 6
ENDMDL
MODEL 9
REMARK VINA RESULT:      -6.8      2.613      3.239
REMARK  6 active torsions:
REMARK  status: ('A' for Active; 'I' for Inactive)
REMARK    1  A    between atoms: C_3  and  O_4 
REMARK    2  A    between atoms: O_4  and  C_5 
REMARK    3  A    between atoms: C_5  and  C_6 
REMARK    4  A    between atoms: C_15  and  C_16 
REMARK       I    between atoms: C_16  and  N_17 
REMARK    5  A    between atoms: N_17  and  N_18 
REMARK       I    between atoms: N_18  and  C_19 
REMARK    6  A    between atoms: C_19  and  C_20 
ROOT
HETATM    1  C   UNL     1     -40.774  57.865 -51.991  1.00  0.00     0.051 C 
HETATM    2  C   UNL     1     -41.839  57.655 -53.031  1.00  0.00    -0.027 A 
HETATM    3  C   UNL     1     -41.887  56.489 -53.815  1.00  0.00     0.081 A 
HETATM    4  C   UNL     1     -42.850  56.342 -54.828  1.00  0.00    -0.027 A 
HETATM    5  C   UNL     1     -42.868  55.167 -55.764  1.00  0.00     0.051 C 
HETATM    6  C   UNL     1     -43.849  57.321 -54.954  1.00  0.00     0.026 A 
HETATM    7  C   UNL     1     -43.865  58.451 -54.126  1.00  0.00     0.034 A 
HETATM    8  C   UNL     1     -42.845  58.625 -53.185  1.00  0.00     0.026 A 
ENDROOT
BRANCH   7   9
HETATM    9  C   UNL     1     -44.969  59.436 -54.309  1.00  0.00     0.270 C 
HETATM   10  N   UNL     1     -45.541  59.955 -53.164  1.00  0.00    -0.263 N 
HETATM   11  H   UNL     1     -45.366  59.607 -52.224  1.00  0.00     0.190 HD
HETATM   12  O   UNL     1     -45.363  59.740 -55.433  1.00  0.00    -0.266 OA
BRANCH  10  13
HETATM   13  N   UNL     1     -46.659  60.783 -53.310  1.00  0.00    -0.262 N 
HETATM   14  C   UNL     1     -47.105  61.508 -52.227  1.00  0.00     0.286 C 
HETATM   15  O   UNL     1     -46.535  61.454 -51.135  1.00  0.00    -0.264 OA
HETATM   16  H   UNL     1     -47.102  60.794 -54.225  1.00  0.00     0.190 HD
BRANCH  14  17
HETATM   17  C   UNL     1     -48.275  62.324 -52.459  1.00  0.00     0.102 A 
HETATM   18  N   UNL     1     -49.368  61.833 -53.144  1.00  0.00    -0.361 N 
HETATM   19  H   UNL     1     -49.420  60.892 -53.517  1.00  0.00     0.165 HD
HETATM   20  C   UNL     1     -50.343  62.789 -53.234  1.00  0.00     0.088 A 
HETATM   21  C   UNL     1     -49.880  63.921 -52.605  1.00  0.00     0.019 A 
HETATM   22  C   UNL     1     -48.582  63.632 -52.117  1.00  0.00     0.036 A 
ENDBRANCH  14  17
ENDBRANCH  10  13
ENDBRANCH   7   9
BRANCH   3  23
HETATM   23  O   UNL     1     -40.919  55.539 -53.597  1.00  0.00    -0.346 OA
BRANCH  23  24
HETATM   24  C   UNL     1     -41.340  54.550 -52.645  1.00  0.00     0.216 C 
BRANCH  24  25
HETATM   25  C   UNL     1     -40.726  53.202 -52.920  1.00  0.00    -0.017 A 
HETATM   26  C   UNL     1     -40.027  52.555 -51.903  1.00  0.00     0.125 A 
HETATM   27  N   UNL     1     -39.450  51.338 -52.025  1.00  0.00    -0.272 NA
HETATM   28  C   UNL     1     -39.577  50.726 -53.220  1.00  0.00     0.116 A 
HETATM   29  C   UNL     1     -40.260  51.273 -54.294  1.00  0.00     0.020 A 
HETATM   30  C   UNL     1     -40.847  52.526 -54.137  1.00  0.00     0.012 A 
ENDBRANCH  24  25
ENDBRANCH  23  24
ENDBRANCH   3  23
TORSDOF 6
ENDMDL
MODEL 10
REMARK VINA RESULT:      -6.6      5.322      7.595
REMARK  6 active torsions:
REMARK  status: ('A' for Active; 'I' for Inactive)
REMARK    1  A    between atoms: C_3  and  O_4 
REMARK    2  A    between atoms: O_4  and  C_5 
REMARK    3  A    between atoms: C_5  and  C_6 
REMARK    4  A    between atoms: C_15  and  C_16 
REMARK       I    between atoms: C_16  and  N_17 
REMARK    5  A    between atoms: N_17  and  N_18 
REMARK       I    between atoms: N_18  and  C_19 
REMARK    6  A    between atoms: C_19  and  C_20 
ROOT
HETATM    1  C   UNL     1     -44.301  57.589 -52.083  1.00  0.00     0.051 C 
HETATM    2  C   UNL     1     -44.006  57.321 -53.532  1.00  0.00    -0.027 A 
HETATM    3  C   UNL     1     -42.953  56.477 -53.928  1.00  0.00     0.081 A 
HETATM    4  C   UNL     1     -42.651  56.292 -55.287  1.00  0.00    -0.027 A 
HETATM    5  C   UNL     1     -41.468  55.492 -55.753  1.00  0.00     0.051 C 
HETATM    6  C   UNL     1     -43.502  56.859 -56.249  1.00  0.00     0.026 A 
HETATM    7  C   UNL     1     -44.605  57.638 -55.873  1.00  0.00     0.034 A 
HETATM    8  C   UNL     1     -44.837  57.885 -54.516  1.00  0.00     0.026 A 
ENDROOT
BRANCH   7   9
HETATM    9  C   UNL     1     -45.473  58.190 -56.952  1.00  0.00     0.270 C 
HETATM   10  N   UNL     1     -45.577  57.448 -58.112  1.00  0.00    -0.263 N 
HETATM   11  H   UNL     1     -44.998  56.642 -58.334  1.00  0.00     0.190 HD
HETATM   12  O   UNL     1     -46.037  59.273 -56.815  1.00  0.00    -0.266 OA
BRANCH  10  13
HETATM   13  N   UNL     1     -46.283  58.006 -59.183  1.00  0.00    -0.262 N 
HETATM   14  C   UNL     1     -46.833  57.174 -60.132  1.00  0.00     0.286 C 
HETATM   15  O   UNL     1     -46.730  55.948 -60.054  1.00  0.00    -0.264 OA
HETATM   16  H   UNL     1     -46.341  59.021 -59.212  1.00  0.00     0.190 HD
BRANCH  14  17
HETATM   17  C   UNL     1     -47.531  57.832 -61.213  1.00  0.00     0.102 A 
HETATM   18  N   UNL     1     -48.120  57.110 -62.232  1.00  0.00    -0.361 N 
HETATM   19  H   UNL     1     -48.103  56.098 -62.285  1.00  0.00     0.165 HD
HETATM   20  C   UNL     1     -48.715  57.953 -63.130  1.00  0.00     0.088 A 
HETATM   21  C   UNL     1     -48.509  59.242 -62.699  1.00  0.00     0.019 A 
HETATM   22  C   UNL     1     -47.766  59.169 -61.494  1.00  0.00     0.036 A 
ENDBRANCH  14  17
ENDBRANCH  10  13
ENDBRANCH   7   9
BRANCH   3  23
HETATM   23  O   UNL     1     -42.199  55.899 -52.936  1.00  0.00    -0.346 OA
BRANCH  23  24
HETATM   24  C   UNL     1     -42.677  54.591 -52.587  1.00  0.00     0.216 C 
BRANCH  24  25
HETATM   25  C   UNL     1     -41.552  53.604 -52.414  1.00  0.00    -0.017 A 
HETATM   26  C   UNL     1     -41.063  53.351 -51.134  1.00  0.00     0.125 A 
HETATM   27  N   UNL     1     -40.072  52.476 -50.852  1.00  0.00    -0.272 NA
HETATM   28  C   UNL     1     -39.539  51.810 -51.897  1.00  0.00     0.116 A 
HETATM   29  C   UNL     1     -39.957  51.975 -53.207  1.00  0.00     0.020 A 
HETATM   30  C   UNL     1     -40.983  52.882 -53.465  1.00  0.00     0.012 A 
ENDBRANCH  24  25
ENDBRANCH  23  24
ENDBRANCH   3  23
TORSDOF 6
ENDMDL
