MODEL 1
REMARK VINA RESULT:      -8.2      0.000      0.000
REMARK  8 active torsions:
REMARK  status: ('A' for Active; 'I' for Inactive)
REMARK    1  A    between atoms: C_2  and  O_3 
REMARK    2  A    between atoms: O_3  and  C_4 
REMARK    3  A    between atoms: C_7  and  N_8 
REMARK       I    between atoms: N_8  and  C_9 
REMARK    4  A    between atoms: C_9  and  C_10 
REMARK    5  A    between atoms: C_12  and  N_13 
REMARK    6  A    between atoms: N_16  and  C_18 
REMARK    7  A    between atoms: C_18  and  C_19 
REMARK    8  A    between atoms: C_18  and  C_25 
ROOT
HETATM    1  C   UNL     1     -46.202  59.804 -51.923  1.00  0.00     0.164 C 
HETATM    2  N   UNL     1     -45.692  59.815 -53.305  1.00  0.00    -0.249 NA
HETATM    3  C   UNL     1     -44.662  60.661 -53.596  1.00  0.00     0.181 C 
HETATM    4  N   UNL     1     -44.247  61.595 -52.801  1.00  0.00    -0.185 NA
HETATM    5  C   UNL     1     -44.859  61.745 -51.587  1.00  0.00     0.247 C 
HETATM    6  O   UNL     1     -44.282  62.194 -50.600  1.00  0.00    -0.271 OA
HETATM    7  C   UNL     1     -46.261  61.232 -51.445  1.00  0.00     0.134 C 
HETATM    8  H   UNL     1     -45.558  58.853 -53.609  1.00  0.00     0.131 HD
ENDROOT
BRANCH   3   9
HETATM    9  N   UNL     1     -44.058  60.470 -54.817  1.00  0.00    -0.353 N 
HETATM   10  C   UNL     1     -44.729  60.061 -56.056  1.00  0.00     0.153 C 
HETATM   11  C   UNL     1     -44.373  58.593 -56.380  1.00  0.00     0.256 C 
HETATM   12  N   UNL     1     -42.853  58.428 -56.457  1.00  0.00    -0.056 N 
HETATM   13  H   UNL     1     -42.505  59.084 -57.159  1.00  0.00     0.281 HD
HETATM   14  C   UNL     1     -42.199  58.893 -55.148  1.00  0.00     0.256 C 
HETATM   15  C   UNL     1     -42.586  60.363 -54.883  1.00  0.00     0.153 C 
BRANCH  12  16
HETATM   16  C   UNL     1     -42.373  57.046 -56.923  1.00  0.00     0.254 C 
BRANCH  16  17
HETATM   17  C   UNL     1     -42.348  56.033 -55.779  1.00  0.00    -0.023 A 
HETATM   18  C   UNL     1     -41.154  55.421 -55.351  1.00  0.00     0.009 A 
HETATM   19  C   UNL     1     -41.164  54.468 -54.331  1.00  0.00     0.001 A 
HETATM   20  C   UNL     1     -42.363  54.114 -53.719  1.00  0.00     0.000 A 
HETATM   21  C   UNL     1     -43.552  54.719 -54.117  1.00  0.00     0.001 A 
HETATM   22  C   UNL     1     -43.547  55.672 -55.137  1.00  0.00     0.009 A 
ENDBRANCH  16  17
BRANCH  16  23
HETATM   23  C   UNL     1     -43.022  56.551 -58.230  1.00  0.00    -0.023 A 
HETATM   24  C   UNL     1     -43.492  55.234 -58.404  1.00  0.00     0.009 A 
HETATM   25  C   UNL     1     -44.129  54.839 -59.586  1.00  0.00     0.001 A 
HETATM   26  C   UNL     1     -44.327  55.753 -60.615  1.00  0.00     0.000 A 
HETATM   27  C   UNL     1     -43.904  57.066 -60.459  1.00  0.00     0.001 A 
HETATM   28  C   UNL     1     -43.274  57.465 -59.276  1.00  0.00     0.009 A 
ENDBRANCH  16  23
ENDBRANCH  12  16
ENDBRANCH   3   9
BRANCH   1  29
HETATM   29  C   UNL     1     -45.339  58.787 -51.117  1.00  0.00     0.240 C 
HETATM   30  N   UNL     1     -44.420  58.034 -51.818  1.00  0.00    -0.326 N 
HETATM   31  H   UNL     1     -44.471  58.006 -52.833  1.00  0.00     0.169 HD
HETATM   32  O   UNL     1     -45.573  58.678 -49.908  1.00  0.00    -0.271 OA
BRANCH  30  33
HETATM   33  C   UNL     1     -43.524  57.081 -51.283  1.00  0.00     0.034 A 
HETATM   34  C   UNL     1     -43.916  55.859 -50.737  1.00  0.00     0.032 A 
HETATM   35  C   UNL     1     -42.961  54.970 -50.218  1.00  0.00     0.039 A 
HETATM   36  C   UNL     1     -41.606  55.295 -50.251  1.00  0.00     0.068 A 
HETATM   37  C   UNL     1     -41.216  56.521 -50.789  1.00  0.00     0.039 A 
HETATM   38  C   UNL     1     -42.165  57.413 -51.291  1.00  0.00     0.032 A 
BRANCH  36  39
HETATM   39  O   UNL     1     -40.576  54.518 -49.804  1.00  0.00    -0.352 OA
BRANCH  39  40
HETATM   40  C   UNL     1     -40.657  53.116 -50.052  1.00  0.00     0.171 C 
HETATM   41  C   UNL     1     -39.824  52.812 -51.284  1.00  0.00     0.034 C 
ENDBRANCH  39  40
ENDBRANCH  36  39
ENDBRANCH  30  33
ENDBRANCH   1  29
TORSDOF 8
ENDMDL
MODEL 2
REMARK VINA RESULT:      -8.1      2.744      4.828
REMARK  8 active torsions:
REMARK  status: ('A' for Active; 'I' for Inactive)
REMARK    1  A    between atoms: C_2  and  O_3 
REMARK    2  A    between atoms: O_3  and  C_4 
REMARK    3  A    between atoms: C_7  and  N_8 
REMARK       I    between atoms: N_8  and  C_9 
REMARK    4  A    between atoms: C_9  and  C_10 
REMARK    5  A    between atoms: C_12  and  N_13 
REMARK    6  A    between atoms: N_16  and  C_18 
REMARK    7  A    between atoms: C_18  and  C_19 
REMARK    8  A    between atoms: C_18  and  C_25 
ROOT
HETATM    1  C   UNL     1     -42.465  58.029 -51.501  1.00  0.00     0.164 C 
HETATM    2  N   UNL     1     -43.393  57.730 -52.605  1.00  0.00    -0.249 NA
HETATM    3  C   UNL     1     -42.959  57.954 -53.879  1.00  0.00     0.181 C 
HETATM    4  N   UNL     1     -41.876  58.602 -54.170  1.00  0.00    -0.185 NA
HETATM    5  C   UNL     1     -41.104  59.084 -53.150  1.00  0.00     0.247 C 
HETATM    6  O   UNL     1     -39.888  59.238 -53.249  1.00  0.00    -0.271 OA
HETATM    7  C   UNL     1     -41.768  59.324 -51.827  1.00  0.00     0.134 C 
HETATM    8  H   UNL     1     -43.802  56.812 -52.445  1.00  0.00     0.131 HD
ENDROOT
BRANCH   3   9
HETATM    9  N   UNL     1     -43.750  57.439 -54.880  1.00  0.00    -0.353 N 
HETATM   10  C   UNL     1     -43.275  56.763 -56.093  1.00  0.00     0.153 C 
HETATM   11  C   UNL     1     -43.464  57.692 -57.312  1.00  0.00     0.256 C 
HETATM   12  N   UNL     1     -44.929  58.124 -57.420  1.00  0.00    -0.056 N 
HETATM   13  H   UNL     1     -45.498  57.278 -57.474  1.00  0.00     0.281 HD
HETATM   14  C   UNL     1     -45.382  58.801 -56.118  1.00  0.00     0.256 C 
HETATM   15  C   UNL     1     -45.175  57.825 -54.941  1.00  0.00     0.153 C 
BRANCH  12  16
HETATM   16  C   UNL     1     -45.278  58.928 -58.680  1.00  0.00     0.254 C 
BRANCH  16  17
HETATM   17  C   UNL     1     -44.042  59.570 -59.310  1.00  0.00    -0.023 A 
HETATM   18  C   UNL     1     -43.575  60.838 -58.914  1.00  0.00     0.009 A 
HETATM   19  C   UNL     1     -42.468  61.419 -59.534  1.00  0.00     0.001 A 
HETATM   20  C   UNL     1     -41.806  60.744 -60.555  1.00  0.00     0.000 A 
HETATM   21  C   UNL     1     -42.242  59.483 -60.952  1.00  0.00     0.001 A 
HETATM   22  C   UNL     1     -43.349  58.897 -60.335  1.00  0.00     0.009 A 
ENDBRANCH  16  17
BRANCH  16  23
HETATM   23  C   UNL     1     -46.218  58.203 -59.662  1.00  0.00    -0.023 A 
HETATM   24  C   UNL     1     -46.996  58.879 -60.623  1.00  0.00     0.009 A 
HETATM   25  C   UNL     1     -47.794  58.180 -61.536  1.00  0.00     0.001 A 
HETATM   26  C   UNL     1     -47.822  56.790 -61.523  1.00  0.00     0.000 A 
HETATM   27  C   UNL     1     -47.040  56.096 -60.608  1.00  0.00     0.001 A 
HETATM   28  C   UNL     1     -46.237  56.792 -59.701  1.00  0.00     0.009 A 
ENDBRANCH  16  23
ENDBRANCH  12  16
ENDBRANCH   3   9
BRANCH   1  29
HETATM   29  C   UNL     1     -41.595  56.757 -51.268  1.00  0.00     0.240 C 
HETATM   30  N   UNL     1     -41.864  55.648 -52.043  1.00  0.00    -0.326 N 
HETATM   31  H   UNL     1     -42.727  55.616 -52.581  1.00  0.00     0.169 HD
HETATM   32  O   UNL     1     -40.756  56.803 -50.360  1.00  0.00    -0.271 OA
BRANCH  30  33
HETATM   33  C   UNL     1     -41.184  54.411 -52.014  1.00  0.00     0.034 A 
HETATM   34  C   UNL     1     -40.934  53.682 -50.851  1.00  0.00     0.032 A 
HETATM   35  C   UNL     1     -40.243  52.462 -50.908  1.00  0.00     0.039 A 
HETATM   36  C   UNL     1     -39.804  51.958 -52.131  1.00  0.00     0.068 A 
HETATM   37  C   UNL     1     -40.046  52.691 -53.292  1.00  0.00     0.039 A 
HETATM   38  C   UNL     1     -40.719  53.913 -53.236  1.00  0.00     0.032 A 
BRANCH  36  39
HETATM   39  O   UNL     1     -39.143  50.780 -52.331  1.00  0.00    -0.352 OA
BRANCH  39  40
HETATM   40  C   UNL     1     -39.873  49.712 -52.932  1.00  0.00     0.171 C 
HETATM   41  C   UNL     1     -39.585  49.732 -54.422  1.00  0.00     0.034 C 
ENDBRANCH  39  40
ENDBRANCH  36  39
ENDBRANCH  30  33
ENDBRANCH   1  29
TORSDOF 8
ENDMDL
MODEL 3
REMARK VINA RESULT:      -8.0      2.539      4.198
REMARK  8 active torsions:
REMARK  status: ('A' for Active; 'I' for Inactive)
REMARK    1  A    between atoms: C_2  and  O_3 
REMARK    2  A    between atoms: O_3  and  C_4 
REMARK    3  A    between atoms: C_7  and  N_8 
REMARK       I    between atoms: N_8  and  C_9 
REMARK    4  A    between atoms: C_9  and  C_10 
REMARK    5  A    between atoms: C_12  and  N_13 
REMARK    6  A    between atoms: N_16  and  C_18 
REMARK    7  A    between atoms: C_18  and  C_19 
REMARK    8  A    between atoms: C_18  and  C_25 
ROOT
HETATM    1  C   UNL     1     -43.215  58.717 -51.424  1.00  0.00     0.164 C 
HETATM    2  N   UNL     1     -43.996  59.077 -52.621  1.00  0.00    -0.249 NA
HETATM    3  C   UNL     1     -43.309  59.396 -53.756  1.00  0.00     0.181 C 
HETATM    4  N   UNL     1     -42.032  59.607 -53.793  1.00  0.00    -0.185 NA
HETATM    5  C   UNL     1     -41.313  59.492 -52.635  1.00  0.00     0.247 C 
HETATM    6  O   UNL     1     -40.128  59.167 -52.615  1.00  0.00    -0.271 OA
HETATM    7  C   UNL     1     -42.046  59.665 -51.339  1.00  0.00     0.134 C 
HETATM    8  H   UNL     1     -44.734  58.388 -52.745  1.00  0.00     0.131 HD
ENDROOT
BRANCH   3   9
HETATM    9  N   UNL     1     -44.061  59.486 -54.905  1.00  0.00    -0.353 N 
HETATM   10  C   UNL     1     -44.920  58.431 -55.456  1.00  0.00     0.153 C 
HETATM   11  C   UNL     1     -44.257  57.826 -56.713  1.00  0.00     0.256 C 
HETATM   12  N   UNL     1     -43.960  58.930 -57.732  1.00  0.00    -0.056 N 
HETATM   13  H   UNL     1     -44.839  59.406 -57.938  1.00  0.00     0.281 HD
HETATM   14  C   UNL     1     -43.081  60.019 -57.097  1.00  0.00     0.256 C 
HETATM   15  C   UNL     1     -43.797  60.586 -55.854  1.00  0.00     0.153 C 
BRANCH  12  16
HETATM   16  C   UNL     1     -43.438  58.438 -59.089  1.00  0.00     0.254 C 
BRANCH  16  17
HETATM   17  C   UNL     1     -44.152  57.167 -59.550  1.00  0.00    -0.023 A 
HETATM   18  C   UNL     1     -45.506  57.171 -59.939  1.00  0.00     0.009 A 
HETATM   19  C   UNL     1     -46.145  55.989 -60.317  1.00  0.00     0.001 A 
HETATM   20  C   UNL     1     -45.444  54.787 -60.318  1.00  0.00     0.000 A 
HETATM   21  C   UNL     1     -44.101  54.764 -59.951  1.00  0.00     0.001 A 
HETATM   22  C   UNL     1     -43.457  55.943 -59.572  1.00  0.00     0.009 A 
ENDBRANCH  16  17
BRANCH  16  23
HETATM   23  C   UNL     1     -43.294  59.539 -60.157  1.00  0.00    -0.023 A 
HETATM   24  C   UNL     1     -44.325  60.449 -60.467  1.00  0.00     0.009 A 
HETATM   25  C   UNL     1     -44.134  61.473 -61.402  1.00  0.00     0.001 A 
HETATM   26  C   UNL     1     -42.907  61.624 -62.037  1.00  0.00     0.000 A 
HETATM   27  C   UNL     1     -41.862  60.763 -61.726  1.00  0.00     0.001 A 
HETATM   28  C   UNL     1     -42.048  59.744 -60.788  1.00  0.00     0.009 A 
ENDBRANCH  16  23
ENDBRANCH  12  16
ENDBRANCH   3   9
BRANCH   1  29
HETATM   29  C   UNL     1     -42.926  57.188 -51.500  1.00  0.00     0.240 C 
HETATM   30  N   UNL     1     -41.699  56.794 -51.994  1.00  0.00    -0.326 N 
HETATM   31  H   UNL     1     -41.116  57.473 -52.476  1.00  0.00     0.169 HD
HETATM   32  O   UNL     1     -43.837  56.422 -51.166  1.00  0.00    -0.271 OA
BRANCH  30  33
HETATM   33  C   UNL     1     -41.226  55.469 -52.122  1.00  0.00     0.034 A 
HETATM   34  C   UNL     1     -40.835  54.670 -51.047  1.00  0.00     0.032 A 
HETATM   35  C   UNL     1     -40.368  53.364 -51.262  1.00  0.00     0.039 A 
HETATM   36  C   UNL     1     -40.296  52.845 -52.553  1.00  0.00     0.068 A 
HETATM   37  C   UNL     1     -40.679  53.647 -53.628  1.00  0.00     0.039 A 
HETATM   38  C   UNL     1     -41.129  54.952 -53.418  1.00  0.00     0.032 A 
BRANCH  36  39
HETATM   39  O   UNL     1     -39.884  51.590 -52.899  1.00  0.00    -0.352 OA
BRANCH  39  40
HETATM   40  C   UNL     1     -40.263  51.108 -54.186  1.00  0.00     0.171 C 
HETATM   41  C   UNL     1     -39.497  49.823 -54.447  1.00  0.00     0.034 C 
ENDBRANCH  39  40
ENDBRANCH  36  39
ENDBRANCH  30  33
ENDBRANCH   1  29
TORSDOF 8
ENDMDL
MODEL 4
REMARK VINA RESULT:      -8.0      2.519      5.955
REMARK  8 active torsions:
REMARK  status: ('A' for Active; 'I' for Inactive)
REMARK    1  A    between atoms: C_2  and  O_3 
REMARK    2  A    between atoms: O_3  and  C_4 
REMARK    3  A    between atoms: C_7  and  N_8 
REMARK       I    between atoms: N_8  and  C_9 
REMARK    4  A    between atoms: C_9  and  C_10 
REMARK    5  A    between atoms: C_12  and  N_13 
REMARK    6  A    between atoms: N_16  and  C_18 
REMARK    7  A    between atoms: C_18  and  C_19 
REMARK    8  A    between atoms: C_18  and  C_25 
ROOT
HETATM    1  C   UNL     1     -43.232  62.326 -54.647  1.00  0.00     0.164 C 
HETATM    2  N   UNL     1     -42.683  61.539 -53.529  1.00  0.00    -0.249 NA
HETATM    3  C   UNL     1     -43.565  60.980 -52.651  1.00  0.00     0.181 C 
HETATM    4  N   UNL     1     -44.828  61.267 -52.614  1.00  0.00    -0.185 NA
HETATM    5  C   UNL     1     -45.323  62.170 -53.513  1.00  0.00     0.247 C 
HETATM    6  O   UNL     1     -46.485  62.144 -53.914  1.00  0.00    -0.271 OA
HETATM    7  C   UNL     1     -44.366  63.159 -54.108  1.00  0.00     0.134 C 
HETATM    8  H   UNL     1     -41.979  60.903 -53.895  1.00  0.00     0.131 HD
ENDROOT
BRANCH   3   9
HETATM    9  N   UNL     1     -43.036  60.062 -51.774  1.00  0.00    -0.353 N 
HETATM   10  C   UNL     1     -41.625  59.958 -51.384  1.00  0.00     0.153 C 
HETATM   11  C   UNL     1     -40.993  58.715 -52.049  1.00  0.00     0.256 C 
HETATM   12  N   UNL     1     -41.795  57.462 -51.686  1.00  0.00    -0.056 N 
HETATM   13  H   UNL     1     -41.821  57.396 -50.667  1.00  0.00     0.281 HD
HETATM   14  C   UNL     1     -43.266  57.634 -52.091  1.00  0.00     0.256 C 
HETATM   15  C   UNL     1     -43.841  58.884 -51.393  1.00  0.00     0.153 C 
BRANCH  12  16
HETATM   16  C   UNL     1     -41.180  56.138 -52.162  1.00  0.00     0.254 C 
BRANCH  16  17
HETATM   17  C   UNL     1     -40.981  55.152 -51.011  1.00  0.00    -0.023 A 
HETATM   18  C   UNL     1     -41.191  55.521 -49.668  1.00  0.00     0.009 A 
HETATM   19  C   UNL     1     -40.961  54.613 -48.633  1.00  0.00     0.001 A 
HETATM   20  C   UNL     1     -40.525  53.323 -48.920  1.00  0.00     0.000 A 
HETATM   21  C   UNL     1     -40.325  52.934 -50.242  1.00  0.00     0.001 A 
HETATM   22  C   UNL     1     -40.553  53.838 -51.281  1.00  0.00     0.009 A 
ENDBRANCH  16  17
BRANCH  16  23
HETATM   23  C   UNL     1     -41.830  55.551 -53.430  1.00  0.00    -0.023 A 
HETATM   24  C   UNL     1     -41.201  55.560 -54.691  1.00  0.00     0.009 A 
HETATM   25  C   UNL     1     -41.800  54.964 -55.806  1.00  0.00     0.001 A 
HETATM   26  C   UNL     1     -43.030  54.329 -55.687  1.00  0.00     0.000 A 
HETATM   27  C   UNL     1     -43.658  54.274 -54.449  1.00  0.00     0.001 A 
HETATM   28  C   UNL     1     -43.059  54.863 -53.332  1.00  0.00     0.009 A 
ENDBRANCH  16  23
ENDBRANCH  12  16
ENDBRANCH   3   9
BRANCH   1  29
HETATM   29  C   UNL     1     -43.530  61.333 -55.811  1.00  0.00     0.240 C 
HETATM   30  N   UNL     1     -42.830  60.145 -55.831  1.00  0.00    -0.326 N 
HETATM   31  H   UNL     1     -42.016  60.037 -55.231  1.00  0.00     0.169 HD
HETATM   32  O   UNL     1     -44.333  61.700 -56.677  1.00  0.00    -0.271 OA
BRANCH  30  33
HETATM   33  C   UNL     1     -42.964  59.101 -56.774  1.00  0.00     0.034 A 
HETATM   34  C   UNL     1     -43.987  58.152 -56.751  1.00  0.00     0.032 A 
HETATM   35  C   UNL     1     -44.043  57.140 -57.722  1.00  0.00     0.039 A 
HETATM   36  C   UNL     1     -43.081  57.076 -58.728  1.00  0.00     0.068 A 
HETATM   37  C   UNL     1     -42.055  58.020 -58.746  1.00  0.00     0.039 A 
HETATM   38  C   UNL     1     -41.987  59.017 -57.771  1.00  0.00     0.032 A 
BRANCH  36  39
HETATM   39  O   UNL     1     -43.030  56.163 -59.743  1.00  0.00    -0.352 OA
BRANCH  39  40
HETATM   40  C   UNL     1     -43.921  55.052 -59.670  1.00  0.00     0.171 C 
HETATM   41  C   UNL     1     -44.853  55.122 -60.866  1.00  0.00     0.034 C 
ENDBRANCH  39  40
ENDBRANCH  36  39
ENDBRANCH  30  33
ENDBRANCH   1  29
TORSDOF 8
ENDMDL
MODEL 5
REMARK VINA RESULT:      -8.0      2.574      6.878
REMARK  8 active torsions:
REMARK  status: ('A' for Active; 'I' for Inactive)
REMARK    1  A    between atoms: C_2  and  O_3 
REMARK    2  A    between atoms: O_3  and  C_4 
REMARK    3  A    between atoms: C_7  and  N_8 
REMARK       I    between atoms: N_8  and  C_9 
REMARK    4  A    between atoms: C_9  and  C_10 
REMARK    5  A    between atoms: C_12  and  N_13 
REMARK    6  A    between atoms: N_16  and  C_18 
REMARK    7  A    between atoms: C_18  and  C_19 
REMARK    8  A    between atoms: C_18  and  C_25 
ROOT
HETATM    1  C   UNL     1     -43.220  62.175 -55.176  1.00  0.00     0.164 C 
HETATM    2  N   UNL     1     -42.555  61.473 -54.064  1.00  0.00    -0.249 NA
HETATM    3  C   UNL     1     -43.345  60.847 -53.144  1.00  0.00     0.181 C 
HETATM    4  N   UNL     1     -44.628  61.005 -53.067  1.00  0.00    -0.185 NA
HETATM    5  C   UNL     1     -45.244  61.834 -53.963  1.00  0.00     0.247 C 
HETATM    6  O   UNL     1     -46.410  61.682 -54.320  1.00  0.00    -0.271 OA
HETATM    7  C   UNL     1     -44.413  62.901 -54.610  1.00  0.00     0.134 C 
HETATM    8  H   UNL     1     -41.803  60.902 -54.445  1.00  0.00     0.131 HD
ENDROOT
BRANCH   3   9
HETATM    9  N   UNL     1     -42.695  60.006 -52.271  1.00  0.00    -0.353 N 
HETATM   10  C   UNL     1     -41.370  59.408 -52.476  1.00  0.00     0.153 C 
HETATM   11  C   UNL     1     -41.523  57.903 -52.789  1.00  0.00     0.256 C 
HETATM   12  N   UNL     1     -42.310  57.212 -51.672  1.00  0.00    -0.056 N 
HETATM   13  H   UNL     1     -41.818  57.387 -50.794  1.00  0.00     0.281 HD
HETATM   14  C   UNL     1     -43.674  57.893 -51.482  1.00  0.00     0.256 C 
HETATM   15  C   UNL     1     -43.455  59.387 -51.167  1.00  0.00     0.153 C 
BRANCH  12  16
HETATM   16  C   UNL     1     -42.400  55.685 -51.790  1.00  0.00     0.254 C 
BRANCH  16  17
HETATM   17  C   UNL     1     -42.160  55.206 -53.221  1.00  0.00    -0.023 A 
HETATM   18  C   UNL     1     -43.216  54.802 -54.060  1.00  0.00     0.009 A 
HETATM   19  C   UNL     1     -42.966  54.330 -55.349  1.00  0.00     0.001 A 
HETATM   20  C   UNL     1     -41.660  54.257 -55.824  1.00  0.00     0.000 A 
HETATM   21  C   UNL     1     -40.602  54.665 -55.016  1.00  0.00     0.001 A 
HETATM   22  C   UNL     1     -40.847  55.138 -53.726  1.00  0.00     0.009 A 
ENDBRANCH  16  17
BRANCH  16  23
HETATM   23  C   UNL     1     -41.634  54.913 -50.698  1.00  0.00    -0.023 A 
HETATM   24  C   UNL     1     -41.391  55.438 -49.412  1.00  0.00     0.009 A 
HETATM   25  C   UNL     1     -40.743  54.682 -48.429  1.00  0.00     0.001 A 
HETATM   26  C   UNL     1     -40.338  53.380 -48.698  1.00  0.00     0.000 A 
HETATM   27  C   UNL     1     -40.594  52.824 -49.945  1.00  0.00     0.001 A 
HETATM   28  C   UNL     1     -41.248  53.575 -50.926  1.00  0.00     0.009 A 
ENDBRANCH  16  23
ENDBRANCH  12  16
ENDBRANCH   3   9
BRANCH   1  29
HETATM   29  C   UNL     1     -43.456  61.132 -56.310  1.00  0.00     0.240 C 
HETATM   30  N   UNL     1     -42.498  60.156 -56.489  1.00  0.00    -0.326 N 
HETATM   31  H   UNL     1     -41.593  60.258 -56.035  1.00  0.00     0.169 HD
HETATM   32  O   UNL     1     -44.459  61.281 -57.017  1.00  0.00    -0.271 OA
BRANCH  30  33
HETATM   33  C   UNL     1     -42.527  59.105 -57.433  1.00  0.00     0.034 A 
HETATM   34  C   UNL     1     -41.988  59.192 -58.717  1.00  0.00     0.032 A 
HETATM   35  C   UNL     1     -42.067  58.102 -59.598  1.00  0.00     0.039 A 
HETATM   36  C   UNL     1     -42.677  56.915 -59.197  1.00  0.00     0.068 A 
HETATM   37  C   UNL     1     -43.223  56.832 -57.917  1.00  0.00     0.039 A 
HETATM   38  C   UNL     1     -43.160  57.920 -57.044  1.00  0.00     0.032 A 
BRANCH  36  39
HETATM   39  O   UNL     1     -42.801  55.777 -59.942  1.00  0.00    -0.352 OA
BRANCH  39  40
HETATM   40  C   UNL     1     -43.976  54.992 -59.749  1.00  0.00     0.171 C 
HETATM   41  C   UNL     1     -44.910  55.257 -60.917  1.00  0.00     0.034 C 
ENDBRANCH  39  40
ENDBRANCH  36  39
ENDBRANCH  30  33
ENDBRANCH   1  29
TORSDOF 8
ENDMDL
MODEL 6
REMARK VINA RESULT:      -7.9      2.560      6.758
REMARK  8 active torsions:
REMARK  status: ('A' for Active; 'I' for Inactive)
REMARK    1  A    between atoms: C_2  and  O_3 
REMARK    2  A    between atoms: O_3  and  C_4 
REMARK    3  A    between atoms: C_7  and  N_8 
REMARK       I    between atoms: N_8  and  C_9 
REMARK    4  A    between atoms: C_9  and  C_10 
REMARK    5  A    between atoms: C_12  and  N_13 
REMARK    6  A    between atoms: N_16  and  C_18 
REMARK    7  A    between atoms: C_18  and  C_19 
REMARK    8  A    between atoms: C_18  and  C_25 
ROOT
HETATM    1  C   UNL     1     -42.714  57.675 -58.367  1.00  0.00     0.164 C 
HETATM    2  N   UNL     1     -42.659  58.869 -57.505  1.00  0.00    -0.249 NA
HETATM    3  C   UNL     1     -43.837  59.362 -57.025  1.00  0.00     0.181 C 
HETATM    4  N   UNL     1     -45.003  58.982 -57.442  1.00  0.00    -0.185 NA
HETATM    5  C   UNL     1     -45.073  58.018 -58.411  1.00  0.00     0.247 C 
HETATM    6  O   UNL     1     -46.023  57.245 -58.515  1.00  0.00    -0.271 OA
HETATM    7  C   UNL     1     -43.882  57.841 -59.304  1.00  0.00     0.134 C 
HETATM    8  H   UNL     1     -41.934  58.729 -56.805  1.00  0.00     0.131 HD
ENDROOT
BRANCH   3   9
HETATM    9  N   UNL     1     -43.730  60.315 -56.039  1.00  0.00    -0.353 N 
HETATM   10  C   UNL     1     -42.493  60.709 -55.353  1.00  0.00     0.153 C 
HETATM   11  C   UNL     1     -42.499  60.155 -53.912  1.00  0.00     0.256 C 
HETATM   12  N   UNL     1     -43.754  60.628 -53.173  1.00  0.00    -0.056 N 
HETATM   13  H   UNL     1     -43.764  61.649 -53.205  1.00  0.00     0.281 HD
HETATM   14  C   UNL     1     -45.015  60.213 -53.945  1.00  0.00     0.256 C 
HETATM   15  C   UNL     1     -44.954  60.800 -55.370  1.00  0.00     0.153 C 
BRANCH  12  16
HETATM   16  C   UNL     1     -43.803  60.269 -51.682  1.00  0.00     0.254 C 
BRANCH  16  17
HETATM   17  C   UNL     1     -42.813  59.159 -51.327  1.00  0.00    -0.023 A 
HETATM   18  C   UNL     1     -43.141  57.796 -51.460  1.00  0.00     0.009 A 
HETATM   19  C   UNL     1     -42.234  56.803 -51.091  1.00  0.00     0.001 A 
HETATM   20  C   UNL     1     -40.984  57.151 -50.587  1.00  0.00     0.000 A 
HETATM   21  C   UNL     1     -40.635  58.494 -50.460  1.00  0.00     0.001 A 
HETATM   22  C   UNL     1     -41.539  59.491 -50.829  1.00  0.00     0.009 A 
ENDBRANCH  16  17
BRANCH  16  23
HETATM   23  C   UNL     1     -43.804  61.482 -50.731  1.00  0.00    -0.023 A 
HETATM   24  C   UNL     1     -43.236  62.726 -51.072  1.00  0.00     0.009 A 
HETATM   25  C   UNL     1     -43.310  63.821 -50.203  1.00  0.00     0.001 A 
HETATM   26  C   UNL     1     -43.966  63.706 -48.983  1.00  0.00     0.000 A 
HETATM   27  C   UNL     1     -44.564  62.502 -48.635  1.00  0.00     0.001 A 
HETATM   28  C   UNL     1     -44.498  61.409 -49.504  1.00  0.00     0.009 A 
ENDBRANCH  16  23
ENDBRANCH  12  16
ENDBRANCH   3   9
BRANCH   1  29
HETATM   29  C   UNL     1     -42.683  56.427 -57.434  1.00  0.00     0.240 C 
HETATM   30  N   UNL     1     -41.990  56.534 -56.247  1.00  0.00    -0.326 N 
HETATM   31  H   UNL     1     -41.362  57.322 -56.107  1.00  0.00     0.169 HD
HETATM   32  O   UNL     1     -43.234  55.398 -57.846  1.00  0.00    -0.271 OA
BRANCH  30  33
HETATM   33  C   UNL     1     -41.859  55.540 -55.252  1.00  0.00     0.034 A 
HETATM   34  C   UNL     1     -42.900  55.121 -54.423  1.00  0.00     0.032 A 
HETATM   35  C   UNL     1     -42.683  54.131 -53.451  1.00  0.00     0.039 A 
HETATM   36  C   UNL     1     -41.425  53.547 -53.309  1.00  0.00     0.068 A 
HETATM   37  C   UNL     1     -40.384  53.972 -54.132  1.00  0.00     0.039 A 
HETATM   38  C   UNL     1     -40.593  54.969 -55.088  1.00  0.00     0.032 A 
BRANCH  36  39
HETATM   39  O   UNL     1     -41.085  52.563 -52.425  1.00  0.00    -0.352 OA
BRANCH  39  40
HETATM   40  C   UNL     1     -39.859  52.716 -51.714  1.00  0.00     0.171 C 
HETATM   41  C   UNL     1     -40.151  53.496 -50.444  1.00  0.00     0.034 C 
ENDBRANCH  39  40
ENDBRANCH  36  39
ENDBRANCH  30  33
ENDBRANCH   1  29
TORSDOF 8
ENDMDL
MODEL 7
REMARK VINA RESULT:      -7.9      2.742      6.653
REMARK  8 active torsions:
REMARK  status: ('A' for Active; 'I' for Inactive)
REMARK    1  A    between atoms: C_2  and  O_3 
REMARK    2  A    between atoms: O_3  and  C_4 
REMARK    3  A    between atoms: C_7  and  N_8 
REMARK       I    between atoms: N_8  and  C_9 
REMARK    4  A    between atoms: C_9  and  C_10 
REMARK    5  A    between atoms: C_12  and  N_13 
REMARK    6  A    between atoms: N_16  and  C_18 
REMARK    7  A    between atoms: C_18  and  C_19 
REMARK    8  A    between atoms: C_18  and  C_25 
ROOT
HETATM    1  C   UNL     1     -42.931  57.532 -58.815  1.00  0.00     0.164 C 
HETATM    2  N   UNL     1     -43.123  58.664 -57.892  1.00  0.00    -0.249 NA
HETATM    3  C   UNL     1     -44.398  58.961 -57.507  1.00  0.00     0.181 C 
HETATM    4  N   UNL     1     -45.456  58.454 -58.057  1.00  0.00    -0.185 NA
HETATM    5  C   UNL     1     -45.300  57.555 -59.076  1.00  0.00     0.247 C 
HETATM    6  O   UNL     1     -46.118  56.669 -59.314  1.00  0.00    -0.271 OA
HETATM    7  C   UNL     1     -44.019  57.598 -59.854  1.00  0.00     0.134 C 
HETATM    8  H   UNL     1     -42.453  58.579 -57.131  1.00  0.00     0.131 HD
ENDROOT
BRANCH   3   9
HETATM    9  N   UNL     1     -44.517  59.854 -56.468  1.00  0.00    -0.353 N 
HETATM   10  C   UNL     1     -43.506  60.834 -56.055  1.00  0.00     0.153 C 
HETATM   11  C   UNL     1     -42.852  60.380 -54.732  1.00  0.00     0.256 C 
HETATM   12  N   UNL     1     -43.927  60.164 -53.663  1.00  0.00    -0.056 N 
HETATM   13  H   UNL     1     -44.448  61.036 -53.568  1.00  0.00     0.281 HD
HETATM   14  C   UNL     1     -44.972  59.151 -54.155  1.00  0.00     0.256 C 
HETATM   15  C   UNL     1     -45.591  59.662 -55.472  1.00  0.00     0.153 C 
BRANCH  12  16
HETATM   16  C   UNL     1     -43.392  59.856 -52.257  1.00  0.00     0.254 C 
BRANCH  16  17
HETATM   17  C   UNL     1     -44.171  60.600 -51.172  1.00  0.00    -0.023 A 
HETATM   18  C   UNL     1     -45.516  60.980 -51.347  1.00  0.00     0.009 A 
HETATM   19  C   UNL     1     -46.192  61.694 -50.357  1.00  0.00     0.001 A 
HETATM   20  C   UNL     1     -45.541  62.035 -49.176  1.00  0.00     0.000 A 
HETATM   21  C   UNL     1     -44.216  61.656 -48.976  1.00  0.00     0.001 A 
HETATM   22  C   UNL     1     -43.535  60.942 -49.964  1.00  0.00     0.009 A 
ENDBRANCH  16  17
BRANCH  16  23
HETATM   23  C   UNL     1     -43.138  58.362 -51.982  1.00  0.00    -0.023 A 
HETATM   24  C   UNL     1     -41.930  57.714 -52.309  1.00  0.00     0.009 A 
HETATM   25  C   UNL     1     -41.717  56.368 -51.989  1.00  0.00     0.001 A 
HETATM   26  C   UNL     1     -42.695  55.642 -51.320  1.00  0.00     0.000 A 
HETATM   27  C   UNL     1     -43.883  56.264 -50.955  1.00  0.00     0.001 A 
HETATM   28  C   UNL     1     -44.096  57.609 -51.268  1.00  0.00     0.009 A 
ENDBRANCH  16  23
ENDBRANCH  12  16
ENDBRANCH   3   9
BRANCH   1  29
HETATM   29  C   UNL     1     -42.809  56.242 -57.949  1.00  0.00     0.240 C 
HETATM   30  N   UNL     1     -42.123  56.335 -56.756  1.00  0.00    -0.326 N 
HETATM   31  H   UNL     1     -41.552  57.157 -56.575  1.00  0.00     0.169 HD
HETATM   32  O   UNL     1     -43.287  55.200 -58.415  1.00  0.00    -0.271 OA
BRANCH  30  33
HETATM   33  C   UNL     1     -41.920  55.302 -55.814  1.00  0.00     0.034 A 
HETATM   34  C   UNL     1     -42.946  54.544 -55.251  1.00  0.00     0.032 A 
HETATM   35  C   UNL     1     -42.659  53.539 -54.314  1.00  0.00     0.039 A 
HETATM   36  C   UNL     1     -41.342  53.280 -53.941  1.00  0.00     0.068 A 
HETATM   37  C   UNL     1     -40.317  54.044 -54.498  1.00  0.00     0.039 A 
HETATM   38  C   UNL     1     -40.601  55.055 -55.418  1.00  0.00     0.032 A 
BRANCH  36  39
HETATM   39  O   UNL     1     -40.923  52.322 -53.063  1.00  0.00    -0.352 OA
BRANCH  39  40
HETATM   40  C   UNL     1     -39.748  51.589 -53.403  1.00  0.00     0.171 C 
HETATM   41  C   UNL     1     -40.165  50.420 -54.278  1.00  0.00     0.034 C 
ENDBRANCH  39  40
ENDBRANCH  36  39
ENDBRANCH  30  33
ENDBRANCH   1  29
TORSDOF 8
ENDMDL
MODEL 8
REMARK VINA RESULT:      -7.7      3.541      5.954
REMARK  8 active torsions:
REMARK  status: ('A' for Active; 'I' for Inactive)
REMARK    1  A    between atoms: C_2  and  O_3 
REMARK    2  A    between atoms: O_3  and  C_4 
REMARK    3  A    between atoms: C_7  and  N_8 
REMARK       I    between atoms: N_8  and  C_9 
REMARK    4  A    between atoms: C_9  and  C_10 
REMARK    5  A    between atoms: C_12  and  N_13 
REMARK    6  A    between atoms: N_16  and  C_18 
REMARK    7  A    between atoms: C_18  and  C_19 
REMARK    8  A    between atoms: C_18  and  C_25 
ROOT
HETATM    1  C   UNL     1     -45.874  60.972 -51.403  1.00  0.00     0.164 C 
HETATM    2  N   UNL     1     -45.142  59.708 -51.206  1.00  0.00    -0.249 NA
HETATM    3  C   UNL     1     -43.820  59.680 -51.542  1.00  0.00     0.181 C 
HETATM    4  N   UNL     1     -43.225  60.615 -52.212  1.00  0.00    -0.185 NA
HETATM    5  C   UNL     1     -43.949  61.709 -52.599  1.00  0.00     0.247 C 
HETATM    6  O   UNL     1     -43.445  62.819 -52.759  1.00  0.00    -0.271 OA
HETATM    7  C   UNL     1     -45.435  61.554 -52.721  1.00  0.00     0.134 C 
HETATM    8  H   UNL     1     -45.357  59.350 -50.278  1.00  0.00     0.131 HD
ENDROOT
BRANCH   3   9
HETATM    9  N   UNL     1     -43.119  58.574 -51.121  1.00  0.00    -0.353 N 
HETATM   10  C   UNL     1     -41.667  58.499 -50.921  1.00  0.00     0.153 C 
HETATM   11  C   UNL     1     -41.029  57.666 -52.053  1.00  0.00     0.256 C 
HETATM   12  N   UNL     1     -41.682  56.282 -52.118  1.00  0.00    -0.056 N 
HETATM   13  H   UNL     1     -41.578  55.848 -51.200  1.00  0.00     0.281 HD
HETATM   14  C   UNL     1     -43.201  56.418 -52.302  1.00  0.00     0.256 C 
HETATM   15  C   UNL     1     -43.779  57.253 -51.141  1.00  0.00     0.153 C 
BRANCH  12  16
HETATM   16  C   UNL     1     -41.032  55.303 -53.105  1.00  0.00     0.254 C 
BRANCH  16  17
HETATM   17  C   UNL     1     -40.612  53.999 -52.427  1.00  0.00    -0.023 A 
HETATM   18  C   UNL     1     -40.064  52.924 -53.151  1.00  0.00     0.009 A 
HETATM   19  C   UNL     1     -39.726  51.729 -52.513  1.00  0.00     0.001 A 
HETATM   20  C   UNL     1     -39.925  51.590 -51.143  1.00  0.00     0.000 A 
HETATM   21  C   UNL     1     -40.452  52.647 -50.405  1.00  0.00     0.001 A 
HETATM   22  C   UNL     1     -40.791  53.843 -51.039  1.00  0.00     0.009 A 
ENDBRANCH  16  17
BRANCH  16  23
HETATM   23  C   UNL     1     -41.789  55.140 -54.437  1.00  0.00    -0.023 A 
HETATM   24  C   UNL     1     -42.661  54.065 -54.699  1.00  0.00     0.009 A 
HETATM   25  C   UNL     1     -43.375  53.984 -55.900  1.00  0.00     0.001 A 
HETATM   26  C   UNL     1     -43.250  54.982 -56.860  1.00  0.00     0.000 A 
HETATM   27  C   UNL     1     -42.423  56.071 -56.615  1.00  0.00     0.001 A 
HETATM   28  C   UNL     1     -41.715  56.157 -55.414  1.00  0.00     0.009 A 
ENDBRANCH  16  23
ENDBRANCH  12  16
ENDBRANCH   3   9
BRANCH   1  29
HETATM   29  C   UNL     1     -45.683  61.826 -50.113  1.00  0.00     0.240 C 
HETATM   30  N   UNL     1     -45.587  61.155 -48.912  1.00  0.00    -0.326 N 
HETATM   31  H   UNL     1     -45.844  60.172 -48.869  1.00  0.00     0.169 HD
HETATM   32  O   UNL     1     -45.687  63.056 -50.242  1.00  0.00    -0.271 OA
BRANCH  30  33
HETATM   33  C   UNL     1     -45.385  61.729 -47.637  1.00  0.00     0.034 A 
HETATM   34  C   UNL     1     -45.466  63.097 -47.373  1.00  0.00     0.032 A 
HETATM   35  C   UNL     1     -45.244  63.587 -46.077  1.00  0.00     0.039 A 
HETATM   36  C   UNL     1     -44.947  62.711 -45.034  1.00  0.00     0.068 A 
HETATM   37  C   UNL     1     -44.858  61.346 -45.300  1.00  0.00     0.039 A 
HETATM   38  C   UNL     1     -45.063  60.857 -46.592  1.00  0.00     0.032 A 
BRANCH  36  39
HETATM   39  O   UNL     1     -44.732  63.051 -43.728  1.00  0.00    -0.352 OA
BRANCH  39  40
HETATM   40  C   UNL     1     -43.558  62.538 -43.103  1.00  0.00     0.171 C 
HETATM   41  C   UNL     1     -42.863  63.690 -42.400  1.00  0.00     0.034 C 
ENDBRANCH  39  40
ENDBRANCH  36  39
ENDBRANCH  30  33
ENDBRANCH   1  29
TORSDOF 8
ENDMDL
MODEL 9
REMARK VINA RESULT:      -7.7      2.272      5.584
REMARK  8 active torsions:
REMARK  status: ('A' for Active; 'I' for Inactive)
REMARK    1  A    between atoms: C_2  and  O_3 
REMARK    2  A    between atoms: O_3  and  C_4 
REMARK    3  A    between atoms: C_7  and  N_8 
REMARK       I    between atoms: N_8  and  C_9 
REMARK    4  A    between atoms: C_9  and  C_10 
REMARK    5  A    between atoms: C_12  and  N_13 
REMARK    6  A    between atoms: N_16  and  C_18 
REMARK    7  A    between atoms: C_18  and  C_19 
REMARK    8  A    between atoms: C_18  and  C_25 
ROOT
HETATM    1  C   UNL     1     -43.893  61.828 -52.591  1.00  0.00     0.164 C 
HETATM    2  N   UNL     1     -42.972  60.732 -52.244  1.00  0.00    -0.249 NA
HETATM    3  C   UNL     1     -43.403  59.798 -51.347  1.00  0.00     0.181 C 
HETATM    4  N   UNL     1     -44.475  59.925 -50.631  1.00  0.00    -0.185 NA
HETATM    5  C   UNL     1     -45.237  61.051 -50.782  1.00  0.00     0.247 C 
HETATM    6  O   UNL     1     -46.450  61.067 -50.582  1.00  0.00    -0.271 OA
HETATM    7  C   UNL     1     -44.568  62.279 -51.321  1.00  0.00     0.134 C 
HETATM    8  H   UNL     1     -42.579  60.354 -53.103  1.00  0.00     0.131 HD
ENDROOT
BRANCH   3   9
HETATM    9  N   UNL     1     -42.623  58.671 -51.235  1.00  0.00    -0.353 N 
HETATM   10  C   UNL     1     -41.158  58.626 -51.318  1.00  0.00     0.153 C 
HETATM   11  C   UNL     1     -40.734  57.995 -52.662  1.00  0.00     0.256 C 
HETATM   12  N   UNL     1     -41.371  56.611 -52.816  1.00  0.00    -0.056 N 
HETATM   13  H   UNL     1     -41.091  56.051 -52.009  1.00  0.00     0.281 HD
HETATM   14  C   UNL     1     -42.899  56.712 -52.696  1.00  0.00     0.256 C 
HETATM   15  C   UNL     1     -43.259  57.342 -51.335  1.00  0.00     0.153 C 
BRANCH  12  16
HETATM   16  C   UNL     1     -40.905  55.815 -54.043  1.00  0.00     0.254 C 
BRANCH  16  17
HETATM   17  C   UNL     1     -40.579  54.363 -53.694  1.00  0.00    -0.023 A 
HETATM   18  C   UNL     1     -40.599  53.892 -52.367  1.00  0.00     0.009 A 
HETATM   19  C   UNL     1     -40.258  52.571 -52.072  1.00  0.00     0.001 A 
HETATM   20  C   UNL     1     -39.896  51.699 -53.094  1.00  0.00     0.000 A 
HETATM   21  C   UNL     1     -39.884  52.141 -54.415  1.00  0.00     0.001 A 
HETATM   22  C   UNL     1     -40.224  53.461 -54.715  1.00  0.00     0.009 A 
ENDBRANCH  16  17
BRANCH  16  23
HETATM   23  C   UNL     1     -41.772  56.014 -55.301  1.00  0.00    -0.023 A 
HETATM   24  C   UNL     1     -41.805  57.220 -56.029  1.00  0.00     0.009 A 
HETATM   25  C   UNL     1     -42.561  57.341 -57.201  1.00  0.00     0.001 A 
HETATM   26  C   UNL     1     -43.286  56.259 -57.684  1.00  0.00     0.000 A 
HETATM   27  C   UNL     1     -43.246  55.047 -57.005  1.00  0.00     0.001 A 
HETATM   28  C   UNL     1     -42.486  54.921 -55.839  1.00  0.00     0.009 A 
ENDBRANCH  16  23
ENDBRANCH  12  16
ENDBRANCH   3   9
BRANCH   1  29
HETATM   29  C   UNL     1     -44.786  61.330 -53.768  1.00  0.00     0.240 C 
HETATM   30  N   UNL     1     -44.227  60.436 -54.658  1.00  0.00    -0.326 N 
HETATM   31  H   UNL     1     -43.221  60.290 -54.650  1.00  0.00     0.169 HD
HETATM   32  O   UNL     1     -45.920  61.813 -53.862  1.00  0.00    -0.271 OA
BRANCH  30  33
HETATM   33  C   UNL     1     -44.863  59.843 -55.771  1.00  0.00     0.034 A 
HETATM   34  C   UNL     1     -44.827  60.365 -57.064  1.00  0.00     0.032 A 
HETATM   35  C   UNL     1     -45.494  59.716 -58.114  1.00  0.00     0.039 A 
HETATM   36  C   UNL     1     -46.195  58.535 -57.880  1.00  0.00     0.068 A 
HETATM   37  C   UNL     1     -46.239  58.017 -56.586  1.00  0.00     0.039 A 
HETATM   38  C   UNL     1     -45.589  58.670 -55.536  1.00  0.00     0.032 A 
BRANCH  36  39
HETATM   39  O   UNL     1     -46.866  57.793 -58.810  1.00  0.00    -0.352 OA
BRANCH  39  40
HETATM   40  C   UNL     1     -46.228  57.588 -60.069  1.00  0.00     0.171 C 
HETATM   41  C   UNL     1     -46.031  56.094 -60.253  1.00  0.00     0.034 C 
ENDBRANCH  39  40
ENDBRANCH  36  39
ENDBRANCH  30  33
ENDBRANCH   1  29
TORSDOF 8
ENDMDL
MODEL 10
REMARK VINA RESULT:      -7.7      4.036      8.449
REMARK  8 active torsions:
REMARK  status: ('A' for Active; 'I' for Inactive)
REMARK    1  A    between atoms: C_2  and  O_3 
REMARK    2  A    between atoms: O_3  and  C_4 
REMARK    3  A    between atoms: C_7  and  N_8 
REMARK       I    between atoms: N_8  and  C_9 
REMARK    4  A    between atoms: C_9  and  C_10 
REMARK    5  A    between atoms: C_12  and  N_13 
REMARK    6  A    between atoms: N_16  and  C_18 
REMARK    7  A    between atoms: C_18  and  C_19 
REMARK    8  A    between atoms: C_18  and  C_25 
ROOT
HETATM    1  C   UNL     1     -45.126  57.764 -57.983  1.00  0.00     0.164 C 
HETATM    2  N   UNL     1     -44.419  56.999 -56.941  1.00  0.00    -0.249 NA
HETATM    3  C   UNL     1     -43.389  56.194 -57.332  1.00  0.00     0.181 C 
HETATM    4  N   UNL     1     -43.130  55.901 -58.567  1.00  0.00    -0.185 NA
HETATM    5  C   UNL     1     -43.919  56.433 -59.549  1.00  0.00     0.247 C 
HETATM    6  O   UNL     1     -43.509  56.656 -60.686  1.00  0.00    -0.271 OA
HETATM    7  C   UNL     1     -45.307  56.859 -59.174  1.00  0.00     0.134 C 
HETATM    8  H   UNL     1     -44.207  57.624 -56.167  1.00  0.00     0.131 HD
ENDROOT
BRANCH   3   9
HETATM    9  N   UNL     1     -42.605  55.692 -56.320  1.00  0.00    -0.353 N 
HETATM   10  C   UNL     1     -42.866  54.467 -55.554  1.00  0.00     0.153 C 
HETATM   11  C   UNL     1     -43.334  54.835 -54.129  1.00  0.00     0.256 C 
HETATM   12  N   UNL     1     -42.297  55.736 -53.453  1.00  0.00    -0.056 N 
HETATM   13  H   UNL     1     -41.404  55.240 -53.462  1.00  0.00     0.281 HD
HETATM   14  C   UNL     1     -42.042  56.988 -54.306  1.00  0.00     0.256 C 
HETATM   15  C   UNL     1     -41.573  56.557 -55.711  1.00  0.00     0.153 C 
BRANCH  12  16
HETATM   16  C   UNL     1     -42.573  56.048 -51.976  1.00  0.00     0.254 C 
BRANCH  16  17
HETATM   17  C   UNL     1     -41.665  55.248 -51.042  1.00  0.00    -0.023 A 
HETATM   18  C   UNL     1     -40.751  54.292 -51.528  1.00  0.00     0.009 A 
HETATM   19  C   UNL     1     -39.963  53.546 -50.651  1.00  0.00     0.001 A 
HETATM   20  C   UNL     1     -40.070  53.743 -49.277  1.00  0.00     0.000 A 
HETATM   21  C   UNL     1     -40.956  54.694 -48.777  1.00  0.00     0.001 A 
HETATM   22  C   UNL     1     -41.747  55.442 -49.650  1.00  0.00     0.009 A 
ENDBRANCH  16  17
BRANCH  16  23
HETATM   23  C   UNL     1     -42.695  57.549 -51.651  1.00  0.00    -0.023 A 
HETATM   24  C   UNL     1     -43.934  58.201 -51.486  1.00  0.00     0.009 A 
HETATM   25  C   UNL     1     -44.002  59.554 -51.133  1.00  0.00     0.001 A 
HETATM   26  C   UNL     1     -42.838  60.283 -50.920  1.00  0.00     0.000 A 
HETATM   27  C   UNL     1     -41.604  59.659 -51.043  1.00  0.00     0.001 A 
HETATM   28  C   UNL     1     -41.533  58.306 -51.388  1.00  0.00     0.009 A 
ENDBRANCH  16  23
ENDBRANCH  12  16
ENDBRANCH   3   9
BRANCH   1  29
HETATM   29  C   UNL     1     -44.354  59.104 -58.180  1.00  0.00     0.240 C 
HETATM   30  N   UNL     1     -43.096  59.039 -58.743  1.00  0.00    -0.326 N 
HETATM   31  H   UNL     1     -42.632  58.137 -58.819  1.00  0.00     0.169 HD
HETATM   32  O   UNL     1     -44.895  60.136 -57.765  1.00  0.00    -0.271 OA
BRANCH  30  33
HETATM   33  C   UNL     1     -42.243  60.127 -59.032  1.00  0.00     0.034 A 
HETATM   34  C   UNL     1     -41.534  60.844 -58.068  1.00  0.00     0.032 A 
HETATM   35  C   UNL     1     -40.712  61.919 -58.440  1.00  0.00     0.039 A 
HETATM   36  C   UNL     1     -40.586  62.278 -59.781  1.00  0.00     0.068 A 
HETATM   37  C   UNL     1     -41.301  61.566 -60.744  1.00  0.00     0.039 A 
HETATM   38  C   UNL     1     -42.132  60.507 -60.374  1.00  0.00     0.032 A 
BRANCH  36  39
HETATM   39  O   UNL     1     -39.807  63.283 -60.281  1.00  0.00    -0.352 OA
BRANCH  39  40
HETATM   40  C   UNL     1     -39.431  63.200 -61.653  1.00  0.00     0.171 C 
HETATM   41  C   UNL     1     -38.261  64.141 -61.873  1.00  0.00     0.034 C 
ENDBRANCH  39  40
ENDBRANCH  36  39
ENDBRANCH  30  33
ENDBRANCH   1  29
TORSDOF 8
ENDMDL
