MODEL 1
REMARK VINA RESULT:      -7.5      0.000      0.000
REMARK  8 active torsions:
REMARK  status: ('A' for Active; 'I' for Inactive)
REMARK    1  A    between atoms: C_4  and  N_5 
REMARK    2  A    between atoms: C_8  and  C_9 
REMARK    3  A    between atoms: C_9  and  N_10 
REMARK       I    between atoms: N_10  and  C_11 
REMARK       I    between atoms: C_11  and  N_12 
REMARK    4  A    between atoms: N_12  and  C_13 
REMARK    5  A    between atoms: C_13  and  C_14 
REMARK    6  A    between atoms: C_14  and  N_15 
REMARK       I    between atoms: N_15  and  C_16 
REMARK    7  A    between atoms: C_16  and  C_17 
REMARK    8  A    between atoms: C_18  and  O_19 
ROOT
HETATM    1  N   UNL     1     -42.966  57.110 -55.819  1.00  0.00    -0.339 N 
HETATM    2  C   UNL     1     -43.986  57.530 -55.011  1.00  0.00     0.316 C 
HETATM    3  N   UNL     1     -43.897  58.859 -54.714  1.00  0.00    -0.342 N 
HETATM    4  O   UNL     1     -44.899  56.804 -54.639  1.00  0.00    -0.248 OA
HETATM    5  H   UNL     1     -42.115  57.648 -55.818  1.00  0.00     0.164 HD
HETATM    6  H   UNL     1     -43.018  59.335 -54.847  1.00  0.00     0.164 HD
ENDROOT
BRANCH   1   7
HETATM    7  C   UNL     1     -42.898  55.727 -56.221  1.00  0.00     0.166 C 
BRANCH   7   8
HETATM    8  C   UNL     1     -41.948  55.010 -55.336  1.00  0.00    -0.004 A 
HETATM    9  C   UNL     1     -40.928  55.568 -54.544  1.00  0.00     0.149 A 
HETATM   10  N   UNL     1     -40.252  54.655 -53.848  1.00  0.00    -0.180 NA
HETATM   11  N   UNL     1     -40.838  53.470 -54.166  1.00  0.00    -0.245 N 
HETATM   12  C   UNL     1     -41.864  53.657 -55.069  1.00  0.00     0.129 A 
BRANCH  11  13
HETATM   13  C   UNL     1     -40.382  52.250 -53.591  1.00  0.00     0.058 A 
HETATM   14  C   UNL     1     -40.366  51.084 -54.373  1.00  0.00     0.031 A 
HETATM   15  C   UNL     1     -39.919  49.877 -53.830  1.00  0.00     0.002 A 
HETATM   16  C   UNL     1     -39.487  49.825 -52.507  1.00  0.00     0.000 A 
HETATM   17  C   UNL     1     -39.501  50.978 -51.724  1.00  0.00     0.002 A 
HETATM   18  C   UNL     1     -39.945  52.190 -52.261  1.00  0.00     0.031 A 
ENDBRANCH  11  13
ENDBRANCH   7   8
ENDBRANCH   1   7
BRANCH   3  19
HETATM   19  C   UNL     1     -44.871  59.513 -53.857  1.00  0.00     0.144 C 
BRANCH  19  20
HETATM   20  C   UNL     1     -44.445  59.523 -52.384  1.00  0.00     0.142 C 
BRANCH  20  21
HETATM   21  N   UNL     1     -44.012  58.223 -51.899  1.00  0.00    -0.355 N 
HETATM   22  C   UNL     1     -42.686  57.862 -51.844  1.00  0.00     0.254 C 
HETATM   23  O   UNL     1     -41.795  58.559 -52.321  1.00  0.00    -0.268 OA
HETATM   24  H   UNL     1     -44.676  57.640 -51.395  1.00  0.00     0.162 HD
BRANCH  22  25
HETATM   25  C   UNL     1     -42.354  56.563 -51.178  1.00  0.00     0.065 A 
HETATM   26  C   UNL     1     -42.975  55.336 -51.463  1.00  0.00     0.081 A 
HETATM   27  C   UNL     1     -42.601  54.174 -50.780  1.00  0.00     0.037 A 
HETATM   28  C   UNL     1     -41.602  54.225 -49.806  1.00  0.00     0.003 A 
HETATM   29  C   UNL     1     -40.978  55.434 -49.511  1.00  0.00     0.001 A 
HETATM   30  C   UNL     1     -41.353  56.594 -50.191  1.00  0.00     0.020 A 
BRANCH  26  31
HETATM   31  O   UNL     1     -43.963  55.249 -52.410  1.00  0.00    -0.360 OA
HETATM   32  H   UNL     1     -44.150  56.142 -52.749  1.00  0.00     0.217 HD
ENDBRANCH  26  31
ENDBRANCH  22  25
ENDBRANCH  20  21
ENDBRANCH  19  20
ENDBRANCH   3  19
TORSDOF 8
ENDMDL
MODEL 2
REMARK VINA RESULT:      -7.4      2.279      6.243
REMARK  8 active torsions:
REMARK  status: ('A' for Active; 'I' for Inactive)
REMARK    1  A    between atoms: C_4  and  N_5 
REMARK    2  A    between atoms: C_8  and  C_9 
REMARK    3  A    between atoms: C_9  and  N_10 
REMARK       I    between atoms: N_10  and  C_11 
REMARK       I    between atoms: C_11  and  N_12 
REMARK    4  A    between atoms: N_12  and  C_13 
REMARK    5  A    between atoms: C_13  and  C_14 
REMARK    6  A    between atoms: C_14  and  N_15 
REMARK       I    between atoms: N_15  and  C_16 
REMARK    7  A    between atoms: C_16  and  C_17 
REMARK    8  A    between atoms: C_18  and  O_19 
ROOT
HETATM    1  N   UNL     1     -42.965  57.152 -51.295  1.00  0.00    -0.339 N 
HETATM    2  C   UNL     1     -42.700  55.967 -50.668  1.00  0.00     0.316 C 
HETATM    3  N   UNL     1     -41.686  56.078 -49.761  1.00  0.00    -0.342 N 
HETATM    4  O   UNL     1     -43.334  54.938 -50.864  1.00  0.00    -0.248 OA
HETATM    5  H   UNL     1     -42.230  57.840 -51.329  1.00  0.00     0.164 HD
HETATM    6  H   UNL     1     -41.061  56.866 -49.816  1.00  0.00     0.164 HD
ENDROOT
BRANCH   1   7
HETATM    7  C   UNL     1     -44.002  57.212 -52.297  1.00  0.00     0.166 C 
BRANCH   7   8
HETATM    8  C   UNL     1     -43.390  57.527 -53.610  1.00  0.00    -0.004 A 
HETATM    9  C   UNL     1     -42.408  58.496 -53.888  1.00  0.00     0.149 A 
HETATM   10  N   UNL     1     -42.054  58.525 -55.172  1.00  0.00    -0.180 NA
HETATM   11  N   UNL     1     -42.799  57.551 -55.760  1.00  0.00    -0.245 N 
HETATM   12  C   UNL     1     -43.619  56.936 -54.838  1.00  0.00     0.129 A 
BRANCH  11  13
HETATM   13  C   UNL     1     -42.677  57.278 -57.152  1.00  0.00     0.058 A 
HETATM   14  C   UNL     1     -43.105  56.037 -57.651  1.00  0.00     0.031 A 
HETATM   15  C   UNL     1     -42.998  55.749 -59.013  1.00  0.00     0.002 A 
HETATM   16  C   UNL     1     -42.463  56.694 -59.886  1.00  0.00     0.000 A 
HETATM   17  C   UNL     1     -42.035  57.928 -59.399  1.00  0.00     0.002 A 
HETATM   18  C   UNL     1     -42.141  58.224 -58.036  1.00  0.00     0.031 A 
ENDBRANCH  11  13
ENDBRANCH   7   8
ENDBRANCH   1   7
BRANCH   3  19
HETATM   19  C   UNL     1     -41.230  54.935 -48.988  1.00  0.00     0.144 C 
BRANCH  19  20
HETATM   20  C   UNL     1     -39.843  54.446 -49.424  1.00  0.00     0.142 C 
BRANCH  20  21
HETATM   21  N   UNL     1     -39.885  53.249 -50.247  1.00  0.00    -0.355 N 
HETATM   22  C   UNL     1     -40.064  53.298 -51.609  1.00  0.00     0.254 C 
HETATM   23  O   UNL     1     -40.330  54.341 -52.200  1.00  0.00    -0.268 OA
HETATM   24  H   UNL     1     -39.570  52.368 -49.848  1.00  0.00     0.162 HD
BRANCH  22  25
HETATM   25  C   UNL     1     -39.928  52.014 -52.368  1.00  0.00     0.065 A 
HETATM   26  C   UNL     1     -40.067  51.889 -53.759  1.00  0.00     0.081 A 
HETATM   27  C   UNL     1     -39.930  50.643 -54.379  1.00  0.00     0.037 A 
HETATM   28  C   UNL     1     -39.653  49.508 -53.615  1.00  0.00     0.003 A 
HETATM   29  C   UNL     1     -39.514  49.615 -52.234  1.00  0.00     0.001 A 
HETATM   30  C   UNL     1     -39.653  50.859 -51.616  1.00  0.00     0.020 A 
BRANCH  26  31
HETATM   31  O   UNL     1     -40.344  52.982 -54.542  1.00  0.00    -0.360 OA
HETATM   32  H   UNL     1     -39.689  53.024 -55.261  1.00  0.00     0.217 HD
ENDBRANCH  26  31
ENDBRANCH  22  25
ENDBRANCH  20  21
ENDBRANCH  19  20
ENDBRANCH   3  19
TORSDOF 8
ENDMDL
MODEL 3
REMARK VINA RESULT:      -7.3      2.832      6.616
REMARK  8 active torsions:
REMARK  status: ('A' for Active; 'I' for Inactive)
REMARK    1  A    between atoms: C_4  and  N_5 
REMARK    2  A    between atoms: C_8  and  C_9 
REMARK    3  A    between atoms: C_9  and  N_10 
REMARK       I    between atoms: N_10  and  C_11 
REMARK       I    between atoms: C_11  and  N_12 
REMARK    4  A    between atoms: N_12  and  C_13 
REMARK    5  A    between atoms: C_13  and  C_14 
REMARK    6  A    between atoms: C_14  and  N_15 
REMARK       I    between atoms: N_15  and  C_16 
REMARK    7  A    between atoms: C_16  and  C_17 
REMARK    8  A    between atoms: C_18  and  O_19 
ROOT
HETATM    1  N   UNL     1     -41.765  57.373 -52.343  1.00  0.00    -0.339 N 
HETATM    2  C   UNL     1     -41.348  57.057 -51.080  1.00  0.00     0.316 C 
HETATM    3  N   UNL     1     -41.587  55.750 -50.768  1.00  0.00    -0.342 N 
HETATM    4  O   UNL     1     -40.781  57.847 -50.335  1.00  0.00    -0.248 OA
HETATM    5  H   UNL     1     -42.482  56.801 -52.757  1.00  0.00     0.164 HD
HETATM    6  H   UNL     1     -42.254  55.228 -51.315  1.00  0.00     0.164 HD
ENDROOT
BRANCH   1   7
HETATM    7  C   UNL     1     -41.600  58.720 -52.832  1.00  0.00     0.166 C 
BRANCH   7   8
HETATM    8  C   UNL     1     -41.897  58.750 -54.284  1.00  0.00    -0.004 A 
HETATM    9  C   UNL     1     -42.068  59.883 -55.101  1.00  0.00     0.149 A 
HETATM   10  N   UNL     1     -42.312  59.575 -56.374  1.00  0.00    -0.180 NA
HETATM   11  N   UNL     1     -42.289  58.215 -56.414  1.00  0.00    -0.245 N 
HETATM   12  C   UNL     1     -42.045  57.692 -55.161  1.00  0.00     0.129 A 
BRANCH  11  13
HETATM   13  C   UNL     1     -42.501  57.516 -57.635  1.00  0.00     0.058 A 
HETATM   14  C   UNL     1     -43.205  56.301 -57.620  1.00  0.00     0.031 A 
HETATM   15  C   UNL     1     -43.427  55.599 -58.807  1.00  0.00     0.002 A 
HETATM   16  C   UNL     1     -42.948  56.101 -60.014  1.00  0.00     0.000 A 
HETATM   17  C   UNL     1     -42.247  57.306 -60.038  1.00  0.00     0.002 A 
HETATM   18  C   UNL     1     -42.022  58.015 -58.854  1.00  0.00     0.031 A 
ENDBRANCH  11  13
ENDBRANCH   7   8
ENDBRANCH   1   7
BRANCH   3  19
HETATM   19  C   UNL     1     -41.235  55.202 -49.469  1.00  0.00     0.144 C 
BRANCH  19  20
HETATM   20  C   UNL     1     -39.882  54.480 -49.484  1.00  0.00     0.142 C 
BRANCH  20  21
HETATM   21  N   UNL     1     -39.701  53.618 -50.640  1.00  0.00    -0.355 N 
HETATM   22  C   UNL     1     -40.041  52.286 -50.626  1.00  0.00     0.254 C 
HETATM   23  O   UNL     1     -40.396  51.709 -49.603  1.00  0.00    -0.268 OA
HETATM   24  H   UNL     1     -39.514  54.044 -51.545  1.00  0.00     0.162 HD
BRANCH  22  25
HETATM   25  C   UNL     1     -39.959  51.541 -51.923  1.00  0.00     0.065 A 
HETATM   26  C   UNL     1     -39.615  50.186 -52.046  1.00  0.00     0.081 A 
HETATM   27  C   UNL     1     -39.557  49.577 -53.304  1.00  0.00     0.037 A 
HETATM   28  C   UNL     1     -39.842  50.317 -54.453  1.00  0.00     0.003 A 
HETATM   29  C   UNL     1     -40.183  51.663 -54.348  1.00  0.00     0.001 A 
HETATM   30  C   UNL     1     -40.239  52.270 -53.092  1.00  0.00     0.020 A 
BRANCH  26  31
HETATM   31  O   UNL     1     -39.324  49.429 -50.939  1.00  0.00    -0.360 OA
HETATM   32  H   UNL     1     -38.382  49.543 -50.722  1.00  0.00     0.217 HD
ENDBRANCH  26  31
ENDBRANCH  22  25
ENDBRANCH  20  21
ENDBRANCH  19  20
ENDBRANCH   3  19
TORSDOF 8
ENDMDL
MODEL 4
REMARK VINA RESULT:      -7.3      2.993      5.723
REMARK  8 active torsions:
REMARK  status: ('A' for Active; 'I' for Inactive)
REMARK    1  A    between atoms: C_4  and  N_5 
REMARK    2  A    between atoms: C_8  and  C_9 
REMARK    3  A    between atoms: C_9  and  N_10 
REMARK       I    between atoms: N_10  and  C_11 
REMARK       I    between atoms: C_11  and  N_12 
REMARK    4  A    between atoms: N_12  and  C_13 
REMARK    5  A    between atoms: C_13  and  C_14 
REMARK    6  A    between atoms: C_14  and  N_15 
REMARK       I    between atoms: N_15  and  C_16 
REMARK    7  A    between atoms: C_16  and  C_17 
REMARK    8  A    between atoms: C_18  and  O_19 
ROOT
HETATM    1  N   UNL     1     -42.434  57.671 -53.606  1.00  0.00    -0.339 N 
HETATM    2  C   UNL     1     -42.035  58.778 -54.302  1.00  0.00     0.316 C 
HETATM    3  N   UNL     1     -42.997  59.222 -55.163  1.00  0.00    -0.342 N 
HETATM    4  O   UNL     1     -40.957  59.333 -54.135  1.00  0.00    -0.248 OA
HETATM    5  H   UNL     1     -43.160  57.101 -54.008  1.00  0.00     0.164 HD
HETATM    6  H   UNL     1     -43.748  58.602 -55.425  1.00  0.00     0.164 HD
ENDROOT
BRANCH   1   7
HETATM    7  C   UNL     1     -41.532  57.061 -52.660  1.00  0.00     0.166 C 
BRANCH   7   8
HETATM    8  C   UNL     1     -41.066  55.762 -53.201  1.00  0.00    -0.004 A 
HETATM    9  C   UNL     1     -40.597  55.493 -54.501  1.00  0.00     0.149 A 
HETATM   10  N   UNL     1     -40.239  54.222 -54.673  1.00  0.00    -0.180 NA
HETATM   11  N   UNL     1     -40.455  53.633 -53.466  1.00  0.00    -0.245 N 
HETATM   12  C   UNL     1     -40.961  54.542 -52.560  1.00  0.00     0.129 A 
BRANCH  11  13
HETATM   13  C   UNL     1     -40.169  52.254 -53.263  1.00  0.00     0.058 A 
HETATM   14  C   UNL     1     -39.766  51.813 -51.992  1.00  0.00     0.031 A 
HETATM   15  C   UNL     1     -39.482  50.464 -51.770  1.00  0.00     0.002 A 
HETATM   16  C   UNL     1     -39.596  49.547 -52.812  1.00  0.00     0.000 A 
HETATM   17  C   UNL     1     -39.994  49.976 -54.077  1.00  0.00     0.002 A 
HETATM   18  C   UNL     1     -40.282  51.325 -54.306  1.00  0.00     0.031 A 
ENDBRANCH  11  13
ENDBRANCH   7   8
ENDBRANCH   1   7
BRANCH   3  19
HETATM   19  C   UNL     1     -42.780  60.380 -56.013  1.00  0.00     0.144 C 
BRANCH  19  20
HETATM   20  C   UNL     1     -42.207  60.002 -57.385  1.00  0.00     0.142 C 
BRANCH  20  21
HETATM   21  N   UNL     1     -43.143  59.266 -58.219  1.00  0.00    -0.355 N 
HETATM   22  C   UNL     1     -43.245  57.896 -58.177  1.00  0.00     0.254 C 
HETATM   23  O   UNL     1     -42.467  57.198 -57.534  1.00  0.00    -0.268 OA
HETATM   24  H   UNL     1     -43.885  59.776 -58.693  1.00  0.00     0.162 HD
BRANCH  22  25
HETATM   25  C   UNL     1     -44.354  57.264 -58.962  1.00  0.00     0.065 A 
HETATM   26  C   UNL     1     -44.172  56.325 -59.989  1.00  0.00     0.081 A 
HETATM   27  C   UNL     1     -45.272  55.795 -60.672  1.00  0.00     0.037 A 
HETATM   28  C   UNL     1     -46.565  56.198 -60.335  1.00  0.00     0.003 A 
HETATM   29  C   UNL     1     -46.762  57.130 -59.320  1.00  0.00     0.001 A 
HETATM   30  C   UNL     1     -45.664  57.660 -58.640  1.00  0.00     0.020 A 
BRANCH  26  31
HETATM   31  O   UNL     1     -42.915  55.909 -60.350  1.00  0.00    -0.360 OA
HETATM   32  H   UNL     1     -42.575  56.506 -61.040  1.00  0.00     0.217 HD
ENDBRANCH  26  31
ENDBRANCH  22  25
ENDBRANCH  20  21
ENDBRANCH  19  20
ENDBRANCH   3  19
TORSDOF 8
ENDMDL
MODEL 5
REMARK VINA RESULT:      -7.2      1.594      3.996
REMARK  8 active torsions:
REMARK  status: ('A' for Active; 'I' for Inactive)
REMARK    1  A    between atoms: C_4  and  N_5 
REMARK    2  A    between atoms: C_8  and  C_9 
REMARK    3  A    between atoms: C_9  and  N_10 
REMARK       I    between atoms: N_10  and  C_11 
REMARK       I    between atoms: C_11  and  N_12 
REMARK    4  A    between atoms: N_12  and  C_13 
REMARK    5  A    between atoms: C_13  and  C_14 
REMARK    6  A    between atoms: C_14  and  N_15 
REMARK       I    between atoms: N_15  and  C_16 
REMARK    7  A    between atoms: C_16  and  C_17 
REMARK    8  A    between atoms: C_18  and  O_19 
ROOT
HETATM    1  N   UNL     1     -42.901  58.141 -50.863  1.00  0.00    -0.339 N 
HETATM    2  C   UNL     1     -43.238  59.273 -51.552  1.00  0.00     0.316 C 
HETATM    3  N   UNL     1     -44.579  59.349 -51.796  1.00  0.00    -0.342 N 
HETATM    4  O   UNL     1     -42.433  60.139 -51.870  1.00  0.00    -0.248 OA
HETATM    5  H   UNL     1     -43.526  57.354 -50.920  1.00  0.00     0.164 HD
HETATM    6  H   UNL     1     -45.141  58.516 -51.724  1.00  0.00     0.164 HD
ENDROOT
BRANCH   1   7
HETATM    7  C   UNL     1     -41.519  57.893 -50.532  1.00  0.00     0.166 C 
BRANCH   7   8
HETATM    8  C   UNL     1     -41.254  56.437 -50.614  1.00  0.00    -0.004 A 
HETATM    9  C   UNL     1     -41.373  55.484 -49.585  1.00  0.00     0.149 A 
HETATM   10  N   UNL     1     -41.074  54.249 -49.982  1.00  0.00    -0.180 NA
HETATM   11  N   UNL     1     -40.766  54.372 -51.301  1.00  0.00    -0.245 N 
HETATM   12  C   UNL     1     -40.862  55.686 -51.706  1.00  0.00     0.129 A 
BRANCH  11  13
HETATM   13  C   UNL     1     -40.403  53.235 -52.077  1.00  0.00     0.058 A 
HETATM   14  C   UNL     1     -39.909  52.089 -51.432  1.00  0.00     0.031 A 
HETATM   15  C   UNL     1     -39.550  50.962 -52.173  1.00  0.00     0.002 A 
HETATM   16  C   UNL     1     -39.677  50.969 -53.560  1.00  0.00     0.000 A 
HETATM   17  C   UNL     1     -40.165  52.102 -54.208  1.00  0.00     0.002 A 
HETATM   18  C   UNL     1     -40.530  53.234 -53.472  1.00  0.00     0.031 A 
ENDBRANCH  11  13
ENDBRANCH   7   8
ENDBRANCH   1   7
BRANCH   3  19
HETATM   19  C   UNL     1     -45.155  60.465 -52.527  1.00  0.00     0.144 C 
BRANCH  19  20
HETATM   20  C   UNL     1     -45.310  60.169 -54.024  1.00  0.00     0.142 C 
BRANCH  20  21
HETATM   21  N   UNL     1     -45.046  58.782 -54.368  1.00  0.00    -0.355 N 
HETATM   22  C   UNL     1     -43.883  58.386 -54.987  1.00  0.00     0.254 C 
HETATM   23  O   UNL     1     -43.055  59.189 -55.406  1.00  0.00    -0.268 OA
HETATM   24  H   UNL     1     -45.631  58.056 -53.963  1.00  0.00     0.162 HD
BRANCH  22  25
HETATM   25  C   UNL     1     -43.655  56.914 -55.145  1.00  0.00     0.065 A 
HETATM   26  C   UNL     1     -43.875  55.959 -54.140  1.00  0.00     0.081 A 
HETATM   27  C   UNL     1     -43.624  54.604 -54.380  1.00  0.00     0.037 A 
HETATM   28  C   UNL     1     -43.151  54.189 -55.626  1.00  0.00     0.003 A 
HETATM   29  C   UNL     1     -42.926  55.125 -56.632  1.00  0.00     0.001 A 
HETATM   30  C   UNL     1     -43.174  56.478 -56.392  1.00  0.00     0.020 A 
BRANCH  26  31
HETATM   31  O   UNL     1     -44.335  56.330 -52.902  1.00  0.00    -0.360 OA
HETATM   32  H   UNL     1     -43.856  55.819 -52.225  1.00  0.00     0.217 HD
ENDBRANCH  26  31
ENDBRANCH  22  25
ENDBRANCH  20  21
ENDBRANCH  19  20
ENDBRANCH   3  19
TORSDOF 8
ENDMDL
MODEL 6
REMARK VINA RESULT:      -7.2      4.043      6.628
REMARK  8 active torsions:
REMARK  status: ('A' for Active; 'I' for Inactive)
REMARK    1  A    between atoms: C_4  and  N_5 
REMARK    2  A    between atoms: C_8  and  C_9 
REMARK    3  A    between atoms: C_9  and  N_10 
REMARK       I    between atoms: N_10  and  C_11 
REMARK       I    between atoms: C_11  and  N_12 
REMARK    4  A    between atoms: N_12  and  C_13 
REMARK    5  A    between atoms: C_13  and  C_14 
REMARK    6  A    between atoms: C_14  and  N_15 
REMARK       I    between atoms: N_15  and  C_16 
REMARK    7  A    between atoms: C_16  and  C_17 
REMARK    8  A    between atoms: C_18  and  O_19 
ROOT
HETATM    1  N   UNL     1     -42.385  55.646 -56.731  1.00  0.00    -0.339 N 
HETATM    2  C   UNL     1     -43.376  56.262 -57.443  1.00  0.00     0.316 C 
HETATM    3  N   UNL     1     -43.845  55.480 -58.459  1.00  0.00    -0.342 N 
HETATM    4  O   UNL     1     -43.822  57.368 -57.167  1.00  0.00    -0.248 OA
HETATM    5  H   UNL     1     -41.864  54.915 -57.188  1.00  0.00     0.164 HD
HETATM    6  H   UNL     1     -43.290  54.701 -58.777  1.00  0.00     0.164 HD
ENDROOT
BRANCH   1   7
HETATM    7  C   UNL     1     -41.765  56.337 -55.627  1.00  0.00     0.166 C 
BRANCH   7   8
HETATM    8  C   UNL     1     -41.322  55.344 -54.619  1.00  0.00    -0.004 A 
HETATM    9  C   UNL     1     -41.182  55.535 -53.232  1.00  0.00     0.149 A 
HETATM   10  N   UNL     1     -40.775  54.438 -52.594  1.00  0.00    -0.180 NA
HETATM   11  N   UNL     1     -40.657  53.494 -53.566  1.00  0.00    -0.245 N 
HETATM   12  C   UNL     1     -40.977  54.018 -54.800  1.00  0.00     0.129 A 
BRANCH  11  13
HETATM   13  C   UNL     1     -40.248  52.167 -53.251  1.00  0.00     0.058 A 
HETATM   14  C   UNL     1     -40.241  51.190 -54.259  1.00  0.00     0.031 A 
HETATM   15  C   UNL     1     -39.841  49.883 -53.973  1.00  0.00     0.002 A 
HETATM   16  C   UNL     1     -39.447  49.541 -52.681  1.00  0.00     0.000 A 
HETATM   17  C   UNL     1     -39.452  50.505 -51.674  1.00  0.00     0.002 A 
HETATM   18  C   UNL     1     -39.849  51.817 -51.954  1.00  0.00     0.031 A 
ENDBRANCH  11  13
ENDBRANCH   7   8
ENDBRANCH   1   7
BRANCH   3  19
HETATM   19  C   UNL     1     -44.893  55.944 -59.352  1.00  0.00     0.144 C 
BRANCH  19  20
HETATM   20  C   UNL     1     -44.336  56.644 -60.598  1.00  0.00     0.142 C 
BRANCH  20  21
HETATM   21  N   UNL     1     -43.778  57.957 -60.321  1.00  0.00    -0.355 N 
HETATM   22  C   UNL     1     -42.428  58.209 -60.378  1.00  0.00     0.254 C 
HETATM   23  O   UNL     1     -41.599  57.318 -60.536  1.00  0.00    -0.268 OA
HETATM   24  H   UNL     1     -44.403  58.759 -60.287  1.00  0.00     0.162 HD
BRANCH  22  25
HETATM   25  C   UNL     1     -41.987  59.633 -60.232  1.00  0.00     0.065 A 
HETATM   26  C   UNL     1     -41.719  60.265 -59.007  1.00  0.00     0.081 A 
HETATM   27  C   UNL     1     -41.319  61.605 -58.970  1.00  0.00     0.037 A 
HETATM   28  C   UNL     1     -41.183  62.327 -60.157  1.00  0.00     0.003 A 
HETATM   29  C   UNL     1     -41.447  61.715 -61.379  1.00  0.00     0.001 A 
HETATM   30  C   UNL     1     -41.848  60.379 -61.415  1.00  0.00     0.020 A 
BRANCH  26  31
HETATM   31  O   UNL     1     -41.847  59.588 -57.821  1.00  0.00    -0.360 OA
HETATM   32  H   UNL     1     -42.588  58.961 -57.898  1.00  0.00     0.217 HD
ENDBRANCH  26  31
ENDBRANCH  22  25
ENDBRANCH  20  21
ENDBRANCH  19  20
ENDBRANCH   3  19
TORSDOF 8
ENDMDL
MODEL 7
REMARK VINA RESULT:      -7.1      2.232      4.856
REMARK  8 active torsions:
REMARK  status: ('A' for Active; 'I' for Inactive)
REMARK    1  A    between atoms: C_4  and  N_5 
REMARK    2  A    between atoms: C_8  and  C_9 
REMARK    3  A    between atoms: C_9  and  N_10 
REMARK       I    between atoms: N_10  and  C_11 
REMARK       I    between atoms: C_11  and  N_12 
REMARK    4  A    between atoms: N_12  and  C_13 
REMARK    5  A    between atoms: C_13  and  C_14 
REMARK    6  A    between atoms: C_14  and  N_15 
REMARK       I    between atoms: N_15  and  C_16 
REMARK    7  A    between atoms: C_16  and  C_17 
REMARK    8  A    between atoms: C_18  and  O_19 
ROOT
HETATM    1  N   UNL     1     -42.818  57.727 -52.865  1.00  0.00    -0.339 N 
HETATM    2  C   UNL     1     -42.724  59.084 -53.008  1.00  0.00     0.316 C 
HETATM    3  N   UNL     1     -43.653  59.578 -53.877  1.00  0.00    -0.342 N 
HETATM    4  O   UNL     1     -41.928  59.778 -52.389  1.00  0.00    -0.248 OA
HETATM    5  H   UNL     1     -43.249  57.206 -53.611  1.00  0.00     0.164 HD
HETATM    6  H   UNL     1     -44.109  58.950 -54.520  1.00  0.00     0.164 HD
ENDROOT
BRANCH   1   7
HETATM    7  C   UNL     1     -41.901  57.037 -51.992  1.00  0.00     0.166 C 
BRANCH   7   8
HETATM    8  C   UNL     1     -41.361  55.849 -52.696  1.00  0.00    -0.004 A 
HETATM    9  C   UNL     1     -40.861  55.785 -54.010  1.00  0.00     0.149 A 
HETATM   10  N   UNL     1     -40.436  54.568 -54.346  1.00  0.00    -0.180 NA
HETATM   11  N   UNL     1     -40.638  53.810 -53.235  1.00  0.00    -0.245 N 
HETATM   12  C   UNL     1     -41.202  54.560 -52.225  1.00  0.00     0.129 A 
BRANCH  11  13
HETATM   13  C   UNL     1     -40.283  52.431 -53.216  1.00  0.00     0.058 A 
HETATM   14  C   UNL     1     -39.818  51.856 -52.023  1.00  0.00     0.031 A 
HETATM   15  C   UNL     1     -39.467  50.505 -51.981  1.00  0.00     0.002 A 
HETATM   16  C   UNL     1     -39.574  49.720 -53.127  1.00  0.00     0.000 A 
HETATM   17  C   UNL     1     -40.034  50.284 -54.316  1.00  0.00     0.002 A 
HETATM   18  C   UNL     1     -40.389  51.636 -54.365  1.00  0.00     0.031 A 
ENDBRANCH  11  13
ENDBRANCH   7   8
ENDBRANCH   1   7
BRANCH   3  19
HETATM   19  C   UNL     1     -43.725  60.996 -54.188  1.00  0.00     0.144 C 
BRANCH  19  20
HETATM   20  C   UNL     1     -43.423  61.290 -55.663  1.00  0.00     0.142 C 
BRANCH  20  21
HETATM   21  N   UNL     1     -43.487  60.111 -56.511  1.00  0.00    -0.355 N 
HETATM   22  C   UNL     1     -42.387  59.624 -57.178  1.00  0.00     0.254 C 
HETATM   23  O   UNL     1     -41.317  60.224 -57.207  1.00  0.00    -0.268 OA
HETATM   24  H   UNL     1     -44.303  59.508 -56.452  1.00  0.00     0.162 HD
BRANCH  22  25
HETATM   25  C   UNL     1     -42.538  58.315 -57.890  1.00  0.00     0.065 A 
HETATM   26  C   UNL     1     -43.016  57.135 -57.300  1.00  0.00     0.081 A 
HETATM   27  C   UNL     1     -43.115  55.955 -58.046  1.00  0.00     0.037 A 
HETATM   28  C   UNL     1     -42.737  55.944 -59.389  1.00  0.00     0.003 A 
HETATM   29  C   UNL     1     -42.259  57.106 -59.989  1.00  0.00     0.001 A 
HETATM   30  C   UNL     1     -42.159  58.282 -59.244  1.00  0.00     0.020 A 
BRANCH  26  31
HETATM   31  O   UNL     1     -43.392  57.107 -55.980  1.00  0.00    -0.360 OA
HETATM   32  H   UNL     1     -43.286  58.000 -55.607  1.00  0.00     0.217 HD
ENDBRANCH  26  31
ENDBRANCH  22  25
ENDBRANCH  20  21
ENDBRANCH  19  20
ENDBRANCH   3  19
TORSDOF 8
ENDMDL
MODEL 8
REMARK VINA RESULT:      -7.1      1.931      3.087
REMARK  8 active torsions:
REMARK  status: ('A' for Active; 'I' for Inactive)
REMARK    1  A    between atoms: C_4  and  N_5 
REMARK    2  A    between atoms: C_8  and  C_9 
REMARK    3  A    between atoms: C_9  and  N_10 
REMARK       I    between atoms: N_10  and  C_11 
REMARK       I    between atoms: C_11  and  N_12 
REMARK    4  A    between atoms: N_12  and  C_13 
REMARK    5  A    between atoms: C_13  and  C_14 
REMARK    6  A    between atoms: C_14  and  N_15 
REMARK       I    between atoms: N_15  and  C_16 
REMARK    7  A    between atoms: C_16  and  C_17 
REMARK    8  A    between atoms: C_18  and  O_19 
ROOT
HETATM    1  N   UNL     1     -43.786  60.292 -54.664  1.00  0.00    -0.339 N 
HETATM    2  C   UNL     1     -43.998  60.259 -53.314  1.00  0.00     0.316 C 
HETATM    3  N   UNL     1     -43.192  61.132 -52.642  1.00  0.00    -0.342 N 
HETATM    4  O   UNL     1     -44.849  59.560 -52.778  1.00  0.00    -0.248 OA
HETATM    5  H   UNL     1     -42.894  60.626 -54.990  1.00  0.00     0.164 HD
HETATM    6  H   UNL     1     -42.370  61.494 -53.098  1.00  0.00     0.164 HD
ENDROOT
BRANCH   1   7
HETATM    7  C   UNL     1     -44.545  59.421 -55.527  1.00  0.00     0.166 C 
BRANCH   7   8
HETATM    8  C   UNL     1     -43.745  58.207 -55.817  1.00  0.00    -0.004 A 
HETATM    9  C   UNL     1     -43.231  57.797 -57.061  1.00  0.00     0.149 A 
HETATM   10  N   UNL     1     -42.538  56.661 -56.989  1.00  0.00    -0.180 NA
HETATM   11  N   UNL     1     -42.575  56.313 -55.675  1.00  0.00    -0.245 N 
HETATM   12  C   UNL     1     -43.303  57.229 -54.946  1.00  0.00     0.129 A 
BRANCH  11  13
HETATM   13  C   UNL     1     -41.919  55.139 -55.210  1.00  0.00     0.058 A 
HETATM   14  C   UNL     1     -42.673  53.982 -54.958  1.00  0.00     0.031 A 
HETATM   15  C   UNL     1     -42.049  52.817 -54.505  1.00  0.00     0.002 A 
HETATM   16  C   UNL     1     -40.672  52.799 -54.298  1.00  0.00     0.000 A 
HETATM   17  C   UNL     1     -39.916  53.944 -54.544  1.00  0.00     0.002 A 
HETATM   18  C   UNL     1     -40.533  55.113 -55.001  1.00  0.00     0.031 A 
ENDBRANCH  11  13
ENDBRANCH   7   8
ENDBRANCH   1   7
BRANCH   3  19
HETATM   19  C   UNL     1     -43.242  61.251 -51.194  1.00  0.00     0.144 C 
BRANCH  19  20
HETATM   20  C   UNL     1     -42.191  60.380 -50.497  1.00  0.00     0.142 C 
BRANCH  20  21
HETATM   21  N   UNL     1     -42.478  58.957 -50.572  1.00  0.00    -0.355 N 
HETATM   22  C   UNL     1     -41.859  58.129 -51.478  1.00  0.00     0.254 C 
HETATM   23  O   UNL     1     -41.126  58.556 -52.365  1.00  0.00    -0.268 OA
HETATM   24  H   UNL     1     -42.988  58.518 -49.809  1.00  0.00     0.162 HD
BRANCH  22  25
HETATM   25  C   UNL     1     -42.115  56.658 -51.353  1.00  0.00     0.065 A 
HETATM   26  C   UNL     1     -43.385  56.061 -51.409  1.00  0.00     0.081 A 
HETATM   27  C   UNL     1     -43.526  54.676 -51.274  1.00  0.00     0.037 A 
HETATM   28  C   UNL     1     -42.400  53.873 -51.082  1.00  0.00     0.003 A 
HETATM   29  C   UNL     1     -41.135  54.451 -51.021  1.00  0.00     0.001 A 
HETATM   30  C   UNL     1     -40.994  55.833 -51.154  1.00  0.00     0.020 A 
BRANCH  26  31
HETATM   31  O   UNL     1     -44.514  56.819 -51.593  1.00  0.00    -0.360 OA
HETATM   32  H   UNL     1     -44.278  57.758 -51.498  1.00  0.00     0.217 HD
ENDBRANCH  26  31
ENDBRANCH  22  25
ENDBRANCH  20  21
ENDBRANCH  19  20
ENDBRANCH   3  19
TORSDOF 8
ENDMDL
MODEL 9
REMARK VINA RESULT:      -7.0      2.611      6.057
REMARK  8 active torsions:
REMARK  status: ('A' for Active; 'I' for Inactive)
REMARK    1  A    between atoms: C_4  and  N_5 
REMARK    2  A    between atoms: C_8  and  C_9 
REMARK    3  A    between atoms: C_9  and  N_10 
REMARK       I    between atoms: N_10  and  C_11 
REMARK       I    between atoms: C_11  and  N_12 
REMARK    4  A    between atoms: N_12  and  C_13 
REMARK    5  A    between atoms: C_13  and  C_14 
REMARK    6  A    between atoms: C_14  and  N_15 
REMARK       I    between atoms: N_15  and  C_16 
REMARK    7  A    between atoms: C_16  and  C_17 
REMARK    8  A    between atoms: C_18  and  O_19 
ROOT
HETATM    1  N   UNL     1     -42.420  58.673 -53.699  1.00  0.00    -0.339 N 
HETATM    2  C   UNL     1     -41.412  58.263 -52.870  1.00  0.00     0.316 C 
HETATM    3  N   UNL     1     -41.870  57.917 -51.632  1.00  0.00    -0.342 N 
HETATM    4  O   UNL     1     -40.242  58.172 -53.219  1.00  0.00    -0.248 OA
HETATM    5  H   UNL     1     -43.263  59.022 -53.274  1.00  0.00     0.164 HD
HETATM    6  H   UNL     1     -42.780  58.233 -51.337  1.00  0.00     0.164 HD
ENDROOT
BRANCH   1   7
HETATM    7  C   UNL     1     -42.111  59.090 -55.044  1.00  0.00     0.166 C 
BRANCH   7   8
HETATM    8  C   UNL     1     -42.548  58.036 -55.991  1.00  0.00    -0.004 A 
HETATM    9  C   UNL     1     -42.205  56.671 -55.973  1.00  0.00     0.149 A 
HETATM   10  N   UNL     1     -42.775  55.978 -56.957  1.00  0.00    -0.180 NA
HETATM   11  N   UNL     1     -43.523  56.888 -57.636  1.00  0.00    -0.245 N 
HETATM   12  C   UNL     1     -43.399  58.141 -57.075  1.00  0.00     0.129 A 
BRANCH  11  13
HETATM   13  C   UNL     1     -44.298  56.501 -58.766  1.00  0.00     0.058 A 
HETATM   14  C   UNL     1     -45.430  57.255 -59.116  1.00  0.00     0.031 A 
HETATM   15  C   UNL     1     -46.203  56.896 -60.222  1.00  0.00     0.002 A 
HETATM   16  C   UNL     1     -45.855  55.782 -60.984  1.00  0.00     0.000 A 
HETATM   17  C   UNL     1     -44.734  55.028 -60.642  1.00  0.00     0.002 A 
HETATM   18  C   UNL     1     -43.954  55.383 -59.537  1.00  0.00     0.031 A 
ENDBRANCH  11  13
ENDBRANCH   7   8
ENDBRANCH   1   7
BRANCH   3  19
HETATM   19  C   UNL     1     -40.966  57.463 -50.588  1.00  0.00     0.144 C 
BRANCH  19  20
HETATM   20  C   UNL     1     -41.444  56.168 -49.920  1.00  0.00     0.142 C 
BRANCH  20  21
HETATM   21  N   UNL     1     -40.994  54.967 -50.602  1.00  0.00    -0.355 N 
HETATM   22  C   UNL     1     -41.612  54.486 -51.732  1.00  0.00     0.254 C 
HETATM   23  O   UNL     1     -42.659  54.962 -52.161  1.00  0.00    -0.268 OA
HETATM   24  H   UNL     1     -40.080  54.583 -50.370  1.00  0.00     0.162 HD
BRANCH  22  25
HETATM   25  C   UNL     1     -40.961  53.336 -52.436  1.00  0.00     0.065 A 
HETATM   26  C   UNL     1     -41.214  52.967 -53.767  1.00  0.00     0.081 A 
HETATM   27  C   UNL     1     -40.562  51.869 -54.337  1.00  0.00     0.037 A 
HETATM   28  C   UNL     1     -39.650  51.128 -53.584  1.00  0.00     0.003 A 
HETATM   29  C   UNL     1     -39.389  51.480 -52.262  1.00  0.00     0.001 A 
HETATM   30  C   UNL     1     -40.042  52.575 -51.693  1.00  0.00     0.020 A 
BRANCH  26  31
HETATM   31  O   UNL     1     -42.108  53.668 -54.536  1.00  0.00    -0.360 OA
HETATM   32  H   UNL     1     -41.613  54.274 -55.115  1.00  0.00     0.217 HD
ENDBRANCH  26  31
ENDBRANCH  22  25
ENDBRANCH  20  21
ENDBRANCH  19  20
ENDBRANCH   3  19
TORSDOF 8
ENDMDL
MODEL 10
REMARK VINA RESULT:      -6.9      2.863      5.819
REMARK  8 active torsions:
REMARK  status: ('A' for Active; 'I' for Inactive)
REMARK    1  A    between atoms: C_4  and  N_5 
REMARK    2  A    between atoms: C_8  and  C_9 
REMARK    3  A    between atoms: C_9  and  N_10 
REMARK       I    between atoms: N_10  and  C_11 
REMARK       I    between atoms: C_11  and  N_12 
REMARK    4  A    between atoms: N_12  and  C_13 
REMARK    5  A    between atoms: C_13  and  C_14 
REMARK    6  A    between atoms: C_14  and  N_15 
REMARK       I    between atoms: N_15  and  C_16 
REMARK    7  A    between atoms: C_16  and  C_17 
REMARK    8  A    between atoms: C_18  and  O_19 
ROOT
HETATM    1  N   UNL     1     -42.794  58.626 -53.018  1.00  0.00    -0.339 N 
HETATM    2  C   UNL     1     -42.043  59.262 -53.967  1.00  0.00     0.316 C 
HETATM    3  N   UNL     1     -42.724  59.429 -55.139  1.00  0.00    -0.342 N 
HETATM    4  O   UNL     1     -40.908  59.676 -53.769  1.00  0.00    -0.248 OA
HETATM    5  H   UNL     1     -43.557  58.049 -53.333  1.00  0.00     0.164 HD
HETATM    6  H   UNL     1     -43.544  58.870 -55.315  1.00  0.00     0.164 HD
ENDROOT
BRANCH   1   7
HETATM    7  C   UNL     1     -42.224  58.355 -51.722  1.00  0.00     0.166 C 
BRANCH   7   8
HETATM    8  C   UNL     1     -41.965  56.900 -51.599  1.00  0.00    -0.004 A 
HETATM    9  C   UNL     1     -42.425  56.030 -50.594  1.00  0.00     0.149 A 
HETATM   10  N   UNL     1     -42.029  54.771 -50.774  1.00  0.00    -0.180 NA
HETATM   11  N   UNL     1     -41.307  54.795 -51.926  1.00  0.00    -0.245 N 
HETATM   12  C   UNL     1     -41.249  56.072 -52.442  1.00  0.00     0.129 A 
BRANCH  11  13
HETATM   13  C   UNL     1     -40.725  53.606 -52.450  1.00  0.00     0.058 A 
HETATM   14  C   UNL     1     -40.882  53.304 -53.813  1.00  0.00     0.031 A 
HETATM   15  C   UNL     1     -40.317  52.145 -54.348  1.00  0.00     0.002 A 
HETATM   16  C   UNL     1     -39.596  51.278 -53.531  1.00  0.00     0.000 A 
HETATM   17  C   UNL     1     -39.437  51.569 -52.177  1.00  0.00     0.002 A 
HETATM   18  C   UNL     1     -39.998  52.729 -51.634  1.00  0.00     0.031 A 
ENDBRANCH  11  13
ENDBRANCH   7   8
ENDBRANCH   1   7
BRANCH   3  19
HETATM   19  C   UNL     1     -42.110  60.071 -56.289  1.00  0.00     0.144 C 
BRANCH  19  20
HETATM   20  C   UNL     1     -43.085  60.229 -57.463  1.00  0.00     0.142 C 
BRANCH  20  21
HETATM   21  N   UNL     1     -43.323  58.991 -58.185  1.00  0.00    -0.355 N 
HETATM   22  C   UNL     1     -44.405  58.183 -57.925  1.00  0.00     0.254 C 
HETATM   23  O   UNL     1     -45.164  58.385 -56.982  1.00  0.00    -0.268 OA
HETATM   24  H   UNL     1     -42.803  58.814 -59.041  1.00  0.00     0.162 HD
BRANCH  22  25
HETATM   25  C   UNL     1     -44.632  57.020 -58.841  1.00  0.00     0.065 A 
HETATM   26  C   UNL     1     -43.694  56.007 -59.094  1.00  0.00     0.081 A 
HETATM   27  C   UNL     1     -43.995  54.962 -59.974  1.00  0.00     0.037 A 
HETATM   28  C   UNL     1     -45.237  54.919 -60.610  1.00  0.00     0.003 A 
HETATM   29  C   UNL     1     -46.177  55.918 -60.371  1.00  0.00     0.001 A 
HETATM   30  C   UNL     1     -45.876  56.961 -59.495  1.00  0.00     0.020 A 
BRANCH  26  31
HETATM   31  O   UNL     1     -42.462  56.019 -58.490  1.00  0.00    -0.360 OA
HETATM   32  H   UNL     1     -41.787  56.216 -59.164  1.00  0.00     0.217 HD
ENDBRANCH  26  31
ENDBRANCH  22  25
ENDBRANCH  20  21
ENDBRANCH  19  20
ENDBRANCH   3  19
TORSDOF 8
ENDMDL
