MODEL 1
REMARK VINA RESULT:      -9.7      0.000      0.000
REMARK  6 active torsions:
REMARK  status: ('A' for Active; 'I' for Inactive)
REMARK    1  A    between atoms: C_4  and  C_5 
REMARK    2  A    between atoms: N_8  and  C_9 
REMARK    3  A    between atoms: C_12  and  N_13 
REMARK       I    between atoms: N_13  and  C_14 
REMARK       I    between atoms: C_14  and  N_15 
REMARK    4  A    between atoms: N_15  and  C_16 
REMARK    5  A    between atoms: C_19  and  O_20 
REMARK    6  A    between atoms: O_20  and  C_21 
ROOT
HETATM    1  C   UNL     1     -41.620  57.418 -52.973  1.00  0.00     0.161 C 
HETATM    2  C   UNL     1     -42.077  57.984 -51.638  1.00  0.00     0.179 C 
HETATM    3  C   UNL     1     -42.732  59.319 -51.964  1.00  0.00     0.177 C 
HETATM    4  C   UNL     1     -41.968  60.345 -51.135  1.00  0.00     0.141 C 
HETATM    5  C   UNL     1     -41.157  59.489 -50.161  1.00  0.00     0.196 C 
HETATM    6  O   UNL     1     -40.936  58.229 -50.798  1.00  0.00    -0.379 OA
HETATM    7  O   UNL     1     -42.561  59.529 -53.380  1.00  0.00    -0.379 OA
HETATM    8  C   UNL     1     -42.453  58.214 -53.961  1.00  0.00     0.198 C 
ENDROOT
BRANCH   4   9
HETATM    9  N   UNL     1     -42.768  61.365 -50.461  1.00  0.00    -0.334 N 
HETATM   10  C   UNL     1     -43.372  62.376 -51.149  1.00  0.00     0.321 C 
HETATM   11  N   UNL     1     -44.364  63.058 -50.515  1.00  0.00    -0.309 N 
HETATM   12  O   UNL     1     -43.138  62.610 -52.332  1.00  0.00    -0.247 OA
HETATM   13  H   UNL     1     -44.933  63.572 -51.178  1.00  0.00     0.170 HD
HETATM   14  H   UNL     1     -43.293  61.036 -49.664  1.00  0.00     0.164 HD
BRANCH  11  15
HETATM   15  C   UNL     1     -44.774  63.088 -49.173  1.00  0.00     0.036 A 
HETATM   16  C   UNL     1     -45.588  62.117 -48.588  1.00  0.00     0.032 A 
HETATM   17  C   UNL     1     -45.958  62.226 -47.243  1.00  0.00     0.039 A 
HETATM   18  C   UNL     1     -45.524  63.308 -46.475  1.00  0.00     0.076 A 
HETATM   19  C   UNL     1     -44.677  64.259 -47.046  1.00  0.00     0.039 A 
HETATM   20  C   UNL     1     -44.292  64.138 -48.385  1.00  0.00     0.032 A 
BRANCH  18  21
HETATM   21  O   UNL     1     -45.928  63.310 -45.156  1.00  0.00    -0.311 OA
BRANCH  21  22
HETATM   22  C   UNL     1     -44.947  63.403 -44.201  1.00  0.00     0.076 A 
HETATM   23  C   UNL     1     -44.173  62.286 -43.889  1.00  0.00     0.037 A 
HETATM   24  C   UNL     1     -43.151  62.398 -42.946  1.00  0.00     0.003 A 
HETATM   25  C   UNL     1     -42.905  63.626 -42.326  1.00  0.00     0.000 A 
HETATM   26  C   UNL     1     -43.670  64.745 -42.659  1.00  0.00     0.003 A 
HETATM   27  C   UNL     1     -44.684  64.640 -43.609  1.00  0.00     0.037 A 
ENDBRANCH  21  22
ENDBRANCH  18  21
ENDBRANCH  11  15
ENDBRANCH   4   9
BRANCH   1  28
HETATM   28  N   UNL     1     -41.742  55.983 -53.040  1.00  0.00    -0.273 N 
HETATM   29  N   UNL     1     -42.937  55.376 -53.114  1.00  0.00     0.005 NA
HETATM   30  N   UNL     1     -42.717  54.068 -53.156  1.00  0.00    -0.158 NA
HETATM   31  C   UNL     1     -41.360  53.855 -53.129  1.00  0.00     0.101 A 
HETATM   32  C   UNL     1     -40.723  55.075 -53.091  1.00  0.00     0.142 A 
BRANCH  31  33
HETATM   33  C   UNL     1     -40.733  52.546 -53.145  1.00  0.00    -0.005 A 
HETATM   34  C   UNL     1     -40.047  52.088 -52.012  1.00  0.00     0.014 A 
HETATM   35  C   UNL     1     -39.429  50.834 -52.009  1.00  0.00     0.001 A 
HETATM   36  C   UNL     1     -39.486  50.025 -53.142  1.00  0.00     0.000 A 
HETATM   37  C   UNL     1     -40.161  50.467 -54.277  1.00  0.00     0.001 A 
HETATM   38  C   UNL     1     -40.782  51.720 -54.279  1.00  0.00     0.014 A 
ENDBRANCH  31  33
ENDBRANCH   1  28
TORSDOF 6
ENDMDL
MODEL 2
REMARK VINA RESULT:      -9.4      5.411     10.815
REMARK  6 active torsions:
REMARK  status: ('A' for Active; 'I' for Inactive)
REMARK    1  A    between atoms: C_4  and  C_5 
REMARK    2  A    between atoms: N_8  and  C_9 
REMARK    3  A    between atoms: C_12  and  N_13 
REMARK       I    between atoms: N_13  and  C_14 
REMARK       I    between atoms: C_14  and  N_15 
REMARK    4  A    between atoms: N_15  and  C_16 
REMARK    5  A    between atoms: C_19  and  O_20 
REMARK    6  A    between atoms: O_20  and  C_21 
ROOT
HETATM    1  C   UNL     1     -43.382  59.924 -56.961  1.00  0.00     0.161 C 
HETATM    2  C   UNL     1     -42.482  59.708 -55.754  1.00  0.00     0.179 C 
HETATM    3  C   UNL     1     -43.039  58.481 -55.045  1.00  0.00     0.177 C 
HETATM    4  C   UNL     1     -43.341  58.950 -53.626  1.00  0.00     0.141 C 
HETATM    5  C   UNL     1     -42.639  60.306 -53.538  1.00  0.00     0.196 C 
HETATM    6  O   UNL     1     -42.582  60.833 -54.866  1.00  0.00    -0.379 OA
HETATM    7  O   UNL     1     -44.234  58.099 -55.757  1.00  0.00    -0.379 OA
HETATM    8  C   UNL     1     -44.054  58.571 -57.107  1.00  0.00     0.198 C 
ENDROOT
BRANCH   4   9
HETATM    9  N   UNL     1     -42.961  58.044 -52.546  1.00  0.00    -0.334 N 
HETATM   10  C   UNL     1     -43.633  58.017 -51.359  1.00  0.00     0.321 C 
HETATM   11  N   UNL     1     -43.450  56.929 -50.562  1.00  0.00    -0.309 N 
HETATM   12  O   UNL     1     -44.467  58.862 -51.046  1.00  0.00    -0.247 OA
HETATM   13  H   UNL     1     -44.186  56.858 -49.869  1.00  0.00     0.170 HD
HETATM   14  H   UNL     1     -42.616  57.144 -52.846  1.00  0.00     0.164 HD
BRANCH  11  15
HETATM   15  C   UNL     1     -42.516  55.883 -50.600  1.00  0.00     0.036 A 
HETATM   16  C   UNL     1     -41.231  55.970 -50.063  1.00  0.00     0.032 A 
HETATM   17  C   UNL     1     -40.356  54.882 -50.151  1.00  0.00     0.039 A 
HETATM   18  C   UNL     1     -40.755  53.702 -50.781  1.00  0.00     0.076 A 
HETATM   19  C   UNL     1     -42.053  53.598 -51.283  1.00  0.00     0.039 A 
HETATM   20  C   UNL     1     -42.933  54.679 -51.177  1.00  0.00     0.032 A 
BRANCH  18  21
HETATM   21  O   UNL     1     -39.826  52.683 -50.796  1.00  0.00    -0.311 OA
BRANCH  21  22
HETATM   22  C   UNL     1     -39.825  51.851 -51.887  1.00  0.00     0.076 A 
HETATM   23  C   UNL     1     -39.571  50.490 -51.722  1.00  0.00     0.037 A 
HETATM   24  C   UNL     1     -39.611  49.643 -52.830  1.00  0.00     0.003 A 
HETATM   25  C   UNL     1     -39.911  50.160 -54.093  1.00  0.00     0.000 A 
HETATM   26  C   UNL     1     -40.184  51.520 -54.248  1.00  0.00     0.003 A 
HETATM   27  C   UNL     1     -40.156  52.367 -53.141  1.00  0.00     0.037 A 
ENDBRANCH  21  22
ENDBRANCH  18  21
ENDBRANCH  11  15
ENDBRANCH   4   9
BRANCH   1  28
HETATM   28  N   UNL     1     -42.663  60.411 -58.111  1.00  0.00    -0.273 N 
HETATM   29  N   UNL     1     -42.840  59.883 -59.333  1.00  0.00     0.005 NA
HETATM   30  N   UNL     1     -42.041  60.536 -60.168  1.00  0.00    -0.158 NA
HETATM   31  C   UNL     1     -41.368  61.501 -59.459  1.00  0.00     0.101 A 
HETATM   32  C   UNL     1     -41.784  61.455 -58.148  1.00  0.00     0.142 A 
BRANCH  31  33
HETATM   33  C   UNL     1     -40.389  62.408 -60.031  1.00  0.00    -0.005 A 
HETATM   34  C   UNL     1     -40.260  62.505 -61.423  1.00  0.00     0.014 A 
HETATM   35  C   UNL     1     -39.318  63.365 -61.995  1.00  0.00     0.001 A 
HETATM   36  C   UNL     1     -38.490  64.135 -61.180  1.00  0.00     0.000 A 
HETATM   37  C   UNL     1     -38.603  64.046 -59.795  1.00  0.00     0.001 A 
HETATM   38  C   UNL     1     -39.548  63.189 -59.223  1.00  0.00     0.014 A 
ENDBRANCH  31  33
ENDBRANCH   1  28
TORSDOF 6
ENDMDL
MODEL 3
REMARK VINA RESULT:      -9.0      1.692      2.336
REMARK  6 active torsions:
REMARK  status: ('A' for Active; 'I' for Inactive)
REMARK    1  A    between atoms: C_4  and  C_5 
REMARK    2  A    between atoms: N_8  and  C_9 
REMARK    3  A    between atoms: C_12  and  N_13 
REMARK       I    between atoms: N_13  and  C_14 
REMARK       I    between atoms: C_14  and  N_15 
REMARK    4  A    between atoms: N_15  and  C_16 
REMARK    5  A    between atoms: C_19  and  O_20 
REMARK    6  A    between atoms: O_20  and  C_21 
ROOT
HETATM    1  C   UNL     1     -42.572  56.410 -54.494  1.00  0.00     0.161 C 
HETATM    2  C   UNL     1     -42.157  57.537 -53.562  1.00  0.00     0.179 C 
HETATM    3  C   UNL     1     -43.455  58.104 -53.004  1.00  0.00     0.177 C 
HETATM    4  C   UNL     1     -43.428  59.584 -53.370  1.00  0.00     0.141 C 
HETATM    5  C   UNL     1     -41.985  59.817 -53.818  1.00  0.00     0.196 C 
HETATM    6  O   UNL     1     -41.494  58.569 -54.313  1.00  0.00    -0.379 OA
HETATM    7  O   UNL     1     -44.530  57.402 -53.661  1.00  0.00    -0.379 OA
HETATM    8  C   UNL     1     -43.989  56.118 -54.033  1.00  0.00     0.198 C 
ENDROOT
BRANCH   4   9
HETATM    9  N   UNL     1     -43.857  60.519 -52.334  1.00  0.00    -0.334 N 
HETATM   10  C   UNL     1     -44.214  61.803 -52.626  1.00  0.00     0.321 C 
HETATM   11  N   UNL     1     -44.924  62.484 -51.685  1.00  0.00    -0.309 N 
HETATM   12  O   UNL     1     -44.024  62.313 -53.727  1.00  0.00    -0.247 OA
HETATM   13  H   UNL     1     -45.383  63.292 -52.090  1.00  0.00     0.170 HD
HETATM   14  H   UNL     1     -44.384  60.106 -51.579  1.00  0.00     0.164 HD
BRANCH  11  15
HETATM   15  C   UNL     1     -45.196  62.213 -50.335  1.00  0.00     0.036 A 
HETATM   16  C   UNL     1     -46.421  62.481 -49.722  1.00  0.00     0.032 A 
HETATM   17  C   UNL     1     -46.608  62.187 -48.367  1.00  0.00     0.039 A 
HETATM   18  C   UNL     1     -45.573  61.630 -47.614  1.00  0.00     0.076 A 
HETATM   19  C   UNL     1     -44.361  61.323 -48.234  1.00  0.00     0.039 A 
HETATM   20  C   UNL     1     -44.183  61.599 -49.593  1.00  0.00     0.032 A 
BRANCH  18  21
HETATM   21  O   UNL     1     -45.867  61.360 -46.294  1.00  0.00    -0.311 OA
BRANCH  21  22
HETATM   22  C   UNL     1     -45.199  62.087 -45.341  1.00  0.00     0.076 A 
HETATM   23  C   UNL     1     -45.430  63.457 -45.226  1.00  0.00     0.037 A 
HETATM   24  C   UNL     1     -44.779  64.183 -44.228  1.00  0.00     0.003 A 
HETATM   25  C   UNL     1     -43.907  63.536 -43.350  1.00  0.00     0.000 A 
HETATM   26  C   UNL     1     -43.696  62.160 -43.458  1.00  0.00     0.003 A 
HETATM   27  C   UNL     1     -44.355  61.429 -44.446  1.00  0.00     0.037 A 
ENDBRANCH  21  22
ENDBRANCH  18  21
ENDBRANCH  11  15
ENDBRANCH   4   9
BRANCH   1  28
HETATM   28  N   UNL     1     -41.650  55.302 -54.474  1.00  0.00    -0.273 N 
HETATM   29  N   UNL     1     -40.577  55.259 -55.281  1.00  0.00     0.005 NA
HETATM   30  N   UNL     1     -39.938  54.124 -55.031  1.00  0.00    -0.158 NA
HETATM   31  C   UNL     1     -40.611  53.456 -54.036  1.00  0.00     0.101 A 
HETATM   32  C   UNL     1     -41.689  54.217 -53.647  1.00  0.00     0.142 A 
BRANCH  31  33
HETATM   33  C   UNL     1     -40.219  52.163 -53.504  1.00  0.00    -0.005 A 
HETATM   34  C   UNL     1     -40.219  51.037 -54.338  1.00  0.00     0.014 A 
HETATM   35  C   UNL     1     -39.854  49.782 -53.843  1.00  0.00     0.001 A 
HETATM   36  C   UNL     1     -39.488  49.637 -52.507  1.00  0.00     0.000 A 
HETATM   37  C   UNL     1     -39.487  50.746 -51.664  1.00  0.00     0.001 A 
HETATM   38  C   UNL     1     -39.849  52.002 -52.159  1.00  0.00     0.014 A 
ENDBRANCH  31  33
ENDBRANCH   1  28
TORSDOF 6
ENDMDL
MODEL 4
REMARK VINA RESULT:      -8.9      4.543     12.180
REMARK  6 active torsions:
REMARK  status: ('A' for Active; 'I' for Inactive)
REMARK    1  A    between atoms: C_4  and  C_5 
REMARK    2  A    between atoms: N_8  and  C_9 
REMARK    3  A    between atoms: C_12  and  N_13 
REMARK       I    between atoms: N_13  and  C_14 
REMARK       I    between atoms: C_14  and  N_15 
REMARK    4  A    between atoms: N_15  and  C_16 
REMARK    5  A    between atoms: C_19  and  O_20 
REMARK    6  A    between atoms: O_20  and  C_21 
ROOT
HETATM    1  C   UNL     1     -46.508  62.318 -51.638  1.00  0.00     0.161 C 
HETATM    2  C   UNL     1     -46.467  60.885 -52.146  1.00  0.00     0.179 C 
HETATM    3  C   UNL     1     -45.456  60.168 -51.262  1.00  0.00     0.177 C 
HETATM    4  C   UNL     1     -44.418  59.605 -52.227  1.00  0.00     0.141 C 
HETATM    5  C   UNL     1     -45.080  59.761 -53.598  1.00  0.00     0.196 C 
HETATM    6  O   UNL     1     -45.985  60.863 -53.500  1.00  0.00    -0.379 OA
HETATM    7  O   UNL     1     -44.895  61.163 -50.382  1.00  0.00    -0.379 OA
HETATM    8  C   UNL     1     -45.906  62.183 -50.251  1.00  0.00     0.198 C 
ENDROOT
BRANCH   4   9
HETATM    9  N   UNL     1     -43.962  58.241 -51.971  1.00  0.00    -0.334 N 
HETATM   10  C   UNL     1     -44.664  57.385 -51.175  1.00  0.00     0.321 C 
HETATM   11  N   UNL     1     -44.372  56.060 -51.271  1.00  0.00    -0.309 N 
HETATM   12  O   UNL     1     -45.609  57.747 -50.478  1.00  0.00    -0.247 OA
HETATM   13  H   UNL     1     -45.116  55.494 -50.879  1.00  0.00     0.170 HD
HETATM   14  H   UNL     1     -43.496  57.795 -52.748  1.00  0.00     0.164 HD
BRANCH  11  15
HETATM   15  C   UNL     1     -43.311  55.374 -51.882  1.00  0.00     0.036 A 
HETATM   16  C   UNL     1     -43.411  54.735 -53.119  1.00  0.00     0.032 A 
HETATM   17  C   UNL     1     -42.306  54.065 -53.656  1.00  0.00     0.039 A 
HETATM   18  C   UNL     1     -41.097  54.023 -52.959  1.00  0.00     0.076 A 
HETATM   19  C   UNL     1     -40.983  54.695 -51.741  1.00  0.00     0.039 A 
HETATM   20  C   UNL     1     -42.082  55.381 -51.216  1.00  0.00     0.032 A 
BRANCH  18  21
HETATM   21  O   UNL     1     -40.065  53.355 -53.585  1.00  0.00    -0.311 OA
BRANCH  21  22
HETATM   22  C   UNL     1     -39.878  52.037 -53.251  1.00  0.00     0.076 A 
HETATM   23  C   UNL     1     -39.682  51.679 -51.918  1.00  0.00     0.037 A 
HETATM   24  C   UNL     1     -39.534  50.333 -51.582  1.00  0.00     0.003 A 
HETATM   25  C   UNL     1     -39.588  49.355 -52.577  1.00  0.00     0.000 A 
HETATM   26  C   UNL     1     -39.805  49.718 -53.907  1.00  0.00     0.003 A 
HETATM   27  C   UNL     1     -39.966  51.061 -54.246  1.00  0.00     0.037 A 
ENDBRANCH  21  22
ENDBRANCH  18  21
ENDBRANCH  11  15
ENDBRANCH   4   9
BRANCH   1  28
HETATM   28  N   UNL     1     -47.825  62.897 -51.713  1.00  0.00    -0.273 N 
HETATM   29  N   UNL     1     -48.297  63.710 -50.753  1.00  0.00     0.005 NA
HETATM   30  N   UNL     1     -49.525  64.069 -51.105  1.00  0.00    -0.158 NA
HETATM   31  C   UNL     1     -49.818  63.488 -52.315  1.00  0.00     0.101 A 
HETATM   32  C   UNL     1     -48.724  62.763 -52.732  1.00  0.00     0.142 A 
BRANCH  31  33
HETATM   33  C   UNL     1     -51.081  63.638 -53.014  1.00  0.00    -0.005 A 
HETATM   34  C   UNL     1     -52.140  62.764 -52.735  1.00  0.00     0.014 A 
HETATM   35  C   UNL     1     -53.362  62.885 -53.403  1.00  0.00     0.001 A 
HETATM   36  C   UNL     1     -53.537  63.880 -54.363  1.00  0.00     0.000 A 
HETATM   37  C   UNL     1     -52.493  64.753 -54.655  1.00  0.00     0.001 A 
HETATM   38  C   UNL     1     -51.272  64.635 -53.985  1.00  0.00     0.014 A 
ENDBRANCH  31  33
ENDBRANCH   1  28
TORSDOF 6
ENDMDL
MODEL 5
REMARK VINA RESULT:      -8.8      4.905     11.604
REMARK  6 active torsions:
REMARK  status: ('A' for Active; 'I' for Inactive)
REMARK    1  A    between atoms: C_4  and  C_5 
REMARK    2  A    between atoms: N_8  and  C_9 
REMARK    3  A    between atoms: C_12  and  N_13 
REMARK       I    between atoms: N_13  and  C_14 
REMARK       I    between atoms: C_14  and  N_15 
REMARK    4  A    between atoms: N_15  and  C_16 
REMARK    5  A    between atoms: C_19  and  O_20 
REMARK    6  A    between atoms: O_20  and  C_21 
ROOT
HETATM    1  C   UNL     1     -47.333  62.973 -51.827  1.00  0.00     0.161 C 
HETATM    2  C   UNL     1     -46.694  61.762 -52.489  1.00  0.00     0.179 C 
HETATM    3  C   UNL     1     -45.674  61.240 -51.487  1.00  0.00     0.177 C 
HETATM    4  C   UNL     1     -44.347  61.245 -52.237  1.00  0.00     0.141 C 
HETATM    5  C   UNL     1     -44.758  61.458 -53.694  1.00  0.00     0.196 C 
HETATM    6  O   UNL     1     -45.997  62.171 -53.678  1.00  0.00    -0.379 OA
HETATM    7  O   UNL     1     -45.675  62.161 -50.377  1.00  0.00    -0.379 OA
HETATM    8  C   UNL     1     -46.987  62.758 -50.365  1.00  0.00     0.198 C 
ENDROOT
BRANCH   4   9
HETATM    9  N   UNL     1     -43.492  60.075 -52.055  1.00  0.00    -0.334 N 
HETATM   10  C   UNL     1     -42.604  59.986 -51.024  1.00  0.00     0.321 C 
HETATM   11  N   UNL     1     -42.115  58.752 -50.724  1.00  0.00    -0.309 N 
HETATM   12  O   UNL     1     -42.328  60.938 -50.299  1.00  0.00    -0.247 OA
HETATM   13  H   UNL     1     -41.711  58.736 -49.795  1.00  0.00     0.170 HD
HETATM   14  H   UNL     1     -43.913  59.195 -52.315  1.00  0.00     0.164 HD
BRANCH  11  15
HETATM   15  C   UNL     1     -42.165  57.529 -51.412  1.00  0.00     0.036 A 
HETATM   16  C   UNL     1     -43.098  56.527 -51.146  1.00  0.00     0.032 A 
HETATM   17  C   UNL     1     -43.074  55.332 -51.874  1.00  0.00     0.039 A 
HETATM   18  C   UNL     1     -42.114  55.128 -52.868  1.00  0.00     0.076 A 
HETATM   19  C   UNL     1     -41.206  56.145 -53.163  1.00  0.00     0.039 A 
HETATM   20  C   UNL     1     -41.244  57.346 -52.448  1.00  0.00     0.032 A 
BRANCH  18  21
HETATM   21  O   UNL     1     -42.190  53.926 -53.539  1.00  0.00    -0.311 OA
BRANCH  21  22
HETATM   22  C   UNL     1     -41.198  53.009 -53.298  1.00  0.00     0.076 A 
HETATM   23  C   UNL     1     -40.629  52.919 -52.028  1.00  0.00     0.037 A 
HETATM   24  C   UNL     1     -39.650  51.958 -51.779  1.00  0.00     0.003 A 
HETATM   25  C   UNL     1     -39.250  51.089 -52.797  1.00  0.00     0.000 A 
HETATM   26  C   UNL     1     -39.838  51.171 -54.060  1.00  0.00     0.003 A 
HETATM   27  C   UNL     1     -40.825  52.123 -54.310  1.00  0.00     0.037 A 
ENDBRANCH  21  22
ENDBRANCH  18  21
ENDBRANCH  11  15
ENDBRANCH   4   9
BRANCH   1  28
HETATM   28  N   UNL     1     -48.733  63.106 -52.142  1.00  0.00    -0.273 N 
HETATM   29  N   UNL     1     -49.530  63.963 -51.482  1.00  0.00     0.005 NA
HETATM   30  N   UNL     1     -50.748  63.848 -51.996  1.00  0.00    -0.158 NA
HETATM   31  C   UNL     1     -50.708  62.919 -53.007  1.00  0.00     0.101 A 
HETATM   32  C   UNL     1     -49.416  62.462 -53.134  1.00  0.00     0.142 A 
BRANCH  31  33
HETATM   33  C   UNL     1     -51.857  62.513 -53.796  1.00  0.00    -0.005 A 
HETATM   34  C   UNL     1     -51.779  61.370 -54.604  1.00  0.00     0.014 A 
HETATM   35  C   UNL     1     -52.870  60.967 -55.378  1.00  0.00     0.001 A 
HETATM   36  C   UNL     1     -54.052  61.704 -55.357  1.00  0.00     0.000 A 
HETATM   37  C   UNL     1     -54.144  62.844 -54.562  1.00  0.00     0.001 A 
HETATM   38  C   UNL     1     -53.054  63.246 -53.785  1.00  0.00     0.014 A 
ENDBRANCH  31  33
ENDBRANCH   1  28
TORSDOF 6
ENDMDL
MODEL 6
REMARK VINA RESULT:      -8.8      5.417      9.402
REMARK  6 active torsions:
REMARK  status: ('A' for Active; 'I' for Inactive)
REMARK    1  A    between atoms: C_4  and  C_5 
REMARK    2  A    between atoms: N_8  and  C_9 
REMARK    3  A    between atoms: C_12  and  N_13 
REMARK       I    between atoms: N_13  and  C_14 
REMARK       I    between atoms: C_14  and  N_15 
REMARK    4  A    between atoms: N_15  and  C_16 
REMARK    5  A    between atoms: C_19  and  O_20 
REMARK    6  A    between atoms: O_20  and  C_21 
ROOT
HETATM    1  C   UNL     1     -41.653  56.826 -50.514  1.00  0.00     0.161 C 
HETATM    2  C   UNL     1     -42.429  56.953 -51.816  1.00  0.00     0.179 C 
HETATM    3  C   UNL     1     -42.041  58.308 -52.391  1.00  0.00     0.177 C 
HETATM    4  C   UNL     1     -43.360  59.055 -52.561  1.00  0.00     0.141 C 
HETATM    5  C   UNL     1     -44.417  57.965 -52.378  1.00  0.00     0.196 C 
HETATM    6  O   UNL     1     -43.840  56.960 -51.541  1.00  0.00    -0.379 OA
HETATM    7  O   UNL     1     -41.181  58.939 -51.421  1.00  0.00    -0.379 OA
HETATM    8  C   UNL     1     -40.559  57.862 -50.691  1.00  0.00     0.198 C 
ENDROOT
BRANCH   4   9
HETATM    9  N   UNL     1     -43.528  59.805 -53.803  1.00  0.00    -0.334 N 
HETATM   10  C   UNL     1     -43.157  61.113 -53.909  1.00  0.00     0.321 C 
HETATM   11  N   UNL     1     -43.017  61.623 -55.164  1.00  0.00    -0.309 N 
HETATM   12  O   UNL     1     -42.838  61.796 -52.940  1.00  0.00    -0.247 OA
HETATM   13  H   UNL     1     -42.473  62.478 -55.150  1.00  0.00     0.170 HD
HETATM   14  H   UNL     1     -43.394  59.267 -54.646  1.00  0.00     0.164 HD
BRANCH  11  15
HETATM   15  C   UNL     1     -43.395  61.134 -56.424  1.00  0.00     0.036 A 
HETATM   16  C   UNL     1     -44.678  61.270 -56.956  1.00  0.00     0.032 A 
HETATM   17  C   UNL     1     -44.975  60.746 -58.219  1.00  0.00     0.039 A 
HETATM   18  C   UNL     1     -43.996  60.077 -58.955  1.00  0.00     0.076 A 
HETATM   19  C   UNL     1     -42.702  59.975 -58.443  1.00  0.00     0.039 A 
HETATM   20  C   UNL     1     -42.401  60.517 -57.190  1.00  0.00     0.032 A 
BRANCH  18  21
HETATM   21  O   UNL     1     -44.386  59.617 -60.196  1.00  0.00    -0.311 OA
BRANCH  21  22
HETATM   22  C   UNL     1     -44.878  58.337 -60.264  1.00  0.00     0.076 A 
HETATM   23  C   UNL     1     -46.254  58.126 -60.337  1.00  0.00     0.037 A 
HETATM   24  C   UNL     1     -46.745  56.825 -60.447  1.00  0.00     0.003 A 
HETATM   25  C   UNL     1     -45.859  55.746 -60.489  1.00  0.00     0.000 A 
HETATM   26  C   UNL     1     -44.481  55.966 -60.435  1.00  0.00     0.003 A 
HETATM   27  C   UNL     1     -43.987  57.266 -60.337  1.00  0.00     0.037 A 
ENDBRANCH  21  22
ENDBRANCH  18  21
ENDBRANCH  11  15
ENDBRANCH   4   9
BRANCH   1  28
HETATM   28  N   UNL     1     -41.223  55.476 -50.252  1.00  0.00    -0.273 N 
HETATM   29  N   UNL     1     -41.004  55.032 -49.003  1.00  0.00     0.005 NA
HETATM   30  N   UNL     1     -40.616  53.765 -49.094  1.00  0.00    -0.158 NA
HETATM   31  C   UNL     1     -40.612  53.407 -50.420  1.00  0.00     0.101 A 
HETATM   32  C   UNL     1     -41.032  54.482 -51.169  1.00  0.00     0.142 A 
BRANCH  31  33
HETATM   33  C   UNL     1     -40.227  52.098 -50.916  1.00  0.00    -0.005 A 
HETATM   34  C   UNL     1     -39.850  51.943 -52.257  1.00  0.00     0.014 A 
HETATM   35  C   UNL     1     -39.484  50.690 -52.756  1.00  0.00     0.001 A 
HETATM   36  C   UNL     1     -39.496  49.575 -51.921  1.00  0.00     0.000 A 
HETATM   37  C   UNL     1     -39.872  49.711 -50.587  1.00  0.00     0.001 A 
HETATM   38  C   UNL     1     -40.234  50.965 -50.086  1.00  0.00     0.014 A 
ENDBRANCH  31  33
ENDBRANCH   1  28
TORSDOF 6
ENDMDL
MODEL 7
REMARK VINA RESULT:      -8.7      6.280      8.529
REMARK  6 active torsions:
REMARK  status: ('A' for Active; 'I' for Inactive)
REMARK    1  A    between atoms: C_4  and  C_5 
REMARK    2  A    between atoms: N_8  and  C_9 
REMARK    3  A    between atoms: C_12  and  N_13 
REMARK       I    between atoms: N_13  and  C_14 
REMARK       I    between atoms: C_14  and  N_15 
REMARK    4  A    between atoms: N_15  and  C_16 
REMARK    5  A    between atoms: C_19  and  O_20 
REMARK    6  A    between atoms: O_20  and  C_21 
ROOT
HETATM    1  C   UNL     1     -43.321  57.888 -53.273  1.00  0.00     0.161 C 
HETATM    2  C   UNL     1     -44.787  58.112 -52.935  1.00  0.00     0.179 C 
HETATM    3  C   UNL     1     -45.171  59.412 -53.628  1.00  0.00     0.177 C 
HETATM    4  C   UNL     1     -45.690  60.313 -52.513  1.00  0.00     0.141 C 
HETATM    5  C   UNL     1     -45.867  59.359 -51.332  1.00  0.00     0.196 C 
HETATM    6  O   UNL     1     -44.936  58.289 -51.517  1.00  0.00    -0.379 OA
HETATM    7  O   UNL     1     -43.968  59.931 -54.231  1.00  0.00    -0.379 OA
HETATM    8  C   UNL     1     -43.130  58.785 -54.483  1.00  0.00     0.198 C 
ENDROOT
BRANCH   4   9
HETATM    9  N   UNL     1     -46.897  61.081 -52.806  1.00  0.00    -0.334 N 
HETATM   10  C   UNL     1     -46.858  62.426 -53.031  1.00  0.00     0.321 C 
HETATM   11  N   UNL     1     -47.939  62.992 -53.632  1.00  0.00    -0.309 N 
HETATM   12  O   UNL     1     -45.857  63.107 -52.822  1.00  0.00    -0.247 OA
HETATM   13  H   UNL     1     -47.709  63.902 -54.014  1.00  0.00     0.170 HD
HETATM   14  H   UNL     1     -47.592  60.592 -53.350  1.00  0.00     0.164 HD
BRANCH  11  15
HETATM   15  C   UNL     1     -49.231  62.507 -53.890  1.00  0.00     0.036 A 
HETATM   16  C   UNL     1     -50.148  62.174 -52.892  1.00  0.00     0.032 A 
HETATM   17  C   UNL     1     -51.415  61.688 -53.235  1.00  0.00     0.039 A 
HETATM   18  C   UNL     1     -51.773  61.526 -54.574  1.00  0.00     0.076 A 
HETATM   19  C   UNL     1     -50.872  61.896 -55.574  1.00  0.00     0.039 A 
HETATM   20  C   UNL     1     -49.614  62.400 -55.230  1.00  0.00     0.032 A 
BRANCH  18  21
HETATM   21  O   UNL     1     -53.050  61.061 -54.804  1.00  0.00    -0.311 OA
BRANCH  21  22
HETATM   22  C   UNL     1     -53.362  60.692 -56.089  1.00  0.00     0.076 A 
HETATM   23  C   UNL     1     -53.018  59.422 -56.549  1.00  0.00     0.037 A 
HETATM   24  C   UNL     1     -53.374  59.039 -57.842  1.00  0.00     0.003 A 
HETATM   25  C   UNL     1     -54.076  59.924 -58.664  1.00  0.00     0.000 A 
HETATM   26  C   UNL     1     -54.434  61.187 -58.190  1.00  0.00     0.003 A 
HETATM   27  C   UNL     1     -54.091  61.569 -56.894  1.00  0.00     0.037 A 
ENDBRANCH  21  22
ENDBRANCH  18  21
ENDBRANCH  11  15
ENDBRANCH   4   9
BRANCH   1  28
HETATM   28  N   UNL     1     -42.996  56.495 -53.450  1.00  0.00    -0.273 N 
HETATM   29  N   UNL     1     -43.789  55.666 -54.147  1.00  0.00     0.005 NA
HETATM   30  N   UNL     1     -43.227  54.464 -54.122  1.00  0.00    -0.158 NA
HETATM   31  C   UNL     1     -42.052  54.548 -53.414  1.00  0.00     0.101 A 
HETATM   32  C   UNL     1     -41.876  55.851 -53.009  1.00  0.00     0.142 A 
BRANCH  31  33
HETATM   33  C   UNL     1     -41.164  53.428 -53.160  1.00  0.00    -0.005 A 
HETATM   34  C   UNL     1     -40.642  53.232 -51.874  1.00  0.00     0.014 A 
HETATM   35  C   UNL     1     -39.778  52.165 -51.610  1.00  0.00     0.001 A 
HETATM   36  C   UNL     1     -39.423  51.285 -52.630  1.00  0.00     0.000 A 
HETATM   37  C   UNL     1     -39.930  51.469 -53.913  1.00  0.00     0.001 A 
HETATM   38  C   UNL     1     -40.797  52.533 -54.178  1.00  0.00     0.014 A 
ENDBRANCH  31  33
ENDBRANCH   1  28
TORSDOF 6
ENDMDL
MODEL 8
REMARK VINA RESULT:      -8.6      4.104      6.385
REMARK  6 active torsions:
REMARK  status: ('A' for Active; 'I' for Inactive)
REMARK    1  A    between atoms: C_4  and  C_5 
REMARK    2  A    between atoms: N_8  and  C_9 
REMARK    3  A    between atoms: C_12  and  N_13 
REMARK       I    between atoms: N_13  and  C_14 
REMARK       I    between atoms: C_14  and  N_15 
REMARK    4  A    between atoms: N_15  and  C_16 
REMARK    5  A    between atoms: C_19  and  O_20 
REMARK    6  A    between atoms: O_20  and  C_21 
ROOT
HETATM    1  C   UNL     1     -41.780  56.835 -51.408  1.00  0.00     0.161 C 
HETATM    2  C   UNL     1     -43.026  57.487 -51.988  1.00  0.00     0.179 C 
HETATM    3  C   UNL     1     -42.875  58.976 -51.709  1.00  0.00     0.177 C 
HETATM    4  C   UNL     1     -44.120  59.355 -50.915  1.00  0.00     0.141 C 
HETATM    5  C   UNL     1     -45.035  58.141 -51.079  1.00  0.00     0.196 C 
HETATM    6  O   UNL     1     -44.191  57.008 -51.295  1.00  0.00    -0.379 OA
HETATM    7  O   UNL     1     -41.668  59.131 -50.934  1.00  0.00    -0.379 OA
HETATM    8  C   UNL     1     -40.830  58.013 -51.286  1.00  0.00     0.198 C 
ENDROOT
BRANCH   4   9
HETATM    9  N   UNL     1     -44.771  60.609 -51.285  1.00  0.00    -0.334 N 
HETATM   10  C   UNL     1     -44.193  61.820 -51.040  1.00  0.00     0.321 C 
HETATM   11  N   UNL     1     -44.682  62.895 -51.717  1.00  0.00    -0.309 N 
HETATM   12  O   UNL     1     -43.195  61.951 -50.337  1.00  0.00    -0.247 OA
HETATM   13  H   UNL     1     -44.025  63.666 -51.697  1.00  0.00     0.170 HD
HETATM   14  H   UNL     1     -45.310  60.573 -52.138  1.00  0.00     0.164 HD
BRANCH  11  15
HETATM   15  C   UNL     1     -45.842  63.072 -52.487  1.00  0.00     0.036 A 
HETATM   16  C   UNL     1     -46.024  62.518 -53.755  1.00  0.00     0.032 A 
HETATM   17  C   UNL     1     -47.210  62.751 -54.460  1.00  0.00     0.039 A 
HETATM   18  C   UNL     1     -48.218  63.542 -53.908  1.00  0.00     0.076 A 
HETATM   19  C   UNL     1     -48.056  64.063 -52.624  1.00  0.00     0.039 A 
HETATM   20  C   UNL     1     -46.878  63.814 -51.912  1.00  0.00     0.032 A 
BRANCH  18  21
HETATM   21  O   UNL     1     -49.354  63.691 -54.676  1.00  0.00    -0.311 OA
BRANCH  21  22
HETATM   22  C   UNL     1     -50.556  63.395 -54.082  1.00  0.00     0.076 A 
HETATM   23  C   UNL     1     -51.587  64.333 -54.097  1.00  0.00     0.037 A 
HETATM   24  C   UNL     1     -52.819  64.010 -53.528  1.00  0.00     0.003 A 
HETATM   25  C   UNL     1     -53.014  62.752 -52.954  1.00  0.00     0.000 A 
HETATM   26  C   UNL     1     -51.984  61.810 -52.960  1.00  0.00     0.003 A 
HETATM   27  C   UNL     1     -50.755  62.125 -53.539  1.00  0.00     0.037 A 
ENDBRANCH  21  22
ENDBRANCH  18  21
ENDBRANCH  11  15
ENDBRANCH   4   9
BRANCH   1  28
HETATM   28  N   UNL     1     -41.319  55.718 -52.193  1.00  0.00    -0.273 N 
HETATM   29  N   UNL     1     -41.082  55.827 -53.510  1.00  0.00     0.005 NA
HETATM   30  N   UNL     1     -40.680  54.637 -53.942  1.00  0.00    -0.158 NA
HETATM   31  C   UNL     1     -40.647  53.776 -52.872  1.00  0.00     0.101 A 
HETATM   32  C   UNL     1     -41.019  54.465 -51.740  1.00  0.00     0.142 A 
BRANCH  31  33
HETATM   33  C   UNL     1     -40.270  52.377 -52.956  1.00  0.00    -0.005 A 
HETATM   34  C   UNL     1     -40.408  51.689 -54.169  1.00  0.00     0.014 A 
HETATM   35  C   UNL     1     -40.059  50.340 -54.269  1.00  0.00     0.001 A 
HETATM   36  C   UNL     1     -39.573  49.659 -53.155  1.00  0.00     0.000 A 
HETATM   37  C   UNL     1     -39.434  50.327 -51.941  1.00  0.00     0.001 A 
HETATM   38  C   UNL     1     -39.779  51.678 -51.841  1.00  0.00     0.014 A 
ENDBRANCH  31  33
ENDBRANCH   1  28
TORSDOF 6
ENDMDL
MODEL 9
REMARK VINA RESULT:      -8.5      4.891      8.603
REMARK  6 active torsions:
REMARK  status: ('A' for Active; 'I' for Inactive)
REMARK    1  A    between atoms: C_4  and  C_5 
REMARK    2  A    between atoms: N_8  and  C_9 
REMARK    3  A    between atoms: C_12  and  N_13 
REMARK       I    between atoms: N_13  and  C_14 
REMARK       I    between atoms: C_14  and  N_15 
REMARK    4  A    between atoms: N_15  and  C_16 
REMARK    5  A    between atoms: C_19  and  O_20 
REMARK    6  A    between atoms: O_20  and  C_21 
ROOT
HETATM    1  C   UNL     1     -41.612  56.603 -50.457  1.00  0.00     0.161 C 
HETATM    2  C   UNL     1     -42.662  56.818 -51.536  1.00  0.00     0.179 C 
HETATM    3  C   UNL     1     -42.520  58.274 -51.958  1.00  0.00     0.177 C 
HETATM    4  C   UNL     1     -43.900  58.884 -51.735  1.00  0.00     0.141 C 
HETATM    5  C   UNL     1     -44.800  57.668 -51.514  1.00  0.00     0.196 C 
HETATM    6  O   UNL     1     -43.974  56.629 -50.981  1.00  0.00    -0.379 OA
HETATM    7  O   UNL     1     -41.522  58.860 -51.098  1.00  0.00    -0.379 OA
HETATM    8  C   UNL     1     -40.670  57.770 -50.689  1.00  0.00     0.198 C 
ENDROOT
BRANCH   4   9
HETATM    9  N   UNL     1     -44.396  59.772 -52.782  1.00  0.00    -0.334 N 
HETATM   10  C   UNL     1     -44.890  61.012 -52.500  1.00  0.00     0.321 C 
HETATM   11  N   UNL     1     -44.996  61.893 -53.533  1.00  0.00    -0.309 N 
HETATM   12  O   UNL     1     -45.125  61.391 -51.356  1.00  0.00    -0.247 OA
HETATM   13  H   UNL     1     -45.087  62.843 -53.192  1.00  0.00     0.170 HD
HETATM   14  H   UNL     1     -43.900  59.715 -53.660  1.00  0.00     0.164 HD
BRANCH  11  15
HETATM   15  C   UNL     1     -44.904  61.725 -54.923  1.00  0.00     0.036 A 
HETATM   16  C   UNL     1     -43.760  62.020 -55.666  1.00  0.00     0.032 A 
HETATM   17  C   UNL     1     -43.754  61.832 -57.053  1.00  0.00     0.039 A 
HETATM   18  C   UNL     1     -44.892  61.355 -57.707  1.00  0.00     0.076 A 
HETATM   19  C   UNL     1     -46.023  61.022 -56.962  1.00  0.00     0.039 A 
HETATM   20  C   UNL     1     -46.021  61.192 -55.574  1.00  0.00     0.032 A 
BRANCH  18  21
HETATM   21  O   UNL     1     -44.774  61.186 -59.071  1.00  0.00    -0.311 OA
BRANCH  21  22
HETATM   22  C   UNL     1     -43.872  60.251 -59.511  1.00  0.00     0.076 A 
HETATM   23  C   UNL     1     -44.032  58.911 -59.158  1.00  0.00     0.037 A 
HETATM   24  C   UNL     1     -43.135  57.960 -59.642  1.00  0.00     0.003 A 
HETATM   25  C   UNL     1     -42.088  58.351 -60.480  1.00  0.00     0.000 A 
HETATM   26  C   UNL     1     -41.944  59.690 -60.846  1.00  0.00     0.003 A 
HETATM   27  C   UNL     1     -42.847  60.642 -60.374  1.00  0.00     0.037 A 
ENDBRANCH  21  22
ENDBRANCH  18  21
ENDBRANCH  11  15
ENDBRANCH   4   9
BRANCH   1  28
HETATM   28  N   UNL     1     -41.026  55.287 -50.504  1.00  0.00    -0.273 N 
HETATM   29  N   UNL     1     -40.365  54.768 -49.456  1.00  0.00     0.005 NA
HETATM   30  N   UNL     1     -39.946  53.559 -49.811  1.00  0.00    -0.158 NA
HETATM   31  C   UNL     1     -40.370  53.311 -51.094  1.00  0.00     0.101 A 
HETATM   32  C   UNL     1     -41.093  54.396 -51.536  1.00  0.00     0.142 A 
BRANCH  31  33
HETATM   33  C   UNL     1     -40.088  52.093 -51.831  1.00  0.00    -0.005 A 
HETATM   34  C   UNL     1     -39.830  50.903 -51.137  1.00  0.00     0.014 A 
HETATM   35  C   UNL     1     -39.548  49.721 -51.827  1.00  0.00     0.001 A 
HETATM   36  C   UNL     1     -39.515  49.716 -53.220  1.00  0.00     0.000 A 
HETATM   37  C   UNL     1     -39.765  50.891 -53.924  1.00  0.00     0.001 A 
HETATM   38  C   UNL     1     -40.051  52.073 -53.235  1.00  0.00     0.014 A 
ENDBRANCH  31  33
ENDBRANCH   1  28
TORSDOF 6
ENDMDL
MODEL 10
REMARK VINA RESULT:      -8.3      8.006     10.654
REMARK  6 active torsions:
REMARK  status: ('A' for Active; 'I' for Inactive)
REMARK    1  A    between atoms: C_4  and  C_5 
REMARK    2  A    between atoms: N_8  and  C_9 
REMARK    3  A    between atoms: C_12  and  N_13 
REMARK       I    between atoms: N_13  and  C_14 
REMARK       I    between atoms: C_14  and  N_15 
REMARK    4  A    between atoms: N_15  and  C_16 
REMARK    5  A    between atoms: C_19  and  O_20 
REMARK    6  A    between atoms: O_20  and  C_21 
ROOT
HETATM    1  C   UNL     1     -43.228  55.568 -55.815  1.00  0.00     0.161 C 
HETATM    2  C   UNL     1     -42.940  55.971 -57.253  1.00  0.00     0.179 C 
HETATM    3  C   UNL     1     -43.609  57.326 -57.438  1.00  0.00     0.177 C 
HETATM    4  C   UNL     1     -44.562  57.137 -58.614  1.00  0.00     0.141 C 
HETATM    5  C   UNL     1     -44.132  55.797 -59.213  1.00  0.00     0.196 C 
HETATM    6  O   UNL     1     -43.553  55.032 -58.153  1.00  0.00    -0.379 OA
HETATM    7  O   UNL     1     -44.311  57.612 -56.211  1.00  0.00    -0.379 OA
HETATM    8  C   UNL     1     -43.605  56.893 -55.180  1.00  0.00     0.198 C 
ENDROOT
BRANCH   4   9
HETATM    9  N   UNL     1     -44.600  58.212 -59.601  1.00  0.00    -0.334 N 
HETATM   10  C   UNL     1     -45.648  58.365 -60.460  1.00  0.00     0.321 C 
HETATM   11  N   UNL     1     -45.773  59.566 -61.088  1.00  0.00    -0.309 N 
HETATM   12  O   UNL     1     -46.529  57.519 -60.593  1.00  0.00    -0.247 OA
HETATM   13  H   UNL     1     -46.708  59.685 -61.461  1.00  0.00     0.170 HD
HETATM   14  H   UNL     1     -44.182  59.081 -59.301  1.00  0.00     0.164 HD
BRANCH  11  15
HETATM   15  C   UNL     1     -44.898  60.656 -61.212  1.00  0.00     0.036 A 
HETATM   16  C   UNL     1     -43.772  60.657 -62.036  1.00  0.00     0.032 A 
HETATM   17  C   UNL     1     -42.946  61.785 -62.096  1.00  0.00     0.039 A 
HETATM   18  C   UNL     1     -43.234  62.915 -61.328  1.00  0.00     0.076 A 
HETATM   19  C   UNL     1     -44.381  62.931 -60.534  1.00  0.00     0.039 A 
HETATM   20  C   UNL     1     -45.217  61.811 -60.491  1.00  0.00     0.032 A 
BRANCH  18  21
HETATM   21  O   UNL     1     -42.368  63.979 -61.476  1.00  0.00    -0.311 OA
BRANCH  21  22
HETATM   22  C   UNL     1     -41.154  63.891 -60.843  1.00  0.00     0.076 A 
HETATM   23  C   UNL     1     -41.101  63.633 -59.474  1.00  0.00     0.037 A 
HETATM   24  C   UNL     1     -39.863  63.504 -58.845  1.00  0.00     0.003 A 
HETATM   25  C   UNL     1     -38.687  63.629 -59.588  1.00  0.00     0.000 A 
HETATM   26  C   UNL     1     -38.746  63.867 -60.962  1.00  0.00     0.003 A 
HETATM   27  C   UNL     1     -39.982  63.984 -61.596  1.00  0.00     0.037 A 
ENDBRANCH  21  22
ENDBRANCH  18  21
ENDBRANCH  11  15
ENDBRANCH   4   9
BRANCH   1  28
HETATM   28  N   UNL     1     -42.135  54.853 -55.208  1.00  0.00    -0.273 N 
HETATM   29  N   UNL     1     -40.912  55.396 -55.087  1.00  0.00     0.005 NA
HETATM   30  N   UNL     1     -40.134  54.497 -54.499  1.00  0.00    -0.158 NA
HETATM   31  C   UNL     1     -40.887  53.380 -54.229  1.00  0.00     0.101 A 
HETATM   32  C   UNL     1     -42.178  53.609 -54.646  1.00  0.00     0.142 A 
BRANCH  31  33
HETATM   33  C   UNL     1     -40.374  52.175 -53.602  1.00  0.00    -0.005 A 
HETATM   34  C   UNL     1     -40.297  50.985 -54.337  1.00  0.00     0.014 A 
HETATM   35  C   UNL     1     -39.815  49.812 -53.750  1.00  0.00     0.001 A 
HETATM   36  C   UNL     1     -39.410  49.815 -52.417  1.00  0.00     0.000 A 
HETATM   37  C   UNL     1     -39.484  50.988 -51.671  1.00  0.00     0.001 A 
HETATM   38  C   UNL     1     -39.963  52.163 -52.259  1.00  0.00     0.014 A 
ENDBRANCH  31  33
ENDBRANCH   1  28
TORSDOF 6
ENDMDL
