MODEL 1
REMARK VINA RESULT:      -9.4      0.000      0.000
REMARK  6 active torsions:
REMARK  status: ('A' for Active; 'I' for Inactive)
REMARK    1  A    between atoms: C_2  and  C_3 
REMARK    2  A    between atoms: C_3  and  N_4 
REMARK    3  A    between atoms: C_10  and  S_11 
REMARK    4  A    between atoms: S_11  and  C_12 
REMARK    5  A    between atoms: C_12  and  C_13 
REMARK       I    between atoms: C_13  and  N_14 
REMARK    6  A    between atoms: N_14  and  C_15 
ROOT
HETATM    1  N   UNL     1     -41.302  55.101 -54.052  1.00  0.00    -0.063 N 
HETATM    2  H   UNL     1     -41.462  54.749 -53.100  1.00  0.00     0.280 HD
HETATM    3  C   UNL     1     -40.665  56.479 -53.899  1.00  0.00     0.281 C 
HETATM    4  C   UNL     1     -41.649  57.560 -53.616  1.00  0.00     0.060 A 
HETATM    5  C   UNL     1     -42.982  57.416 -53.638  1.00  0.00     0.052 A 
HETATM    6  N   UNL     1     -43.866  58.440 -53.415  1.00  0.00    -0.228 NA
HETATM    7  C   UNL     1     -43.375  59.604 -53.152  1.00  0.00     0.169 A 
HETATM    8  N   UNL     1     -42.042  59.865 -53.077  1.00  0.00    -0.302 N 
HETATM    9  C   UNL     1     -41.111  58.901 -53.313  1.00  0.00     0.257 A 
HETATM   10  O   UNL     1     -39.904  59.096 -53.301  1.00  0.00    -0.267 OA
HETATM   11  C   UNL     1     -43.599  56.083 -53.971  1.00  0.00     0.088 C 
HETATM   12  C   UNL     1     -42.645  55.176 -54.747  1.00  0.00     0.241 C 
HETATM   13  H   UNL     1     -41.728  60.802 -52.871  1.00  0.00     0.171 HD
ENDROOT
BRANCH   7  14
HETATM   14  S   UNL     1     -44.365  61.003 -52.875  1.00  0.00    -0.083 SA
BRANCH  14  15
HETATM   15  C   UNL     1     -45.851  60.181 -52.219  1.00  0.00     0.185 C 
BRANCH  15  16
HETATM   16  C   UNL     1     -45.916  60.137 -50.702  1.00  0.00     0.232 C 
HETATM   17  N   UNL     1     -45.595  61.321 -50.066  1.00  0.00    -0.324 N 
HETATM   18  H   UNL     1     -44.964  61.930 -50.576  1.00  0.00     0.169 HD
HETATM   19  O   UNL     1     -46.275  59.103 -50.141  1.00  0.00    -0.272 OA
BRANCH  17  20
HETATM   20  C   UNL     1     -45.797  61.598 -48.695  1.00  0.00     0.076 A 
HETATM   21  C   UNL     1     -46.853  62.380 -48.197  1.00  0.00     0.143 A 
HETATM   22  F   UNL     1     -47.698  63.014 -49.023  1.00  0.00    -0.204 F 
HETATM   23  C   UNL     1     -46.995  62.615 -46.829  1.00  0.00     0.047 A 
HETATM   24  C   UNL     1     -46.071  62.083 -45.934  1.00  0.00     0.045 A 
HETATM   25  C   UNL     1     -45.005  61.339 -46.426  1.00  0.00     0.118 A 
HETATM   26  F   UNL     1     -44.103  60.838 -45.571  1.00  0.00    -0.206 F 
HETATM   27  C   UNL     1     -44.852  61.102 -47.791  1.00  0.00     0.074 A 
ENDBRANCH  17  20
ENDBRANCH  15  16
ENDBRANCH  14  15
ENDBRANCH   7  14
BRANCH   1  28
HETATM   28  C   UNL     1     -40.389  54.108 -54.732  1.00  0.00     0.273 C 
BRANCH  28  29
HETATM   29  C   UNL     1     -40.172  52.845 -53.945  1.00  0.00    -0.030 A 
HETATM   30  C   UNL     1     -39.927  51.620 -54.610  1.00  0.00     0.012 A 
HETATM   31  C   UNL     1     -39.744  50.435 -53.890  1.00  0.00     0.040 A 
HETATM   32  C   UNL     1     -39.813  50.499 -52.516  1.00  0.00     0.105 A 
HETATM   33  C   UNL     1     -40.043  51.684 -51.862  1.00  0.00     0.105 A 
HETATM   34  O   UNL     1     -39.676  49.452 -51.662  1.00  0.00    -0.323 OA
HETATM   35  C   UNL     1     -40.223  52.871 -52.540  1.00  0.00     0.048 A 
HETATM   36  O   UNL     1     -40.079  51.533 -50.512  1.00  0.00    -0.323 OA
HETATM   37  C   UNL     1     -39.880  50.105 -50.390  1.00  0.00     0.352 A 
ENDBRANCH  28  29
ENDBRANCH   1  28
TORSDOF 6
ENDMDL
MODEL 2
REMARK VINA RESULT:      -9.2      5.196      9.405
REMARK  6 active torsions:
REMARK  status: ('A' for Active; 'I' for Inactive)
REMARK    1  A    between atoms: C_2  and  C_3 
REMARK    2  A    between atoms: C_3  and  N_4 
REMARK    3  A    between atoms: C_10  and  S_11 
REMARK    4  A    between atoms: S_11  and  C_12 
REMARK    5  A    between atoms: C_12  and  C_13 
REMARK       I    between atoms: C_13  and  N_14 
REMARK    6  A    between atoms: N_14  and  C_15 
ROOT
HETATM    1  N   UNL     1     -42.379  57.600 -55.407  1.00  0.00    -0.063 N 
HETATM    2  H   UNL     1     -41.576  57.099 -55.808  1.00  0.00     0.280 HD
HETATM    3  C   UNL     1     -41.838  58.413 -54.235  1.00  0.00     0.281 C 
HETATM    4  C   UNL     1     -41.659  57.615 -52.991  1.00  0.00     0.060 A 
HETATM    5  C   UNL     1     -42.063  56.347 -52.822  1.00  0.00     0.052 A 
HETATM    6  N   UNL     1     -41.924  55.650 -51.651  1.00  0.00    -0.228 NA
HETATM    7  C   UNL     1     -41.353  56.253 -50.662  1.00  0.00     0.169 A 
HETATM    8  N   UNL     1     -40.880  57.526 -50.723  1.00  0.00    -0.302 N 
HETATM    9  C   UNL     1     -41.009  58.284 -51.847  1.00  0.00     0.257 A 
HETATM   10  O   UNL     1     -40.640  59.446 -51.937  1.00  0.00    -0.267 OA
HETATM   11  C   UNL     1     -42.763  55.616 -53.938  1.00  0.00     0.088 C 
HETATM   12  C   UNL     1     -43.389  56.566 -54.957  1.00  0.00     0.241 C 
HETATM   13  H   UNL     1     -40.446  57.938 -49.909  1.00  0.00     0.171 HD
ENDROOT
BRANCH   7  14
HETATM   14  S   UNL     1     -41.129  55.511 -49.108  1.00  0.00    -0.083 SA
BRANCH  14  15
HETATM   15  C   UNL     1     -39.713  54.437 -49.501  1.00  0.00     0.185 C 
BRANCH  15  16
HETATM   16  C   UNL     1     -40.083  53.176 -50.262  1.00  0.00     0.232 C 
HETATM   17  N   UNL     1     -39.822  53.212 -51.619  1.00  0.00    -0.324 N 
HETATM   18  H   UNL     1     -39.830  54.135 -52.039  1.00  0.00     0.169 HD
HETATM   19  O   UNL     1     -40.543  52.213 -49.652  1.00  0.00    -0.272 OA
BRANCH  17  20
HETATM   20  C   UNL     1     -39.864  52.103 -52.493  1.00  0.00     0.076 A 
HETATM   21  C   UNL     1     -40.255  52.176 -53.841  1.00  0.00     0.143 A 
HETATM   22  F   UNL     1     -40.724  53.316 -54.367  1.00  0.00    -0.204 F 
HETATM   23  C   UNL     1     -40.274  51.040 -54.651  1.00  0.00     0.047 A 
HETATM   24  C   UNL     1     -39.915  49.804 -54.120  1.00  0.00     0.045 A 
HETATM   25  C   UNL     1     -39.562  49.721 -52.778  1.00  0.00     0.118 A 
HETATM   26  F   UNL     1     -39.232  48.531 -52.258  1.00  0.00    -0.206 F 
HETATM   27  C   UNL     1     -39.544  50.850 -51.960  1.00  0.00     0.074 A 
ENDBRANCH  17  20
ENDBRANCH  15  16
ENDBRANCH  14  15
ENDBRANCH   7  14
BRANCH   1  28
HETATM   28  C   UNL     1     -42.940  58.467 -56.511  1.00  0.00     0.273 C 
BRANCH  28  29
HETATM   29  C   UNL     1     -43.303  57.707 -57.756  1.00  0.00    -0.030 A 
HETATM   30  C   UNL     1     -42.291  57.239 -58.629  1.00  0.00     0.012 A 
HETATM   31  C   UNL     1     -42.616  56.549 -59.801  1.00  0.00     0.040 A 
HETATM   32  C   UNL     1     -43.949  56.342 -60.079  1.00  0.00     0.105 A 
HETATM   33  C   UNL     1     -44.937  56.785 -59.234  1.00  0.00     0.105 A 
HETATM   34  O   UNL     1     -44.446  55.709 -61.172  1.00  0.00    -0.323 OA
HETATM   35  C   UNL     1     -44.652  57.466 -58.069  1.00  0.00     0.048 A 
HETATM   36  O   UNL     1     -46.182  56.487 -59.690  1.00  0.00    -0.323 OA
HETATM   37  C   UNL     1     -45.866  55.832 -60.941  1.00  0.00     0.352 A 
ENDBRANCH  28  29
ENDBRANCH   1  28
TORSDOF 6
ENDMDL
MODEL 3
REMARK VINA RESULT:      -9.2      4.613      7.186
REMARK  6 active torsions:
REMARK  status: ('A' for Active; 'I' for Inactive)
REMARK    1  A    between atoms: C_2  and  C_3 
REMARK    2  A    between atoms: C_3  and  N_4 
REMARK    3  A    between atoms: C_10  and  S_11 
REMARK    4  A    between atoms: S_11  and  C_12 
REMARK    5  A    between atoms: C_12  and  C_13 
REMARK       I    between atoms: C_13  and  N_14 
REMARK    6  A    between atoms: N_14  and  C_15 
ROOT
HETATM    1  N   UNL     1     -41.718  55.232 -52.089  1.00  0.00    -0.063 N 
HETATM    2  H   UNL     1     -42.131  54.559 -52.746  1.00  0.00     0.280 HD
HETATM    3  C   UNL     1     -42.884  55.948 -51.415  1.00  0.00     0.281 C 
HETATM    4  C   UNL     1     -43.465  57.043 -52.240  1.00  0.00     0.060 A 
HETATM    5  C   UNL     1     -42.953  57.494 -53.394  1.00  0.00     0.052 A 
HETATM    6  N   UNL     1     -43.486  58.534 -54.112  1.00  0.00    -0.228 NA
HETATM    7  C   UNL     1     -44.553  59.093 -53.649  1.00  0.00     0.169 A 
HETATM    8  N   UNL     1     -45.175  58.705 -52.504  1.00  0.00    -0.302 N 
HETATM    9  C   UNL     1     -44.686  57.698 -51.730  1.00  0.00     0.257 A 
HETATM   10  O   UNL     1     -45.184  57.342 -50.672  1.00  0.00    -0.267 OA
HETATM   11  C   UNL     1     -41.691  56.893 -53.955  1.00  0.00     0.088 C 
HETATM   12  C   UNL     1     -40.857  56.186 -52.888  1.00  0.00     0.241 C 
HETATM   13  H   UNL     1     -46.006  59.191 -52.198  1.00  0.00     0.171 HD
ENDROOT
BRANCH   7  14
HETATM   14  S   UNL     1     -45.327  60.437 -54.430  1.00  0.00    -0.083 SA
BRANCH  14  15
HETATM   15  C   UNL     1     -44.001  60.903 -55.587  1.00  0.00     0.185 C 
BRANCH  15  16
HETATM   16  C   UNL     1     -43.971  60.077 -56.860  1.00  0.00     0.232 C 
HETATM   17  N   UNL     1     -42.879  59.238 -56.991  1.00  0.00    -0.324 N 
HETATM   18  H   UNL     1     -42.041  59.538 -56.505  1.00  0.00     0.169 HD
HETATM   19  O   UNL     1     -44.900  60.163 -57.661  1.00  0.00    -0.272 OA
BRANCH  17  20
HETATM   20  C   UNL     1     -42.737  58.218 -57.958  1.00  0.00     0.076 A 
HETATM   21  C   UNL     1     -42.112  58.396 -59.203  1.00  0.00     0.143 A 
HETATM   22  F   UNL     1     -41.691  59.604 -59.604  1.00  0.00    -0.204 F 
HETATM   23  C   UNL     1     -42.005  57.345 -60.116  1.00  0.00     0.047 A 
HETATM   24  C   UNL     1     -42.538  56.098 -59.801  1.00  0.00     0.045 A 
HETATM   25  C   UNL     1     -43.189  55.928 -58.584  1.00  0.00     0.118 A 
HETATM   26  F   UNL     1     -43.719  54.734 -58.284  1.00  0.00    -0.206 F 
HETATM   27  C   UNL     1     -43.304  56.973 -57.669  1.00  0.00     0.074 A 
ENDBRANCH  17  20
ENDBRANCH  15  16
ENDBRANCH  14  15
ENDBRANCH   7  14
BRANCH   1  28
HETATM   28  C   UNL     1     -40.885  54.429 -51.116  1.00  0.00     0.273 C 
BRANCH  28  29
HETATM   29  C   UNL     1     -40.504  53.066 -51.624  1.00  0.00    -0.030 A 
HETATM   30  C   UNL     1     -40.101  52.052 -50.722  1.00  0.00     0.012 A 
HETATM   31  C   UNL     1     -39.724  50.787 -51.184  1.00  0.00     0.040 A 
HETATM   32  C   UNL     1     -39.756  50.561 -52.542  1.00  0.00     0.105 A 
HETATM   33  C   UNL     1     -40.152  51.535 -53.424  1.00  0.00     0.105 A 
HETATM   34  O   UNL     1     -39.411  49.405 -53.166  1.00  0.00    -0.323 OA
HETATM   35  C   UNL     1     -40.534  52.792 -53.003  1.00  0.00     0.048 A 
HETATM   36  O   UNL     1     -40.108  51.116 -54.716  1.00  0.00    -0.323 OA
HETATM   37  C   UNL     1     -39.602  49.770 -54.550  1.00  0.00     0.352 A 
ENDBRANCH  28  29
ENDBRANCH   1  28
TORSDOF 6
ENDMDL
MODEL 4
REMARK VINA RESULT:      -9.2      3.930      5.956
REMARK  6 active torsions:
REMARK  status: ('A' for Active; 'I' for Inactive)
REMARK    1  A    between atoms: C_2  and  C_3 
REMARK    2  A    between atoms: C_3  and  N_4 
REMARK    3  A    between atoms: C_10  and  S_11 
REMARK    4  A    between atoms: S_11  and  C_12 
REMARK    5  A    between atoms: C_12  and  C_13 
REMARK       I    between atoms: C_13  and  N_14 
REMARK    6  A    between atoms: N_14  and  C_15 
ROOT
HETATM    1  N   UNL     1     -41.260  55.090 -53.799  1.00  0.00    -0.063 N 
HETATM    2  H   UNL     1     -41.238  54.745 -52.831  1.00  0.00     0.280 HD
HETATM    3  C   UNL     1     -40.698  56.507 -53.764  1.00  0.00     0.281 C 
HETATM    4  C   UNL     1     -41.691  57.530 -53.330  1.00  0.00     0.060 A 
HETATM    5  C   UNL     1     -42.997  57.301 -53.130  1.00  0.00     0.052 A 
HETATM    6  N   UNL     1     -43.897  58.270 -52.772  1.00  0.00    -0.228 NA
HETATM    7  C   UNL     1     -43.446  59.468 -52.603  1.00  0.00     0.169 A 
HETATM    8  N   UNL     1     -42.140  59.814 -52.751  1.00  0.00    -0.302 N 
HETATM    9  C   UNL     1     -41.199  58.907 -53.130  1.00  0.00     0.257 A 
HETATM   10  O   UNL     1     -40.022  59.178 -53.320  1.00  0.00    -0.267 OA
HETATM   11  C   UNL     1     -43.571  55.925 -53.347  1.00  0.00     0.088 C 
HETATM   12  C   UNL     1     -42.701  55.066 -54.263  1.00  0.00     0.241 C 
HETATM   13  H   UNL     1     -41.857  60.773 -52.606  1.00  0.00     0.171 HD
ENDROOT
BRANCH   7  14
HETATM   14  S   UNL     1     -44.467  60.806 -52.175  1.00  0.00    -0.083 SA
BRANCH  14  15
HETATM   15  C   UNL     1     -45.774  60.585 -53.423  1.00  0.00     0.185 C 
BRANCH  15  16
HETATM   16  C   UNL     1     -45.259  60.194 -54.797  1.00  0.00     0.232 C 
HETATM   17  N   UNL     1     -45.572  58.908 -55.198  1.00  0.00    -0.324 N 
HETATM   18  H   UNL     1     -45.708  58.240 -54.446  1.00  0.00     0.169 HD
HETATM   19  O   UNL     1     -44.648  61.019 -55.472  1.00  0.00    -0.272 OA
BRANCH  17  20
HETATM   20  C   UNL     1     -45.407  58.391 -56.502  1.00  0.00     0.076 A 
HETATM   21  C   UNL     1     -44.194  57.889 -57.003  1.00  0.00     0.143 A 
HETATM   22  F   UNL     1     -43.062  57.968 -56.289  1.00  0.00    -0.204 F 
HETATM   23  C   UNL     1     -44.099  57.392 -58.304  1.00  0.00     0.047 A 
HETATM   24  C   UNL     1     -45.218  57.403 -59.133  1.00  0.00     0.045 A 
HETATM   25  C   UNL     1     -46.411  57.931 -58.652  1.00  0.00     0.118 A 
HETATM   26  F   UNL     1     -47.486  57.959 -59.452  1.00  0.00    -0.206 F 
HETATM   27  C   UNL     1     -46.514  58.434 -57.356  1.00  0.00     0.074 A 
ENDBRANCH  17  20
ENDBRANCH  15  16
ENDBRANCH  14  15
ENDBRANCH   7  14
BRANCH   1  28
HETATM   28  C   UNL     1     -40.408  54.144 -54.614  1.00  0.00     0.273 C 
BRANCH  28  29
HETATM   29  C   UNL     1     -40.167  52.818 -53.948  1.00  0.00    -0.030 A 
HETATM   30  C   UNL     1     -40.013  51.644 -54.724  1.00  0.00     0.012 A 
HETATM   31  C   UNL     1     -39.810  50.401 -54.116  1.00  0.00     0.040 A 
HETATM   32  C   UNL     1     -39.768  50.356 -52.741  1.00  0.00     0.105 A 
HETATM   33  C   UNL     1     -39.909  51.490 -51.979  1.00  0.00     0.105 A 
HETATM   34  O   UNL     1     -39.596  49.242 -51.984  1.00  0.00    -0.323 OA
HETATM   35  C   UNL     1     -40.107  52.732 -52.546  1.00  0.00     0.048 A 
HETATM   36  O   UNL     1     -39.843  51.233 -50.646  1.00  0.00    -0.323 OA
HETATM   37  C   UNL     1     -39.678  49.795 -50.653  1.00  0.00     0.352 A 
ENDBRANCH  28  29
ENDBRANCH   1  28
TORSDOF 6
ENDMDL
MODEL 5
REMARK VINA RESULT:      -9.2      4.653      7.172
REMARK  6 active torsions:
REMARK  status: ('A' for Active; 'I' for Inactive)
REMARK    1  A    between atoms: C_2  and  C_3 
REMARK    2  A    between atoms: C_3  and  N_4 
REMARK    3  A    between atoms: C_10  and  S_11 
REMARK    4  A    between atoms: S_11  and  C_12 
REMARK    5  A    between atoms: C_12  and  C_13 
REMARK       I    between atoms: C_13  and  N_14 
REMARK    6  A    between atoms: N_14  and  C_15 
ROOT
HETATM    1  N   UNL     1     -41.519  54.202 -49.964  1.00  0.00    -0.063 N 
HETATM    2  H   UNL     1     -42.170  54.217 -49.168  1.00  0.00     0.280 HD
HETATM    3  C   UNL     1     -41.072  55.644 -50.181  1.00  0.00     0.281 C 
HETATM    4  C   UNL     1     -42.055  56.463 -50.943  1.00  0.00     0.060 A 
HETATM    5  C   UNL     1     -43.162  55.989 -51.533  1.00  0.00     0.052 A 
HETATM    6  N   UNL     1     -44.027  56.759 -52.265  1.00  0.00    -0.228 NA
HETATM    7  C   UNL     1     -43.761  58.018 -52.373  1.00  0.00     0.169 A 
HETATM    8  N   UNL     1     -42.684  58.615 -51.797  1.00  0.00    -0.302 N 
HETATM    9  C   UNL     1     -41.771  57.905 -51.079  1.00  0.00     0.257 A 
HETATM   10  O   UNL     1     -40.765  58.389 -50.580  1.00  0.00    -0.267 OA
HETATM   11  C   UNL     1     -43.494  54.522 -51.461  1.00  0.00     0.088 C 
HETATM   12  C   UNL     1     -42.269  53.659 -51.161  1.00  0.00     0.241 C 
HETATM   13  H   UNL     1     -42.535  59.606 -51.926  1.00  0.00     0.171 HD
ENDROOT
BRANCH   7  14
HETATM   14  S   UNL     1     -44.748  59.114 -53.289  1.00  0.00    -0.083 SA
BRANCH  14  15
HETATM   15  C   UNL     1     -43.472  59.800 -54.392  1.00  0.00     0.185 C 
BRANCH  15  16
HETATM   16  C   UNL     1     -43.595  59.349 -55.837  1.00  0.00     0.232 C 
HETATM   17  N   UNL     1     -42.546  58.578 -56.303  1.00  0.00    -0.324 N 
HETATM   18  H   UNL     1     -41.654  58.738 -55.846  1.00  0.00     0.169 HD
HETATM   19  O   UNL     1     -44.599  59.647 -56.482  1.00  0.00    -0.272 OA
BRANCH  17  20
HETATM   20  C   UNL     1     -42.531  57.859 -57.518  1.00  0.00     0.076 A 
HETATM   21  C   UNL     1     -42.977  56.533 -57.654  1.00  0.00     0.143 A 
HETATM   22  F   UNL     1     -43.358  55.816 -56.588  1.00  0.00    -0.204 F 
HETATM   23  C   UNL     1     -42.936  55.879 -58.886  1.00  0.00     0.047 A 
HETATM   24  C   UNL     1     -42.432  56.538 -60.004  1.00  0.00     0.045 A 
HETATM   25  C   UNL     1     -41.957  57.837 -59.866  1.00  0.00     0.118 A 
HETATM   26  F   UNL     1     -41.455  58.470 -60.936  1.00  0.00    -0.206 F 
HETATM   27  C   UNL     1     -41.990  58.497 -58.639  1.00  0.00     0.074 A 
ENDBRANCH  17  20
ENDBRANCH  15  16
ENDBRANCH  14  15
ENDBRANCH   7  14
BRANCH   1  28
HETATM   28  C   UNL     1     -40.380  53.289 -49.573  1.00  0.00     0.273 C 
BRANCH  28  29
HETATM   29  C   UNL     1     -40.171  52.140 -50.519  1.00  0.00    -0.030 A 
HETATM   30  C   UNL     1     -40.229  50.806 -50.049  1.00  0.00     0.012 A 
HETATM   31  C   UNL     1     -40.015  49.728 -50.914  1.00  0.00     0.040 A 
HETATM   32  C   UNL     1     -39.745  50.008 -52.235  1.00  0.00     0.105 A 
HETATM   33  C   UNL     1     -39.694  51.298 -52.702  1.00  0.00     0.105 A 
HETATM   34  O   UNL     1     -39.497  49.093 -53.209  1.00  0.00    -0.323 OA
HETATM   35  C   UNL     1     -39.904  52.383 -51.878  1.00  0.00     0.048 A 
HETATM   36  O   UNL     1     -39.409  51.359 -54.030  1.00  0.00    -0.323 OA
HETATM   37  C   UNL     1     -39.250  49.955 -54.341  1.00  0.00     0.352 A 
ENDBRANCH  28  29
ENDBRANCH   1  28
TORSDOF 6
ENDMDL
MODEL 6
REMARK VINA RESULT:      -9.2      3.977      6.195
REMARK  6 active torsions:
REMARK  status: ('A' for Active; 'I' for Inactive)
REMARK    1  A    between atoms: C_2  and  C_3 
REMARK    2  A    between atoms: C_3  and  N_4 
REMARK    3  A    between atoms: C_10  and  S_11 
REMARK    4  A    between atoms: S_11  and  C_12 
REMARK    5  A    between atoms: C_12  and  C_13 
REMARK       I    between atoms: C_13  and  N_14 
REMARK    6  A    between atoms: N_14  and  C_15 
ROOT
HETATM    1  N   UNL     1     -41.113  54.516 -49.896  1.00  0.00    -0.063 N 
HETATM    2  H   UNL     1     -41.568  54.401 -48.982  1.00  0.00     0.280 HD
HETATM    3  C   UNL     1     -40.857  56.010 -50.065  1.00  0.00     0.281 C 
HETATM    4  C   UNL     1     -42.055  56.772 -50.515  1.00  0.00     0.060 A 
HETATM    5  C   UNL     1     -43.218  56.225 -50.897  1.00  0.00     0.052 A 
HETATM    6  N   UNL     1     -44.291  56.948 -51.348  1.00  0.00    -0.228 NA
HETATM    7  C   UNL     1     -44.170  58.233 -51.388  1.00  0.00     0.169 A 
HETATM    8  N   UNL     1     -43.050  58.900 -51.003  1.00  0.00    -0.302 N 
HETATM    9  C   UNL     1     -41.939  58.242 -50.569  1.00  0.00     0.257 A 
HETATM   10  O   UNL     1     -40.895  58.795 -50.255  1.00  0.00    -0.267 OA
HETATM   11  C   UNL     1     -43.393  54.729 -50.897  1.00  0.00     0.088 C 
HETATM   12  C   UNL     1     -42.060  53.985 -50.951  1.00  0.00     0.241 C 
HETATM   13  H   UNL     1     -43.023  59.908 -51.064  1.00  0.00     0.171 HD
ENDROOT
BRANCH   7  14
HETATM   14  S   UNL     1     -45.431  59.280 -51.961  1.00  0.00    -0.083 SA
BRANCH  14  15
HETATM   15  C   UNL     1     -44.959  59.369 -53.717  1.00  0.00     0.185 C 
BRANCH  15  16
HETATM   16  C   UNL     1     -44.509  58.043 -54.305  1.00  0.00     0.232 C 
HETATM   17  N   UNL     1     -43.149  57.802 -54.238  1.00  0.00    -0.324 N 
HETATM   18  H   UNL     1     -42.563  58.630 -54.223  1.00  0.00     0.169 HD
HETATM   19  O   UNL     1     -45.347  57.266 -54.758  1.00  0.00    -0.272 OA
BRANCH  17  20
HETATM   20  C   UNL     1     -42.520  56.566 -54.505  1.00  0.00     0.076 A 
HETATM   21  C   UNL     1     -41.178  56.284 -54.202  1.00  0.00     0.143 A 
HETATM   22  F   UNL     1     -40.360  57.232 -53.722  1.00  0.00    -0.204 F 
HETATM   23  C   UNL     1     -40.616  55.040 -54.493  1.00  0.00     0.047 A 
HETATM   24  C   UNL     1     -41.389  54.058 -55.107  1.00  0.00     0.045 A 
HETATM   25  C   UNL     1     -42.708  54.345 -55.440  1.00  0.00     0.118 A 
HETATM   26  F   UNL     1     -43.450  53.409 -56.047  1.00  0.00    -0.206 F 
HETATM   27  C   UNL     1     -43.275  55.586 -55.158  1.00  0.00     0.074 A 
ENDBRANCH  17  20
ENDBRANCH  15  16
ENDBRANCH  14  15
ENDBRANCH   7  14
BRANCH   1  28
HETATM   28  C   UNL     1     -39.838  53.706 -49.849  1.00  0.00     0.273 C 
BRANCH  28  29
HETATM   29  C   UNL     1     -39.870  52.474 -50.709  1.00  0.00    -0.030 A 
HETATM   30  C   UNL     1     -40.128  51.206 -50.135  1.00  0.00     0.012 A 
HETATM   31  C   UNL     1     -40.139  50.049 -50.921  1.00  0.00     0.040 A 
HETATM   32  C   UNL     1     -39.888  50.184 -52.268  1.00  0.00     0.105 A 
HETATM   33  C   UNL     1     -39.643  51.410 -52.836  1.00  0.00     0.105 A 
HETATM   34  O   UNL     1     -39.843  49.174 -53.175  1.00  0.00    -0.323 OA
HETATM   35  C   UNL     1     -39.628  52.571 -52.091  1.00  0.00     0.048 A 
HETATM   36  O   UNL     1     -39.414  51.327 -54.173  1.00  0.00    -0.323 OA
HETATM   37  C   UNL     1     -39.508  49.898 -54.379  1.00  0.00     0.352 A 
ENDBRANCH  28  29
ENDBRANCH   1  28
TORSDOF 6
ENDMDL
MODEL 7
REMARK VINA RESULT:      -9.0      4.103      6.065
REMARK  6 active torsions:
REMARK  status: ('A' for Active; 'I' for Inactive)
REMARK    1  A    between atoms: C_2  and  C_3 
REMARK    2  A    between atoms: C_3  and  N_4 
REMARK    3  A    between atoms: C_10  and  S_11 
REMARK    4  A    between atoms: S_11  and  C_12 
REMARK    5  A    between atoms: C_12  and  C_13 
REMARK       I    between atoms: C_13  and  N_14 
REMARK    6  A    between atoms: N_14  and  C_15 
ROOT
HETATM    1  N   UNL     1     -41.689  55.866 -50.014  1.00  0.00    -0.063 N 
HETATM    2  H   UNL     1     -42.007  56.178 -49.088  1.00  0.00     0.280 HD
HETATM    3  C   UNL     1     -40.975  57.056 -50.647  1.00  0.00     0.281 C 
HETATM    4  C   UNL     1     -41.902  58.053 -51.251  1.00  0.00     0.060 A 
HETATM    5  C   UNL     1     -43.227  57.891 -51.388  1.00  0.00     0.052 A 
HETATM    6  N   UNL     1     -44.050  58.808 -51.987  1.00  0.00    -0.228 NA
HETATM    7  C   UNL     1     -43.512  59.896 -52.427  1.00  0.00     0.169 A 
HETATM    8  N   UNL     1     -42.187  60.181 -52.322  1.00  0.00    -0.302 N 
HETATM    9  C   UNL     1     -41.309  59.304 -51.762  1.00  0.00     0.257 A 
HETATM   10  O   UNL     1     -40.104  59.496 -51.684  1.00  0.00    -0.267 OA
HETATM   11  C   UNL     1     -43.892  56.624 -50.918  1.00  0.00     0.088 C 
HETATM   12  C   UNL     1     -42.913  55.457 -50.806  1.00  0.00     0.241 C 
HETATM   13  H   UNL     1     -41.832  61.051 -52.692  1.00  0.00     0.171 HD
ENDROOT
BRANCH   7  14
HETATM   14  S   UNL     1     -44.420  61.137 -53.233  1.00  0.00    -0.083 SA
BRANCH  14  15
HETATM   15  C   UNL     1     -43.745  60.947 -54.913  1.00  0.00     0.185 C 
BRANCH  15  16
HETATM   16  C   UNL     1     -43.973  59.574 -55.520  1.00  0.00     0.232 C 
HETATM   17  N   UNL     1     -42.941  58.672 -55.335  1.00  0.00    -0.324 N 
HETATM   18  H   UNL     1     -42.021  59.083 -55.221  1.00  0.00     0.169 HD
HETATM   19  O   UNL     1     -45.035  59.332 -56.090  1.00  0.00    -0.272 OA
BRANCH  17  20
HETATM   20  C   UNL     1     -43.005  57.286 -55.601  1.00  0.00     0.076 A 
HETATM   21  C   UNL     1     -42.730  56.711 -56.853  1.00  0.00     0.143 A 
HETATM   22  F   UNL     1     -42.483  57.473 -57.929  1.00  0.00    -0.204 F 
HETATM   23  C   UNL     1     -42.811  55.332 -57.049  1.00  0.00     0.047 A 
HETATM   24  C   UNL     1     -43.185  54.503 -55.995  1.00  0.00     0.045 A 
HETATM   25  C   UNL     1     -43.493  55.071 -54.764  1.00  0.00     0.118 A 
HETATM   26  F   UNL     1     -43.870  54.279 -53.751  1.00  0.00    -0.206 F 
HETATM   27  C   UNL     1     -43.419  56.448 -54.560  1.00  0.00     0.074 A 
ENDBRANCH  17  20
ENDBRANCH  15  16
ENDBRANCH  14  15
ENDBRANCH   7  14
BRANCH   1  28
HETATM   28  C   UNL     1     -40.770  54.689 -49.781  1.00  0.00     0.273 C 
BRANCH  28  29
HETATM   29  C   UNL     1     -40.541  53.847 -51.006  1.00  0.00    -0.030 A 
HETATM   30  C   UNL     1     -40.738  54.392 -52.297  1.00  0.00     0.012 A 
HETATM   31  C   UNL     1     -40.550  53.613 -53.443  1.00  0.00     0.040 A 
HETATM   32  C   UNL     1     -40.169  52.301 -53.274  1.00  0.00     0.105 A 
HETATM   33  C   UNL     1     -39.968  51.765 -52.026  1.00  0.00     0.105 A 
HETATM   34  O   UNL     1     -39.956  51.399 -54.267  1.00  0.00    -0.323 OA
HETATM   35  C   UNL     1     -40.142  52.505 -50.875  1.00  0.00     0.048 A 
HETATM   36  O   UNL     1     -39.603  50.457 -52.075  1.00  0.00    -0.323 OA
HETATM   37  C   UNL     1     -39.630  50.218 -53.502  1.00  0.00     0.352 A 
ENDBRANCH  28  29
ENDBRANCH   1  28
TORSDOF 6
ENDMDL
MODEL 8
REMARK VINA RESULT:      -8.9      5.046      7.307
REMARK  6 active torsions:
REMARK  status: ('A' for Active; 'I' for Inactive)
REMARK    1  A    between atoms: C_2  and  C_3 
REMARK    2  A    between atoms: C_3  and  N_4 
REMARK    3  A    between atoms: C_10  and  S_11 
REMARK    4  A    between atoms: S_11  and  C_12 
REMARK    5  A    between atoms: C_12  and  C_13 
REMARK       I    between atoms: C_13  and  N_14 
REMARK    6  A    between atoms: N_14  and  C_15 
ROOT
HETATM    1  N   UNL     1     -41.343  56.460 -52.768  1.00  0.00    -0.063 N 
HETATM    2  H   UNL     1     -40.845  56.156 -53.614  1.00  0.00     0.280 HD
HETATM    3  C   UNL     1     -42.773  56.769 -53.198  1.00  0.00     0.281 C 
HETATM    4  C   UNL     1     -42.928  58.111 -53.826  1.00  0.00     0.060 A 
HETATM    5  C   UNL     1     -41.972  59.049 -53.889  1.00  0.00     0.052 A 
HETATM    6  N   UNL     1     -42.155  60.292 -54.435  1.00  0.00    -0.228 NA
HETATM    7  C   UNL     1     -43.317  60.560 -54.932  1.00  0.00     0.169 A 
HETATM    8  N   UNL     1     -44.353  59.680 -54.950  1.00  0.00    -0.302 N 
HETATM    9  C   UNL     1     -44.247  58.439 -54.401  1.00  0.00     0.257 A 
HETATM   10  O   UNL     1     -45.163  57.630 -54.353  1.00  0.00    -0.267 OA
HETATM   11  C   UNL     1     -40.613  58.792 -53.293  1.00  0.00     0.088 C 
HETATM   12  C   UNL     1     -40.637  57.689 -52.235  1.00  0.00     0.241 C 
HETATM   13  H   UNL     1     -45.237  59.958 -55.352  1.00  0.00     0.171 HD
ENDROOT
BRANCH   7  14
HETATM   14  S   UNL     1     -43.709  62.099 -55.633  1.00  0.00    -0.083 SA
BRANCH  14  15
HETATM   15  C   UNL     1     -42.648  62.024 -57.111  1.00  0.00     0.185 C 
BRANCH  15  16
HETATM   16  C   UNL     1     -42.924  60.833 -58.012  1.00  0.00     0.232 C 
HETATM   17  N   UNL     1     -42.053  59.769 -57.863  1.00  0.00    -0.324 N 
HETATM   18  H   UNL     1     -41.125  60.012 -57.533  1.00  0.00     0.169 HD
HETATM   19  O   UNL     1     -43.891  60.858 -58.770  1.00  0.00    -0.272 OA
BRANCH  17  20
HETATM   20  C   UNL     1     -42.230  58.479 -58.412  1.00  0.00     0.076 A 
HETATM   21  C   UNL     1     -42.002  58.160 -59.761  1.00  0.00     0.143 A 
HETATM   22  F   UNL     1     -41.694  59.108 -60.657  1.00  0.00    -0.204 F 
HETATM   23  C   UNL     1     -42.196  56.864 -60.239  1.00  0.00     0.047 A 
HETATM   24  C   UNL     1     -42.638  55.865 -59.375  1.00  0.00     0.045 A 
HETATM   25  C   UNL     1     -42.898  56.185 -58.048  1.00  0.00     0.118 A 
HETATM   26  F   UNL     1     -43.339  55.231 -57.216  1.00  0.00    -0.206 F 
HETATM   27  C   UNL     1     -42.711  57.478 -57.562  1.00  0.00     0.074 A 
ENDBRANCH  17  20
ENDBRANCH  15  16
ENDBRANCH  14  15
ENDBRANCH   7  14
BRANCH   1  28
HETATM   28  C   UNL     1     -41.263  55.316 -51.784  1.00  0.00     0.273 C 
BRANCH  28  29
HETATM   29  C   UNL     1     -40.792  54.024 -52.393  1.00  0.00    -0.030 A 
HETATM   30  C   UNL     1     -40.729  53.876 -53.800  1.00  0.00     0.012 A 
HETATM   31  C   UNL     1     -40.314  52.673 -54.379  1.00  0.00     0.040 A 
HETATM   32  C   UNL     1     -39.970  51.639 -53.537  1.00  0.00     0.105 A 
HETATM   33  C   UNL     1     -40.020  51.774 -52.172  1.00  0.00     0.105 A 
HETATM   34  O   UNL     1     -39.561  50.402 -53.921  1.00  0.00    -0.323 OA
HETATM   35  C   UNL     1     -40.422  52.948 -51.568  1.00  0.00     0.048 A 
HETATM   36  O   UNL     1     -39.648  50.640 -51.523  1.00  0.00    -0.323 OA
HETATM   37  C   UNL     1     -39.390  49.757 -52.640  1.00  0.00     0.352 A 
ENDBRANCH  28  29
ENDBRANCH   1  28
TORSDOF 6
ENDMDL
MODEL 9
REMARK VINA RESULT:      -8.9      4.927      7.178
REMARK  6 active torsions:
REMARK  status: ('A' for Active; 'I' for Inactive)
REMARK    1  A    between atoms: C_2  and  C_3 
REMARK    2  A    between atoms: C_3  and  N_4 
REMARK    3  A    between atoms: C_10  and  S_11 
REMARK    4  A    between atoms: S_11  and  C_12 
REMARK    5  A    between atoms: C_12  and  C_13 
REMARK       I    between atoms: C_13  and  N_14 
REMARK    6  A    between atoms: N_14  and  C_15 
ROOT
HETATM    1  N   UNL     1     -41.483  55.098 -54.303  1.00  0.00    -0.063 N 
HETATM    2  H   UNL     1     -41.831  54.858 -53.367  1.00  0.00     0.280 HD
HETATM    3  C   UNL     1     -41.047  56.558 -54.238  1.00  0.00     0.281 C 
HETATM    4  C   UNL     1     -42.175  57.522 -54.363  1.00  0.00     0.060 A 
HETATM    5  C   UNL     1     -43.441  57.193 -54.660  1.00  0.00     0.052 A 
HETATM    6  N   UNL     1     -44.453  58.105 -54.810  1.00  0.00    -0.228 NA
HETATM    7  C   UNL     1     -44.162  59.352 -54.638  1.00  0.00     0.169 A 
HETATM    8  N   UNL     1     -42.921  59.801 -54.311  1.00  0.00    -0.302 N 
HETATM    9  C   UNL     1     -41.867  58.952 -54.171  1.00  0.00     0.257 A 
HETATM   10  O   UNL     1     -40.725  59.312 -53.921  1.00  0.00    -0.267 OA
HETATM   11  C   UNL     1     -43.818  55.755 -54.900  1.00  0.00     0.088 C 
HETATM   12  C   UNL     1     -42.617  54.892 -55.284  1.00  0.00     0.241 C 
HETATM   13  H   UNL     1     -42.764  60.792 -54.195  1.00  0.00     0.171 HD
ENDROOT
BRANCH   7  14
HETATM   14  S   UNL     1     -45.328  60.625 -54.822  1.00  0.00    -0.083 SA
BRANCH  14  15
HETATM   15  C   UNL     1     -45.321  60.765 -56.637  1.00  0.00     0.185 C 
BRANCH  15  16
HETATM   16  C   UNL     1     -45.654  59.472 -57.360  1.00  0.00     0.232 C 
HETATM   17  N   UNL     1     -44.624  58.939 -58.113  1.00  0.00    -0.324 N 
HETATM   18  H   UNL     1     -43.949  59.610 -58.461  1.00  0.00     0.169 HD
HETATM   19  O   UNL     1     -46.764  58.965 -57.214  1.00  0.00    -0.272 OA
BRANCH  17  20
HETATM   20  C   UNL     1     -44.609  57.647 -58.686  1.00  0.00     0.076 A 
HETATM   21  C   UNL     1     -43.587  56.706 -58.480  1.00  0.00     0.143 A 
HETATM   22  F   UNL     1     -42.481  57.021 -57.791  1.00  0.00    -0.204 F 
HETATM   23  C   UNL     1     -43.633  55.446 -59.077  1.00  0.00     0.047 A 
HETATM   24  C   UNL     1     -44.701  55.110 -59.905  1.00  0.00     0.045 A 
HETATM   25  C   UNL     1     -45.697  56.051 -60.139  1.00  0.00     0.118 A 
HETATM   26  F   UNL     1     -46.718  55.739 -60.949  1.00  0.00    -0.206 F 
HETATM   27  C   UNL     1     -45.657  57.314 -59.551  1.00  0.00     0.074 A 
ENDBRANCH  17  20
ENDBRANCH  15  16
ENDBRANCH  14  15
ENDBRANCH   7  14
BRANCH   1  28
HETATM   28  C   UNL     1     -40.335  54.157 -54.590  1.00  0.00     0.273 C 
BRANCH  28  29
HETATM   29  C   UNL     1     -40.164  53.076 -53.560  1.00  0.00    -0.030 A 
HETATM   30  C   UNL     1     -40.201  53.390 -52.180  1.00  0.00     0.012 A 
HETATM   31  C   UNL     1     -40.022  52.397 -51.211  1.00  0.00     0.040 A 
HETATM   32  C   UNL     1     -39.806  51.107 -51.644  1.00  0.00     0.105 A 
HETATM   33  C   UNL     1     -39.775  50.792 -52.980  1.00  0.00     0.105 A 
HETATM   34  O   UNL     1     -39.598  50.025 -50.850  1.00  0.00    -0.323 OA
HETATM   35  C   UNL     1     -39.952  51.745 -53.961  1.00  0.00     0.048 A 
HETATM   36  O   UNL     1     -39.545  49.470 -53.196  1.00  0.00    -0.323 OA
HETATM   37  C   UNL     1     -39.398  48.991 -51.838  1.00  0.00     0.352 A 
ENDBRANCH  28  29
ENDBRANCH   1  28
TORSDOF 6
ENDMDL
MODEL 10
REMARK VINA RESULT:      -8.8      4.987      7.752
REMARK  6 active torsions:
REMARK  status: ('A' for Active; 'I' for Inactive)
REMARK    1  A    between atoms: C_2  and  C_3 
REMARK    2  A    between atoms: C_3  and  N_4 
REMARK    3  A    between atoms: C_10  and  S_11 
REMARK    4  A    between atoms: S_11  and  C_12 
REMARK    5  A    between atoms: C_12  and  C_13 
REMARK       I    between atoms: C_13  and  N_14 
REMARK    6  A    between atoms: N_14  and  C_15 
ROOT
HETATM    1  N   UNL     1     -43.314  56.034 -56.525  1.00  0.00    -0.063 N 
HETATM    2  H   UNL     1     -43.998  55.299 -56.741  1.00  0.00     0.280 HD
HETATM    3  C   UNL     1     -41.989  55.326 -56.265  1.00  0.00     0.281 C 
HETATM    4  C   UNL     1     -41.878  54.757 -54.892  1.00  0.00     0.060 A 
HETATM    5  C   UNL     1     -42.760  54.955 -53.902  1.00  0.00     0.052 A 
HETATM    6  N   UNL     1     -42.611  54.454 -52.635  1.00  0.00    -0.228 NA
HETATM    7  C   UNL     1     -41.565  53.736 -52.397  1.00  0.00     0.169 A 
HETATM    8  N   UNL     1     -40.617  53.447 -53.328  1.00  0.00    -0.302 N 
HETATM    9  C   UNL     1     -40.690  53.933 -54.597  1.00  0.00     0.257 A 
HETATM   10  O   UNL     1     -39.842  53.737 -55.455  1.00  0.00    -0.267 OA
HETATM   11  C   UNL     1     -43.978  55.812 -54.126  1.00  0.00     0.088 C 
HETATM   12  C   UNL     1     -43.807  56.775 -55.300  1.00  0.00     0.241 C 
HETATM   13  H   UNL     1     -39.821  52.881 -53.070  1.00  0.00     0.171 HD
ENDROOT
BRANCH   7  14
HETATM   14  S   UNL     1     -41.225  53.056 -50.835  1.00  0.00    -0.083 SA
BRANCH  14  15
HETATM   15  C   UNL     1     -40.096  54.336 -50.201  1.00  0.00     0.185 C 
BRANCH  15  16
HETATM   16  C   UNL     1     -40.775  55.654 -49.872  1.00  0.00     0.232 C 
HETATM   17  N   UNL     1     -40.753  56.595 -50.884  1.00  0.00    -0.324 N 
HETATM   18  H   UNL     1     -39.975  56.518 -51.530  1.00  0.00     0.169 HD
HETATM   19  O   UNL     1     -41.322  55.797 -48.780  1.00  0.00    -0.272 OA
BRANCH  17  20
HETATM   20  C   UNL     1     -41.500  57.794 -50.908  1.00  0.00     0.076 A 
HETATM   21  C   UNL     1     -40.995  59.044 -50.516  1.00  0.00     0.143 A 
HETATM   22  F   UNL     1     -39.771  59.163 -49.982  1.00  0.00    -0.204 F 
HETATM   23  C   UNL     1     -41.788  60.192 -50.563  1.00  0.00     0.047 A 
HETATM   24  C   UNL     1     -43.110  60.103 -50.993  1.00  0.00     0.045 A 
HETATM   25  C   UNL     1     -43.624  58.862 -51.349  1.00  0.00     0.118 A 
HETATM   26  F   UNL     1     -44.900  58.768 -51.746  1.00  0.00    -0.206 F 
HETATM   27  C   UNL     1     -42.841  57.709 -51.300  1.00  0.00     0.074 A 
ENDBRANCH  17  20
ENDBRANCH  15  16
ENDBRANCH  14  15
ENDBRANCH   7  14
BRANCH   1  28
HETATM   28  C   UNL     1     -43.264  56.945 -57.730  1.00  0.00     0.273 C 
BRANCH  28  29
HETATM   29  C   UNL     1     -44.252  56.585 -58.805  1.00  0.00    -0.030 A 
HETATM   30  C   UNL     1     -44.046  55.441 -59.613  1.00  0.00     0.012 A 
HETATM   31  C   UNL     1     -44.946  55.108 -60.630  1.00  0.00     0.040 A 
HETATM   32  C   UNL     1     -46.036  55.928 -60.820  1.00  0.00     0.105 A 
HETATM   33  C   UNL     1     -46.248  57.036 -60.037  1.00  0.00     0.105 A 
HETATM   34  O   UNL     1     -46.999  55.768 -61.764  1.00  0.00    -0.323 OA
HETATM   35  C   UNL     1     -45.382  57.392 -59.023  1.00  0.00     0.048 A 
HETATM   36  O   UNL     1     -47.372  57.713 -60.388  1.00  0.00    -0.323 OA
HETATM   37  C   UNL     1     -47.829  56.923 -61.511  1.00  0.00     0.352 A 
ENDBRANCH  28  29
ENDBRANCH   1  28
TORSDOF 6
ENDMDL
