MODEL 1
REMARK VINA RESULT:      -7.9      0.000      0.000
REMARK  5 active torsions:
REMARK  status: ('A' for Active; 'I' for Inactive)
REMARK    1  A    between atoms: C_2  and  N_3 
REMARK       I    between atoms: N_3  and  C_4 
REMARK    2  A    between atoms: C_4  and  C_5 
REMARK    3  A    between atoms: C_5  and  N_6 
REMARK    4  A    between atoms: N_6  and  C_7 
REMARK    5  A    between atoms: C_11  and  C_12 
ROOT
HETATM    1  C   UNL     1     -41.249  55.275 -52.005  1.00  0.00     0.022 A 
HETATM    2  C   UNL     1     -40.850  54.002 -52.514  1.00  0.00     0.012 A 
HETATM    3  C   UNL     1     -40.176  53.101 -51.652  1.00  0.00     0.044 A 
HETATM    4  C   UNL     1     -39.785  51.824 -52.089  1.00  0.00     0.046 A 
HETATM    5  C   UNL     1     -40.040  51.405 -53.403  1.00  0.00     0.050 A 
HETATM    6  C   UNL     1     -40.687  52.290 -54.272  1.00  0.00     0.017 A 
HETATM    7  C   UNL     1     -41.080  53.561 -53.838  1.00  0.00     0.016 A 
HETATM    8  N   UNL     1     -39.896  53.480 -50.391  1.00  0.00    -0.365 N 
HETATM    9  H   UNL     1     -39.406  52.826 -49.781  1.00  0.00     0.165 HD
HETATM   10  C   UNL     1     -40.209  54.685 -49.906  1.00  0.00     0.090 A 
HETATM   11  C   UNL     1     -40.875  55.606 -50.699  1.00  0.00     0.041 A 
ENDROOT
BRANCH   1  12
HETATM   12  N   UNL     1     -41.865  56.215 -52.850  1.00  0.00    -0.283 NA
HETATM   13  H   UNL     1     -42.576  56.766 -52.366  1.00  0.00     0.128 HD
BRANCH  12  14
HETATM   14  C   UNL     1     -41.038  57.122 -53.682  1.00  0.00     0.195 C 
BRANCH  14  15
HETATM   15  C   UNL     1     -40.931  58.507 -53.036  1.00  0.00     0.230 C 
HETATM   16  N   UNL     1     -42.027  58.848 -52.271  1.00  0.00    -0.360 N 
HETATM   17  H   UNL     1     -42.752  58.150 -52.143  1.00  0.00     0.162 HD
HETATM   18  O   UNL     1     -39.971  59.245 -53.227  1.00  0.00    -0.272 OA
BRANCH  16  19
HETATM   19  C   UNL     1     -42.137  60.124 -51.595  1.00  0.00     0.118 C 
HETATM   20  C   UNL     1     -41.483  60.088 -50.226  1.00  0.00     0.026 C 
ENDBRANCH  16  19
ENDBRANCH  14  15
ENDBRANCH  12  14
ENDBRANCH   1  12
BRANCH   5  21
HETATM   21  C   UNL     1     -39.629  50.028 -53.886  1.00  0.00     0.417 C 
HETATM   22  F   UNL     1     -39.478  49.146 -52.862  1.00  0.00    -0.166 F 
HETATM   23  F   UNL     1     -40.545  49.485 -54.726  1.00  0.00    -0.166 F 
HETATM   24  F   UNL     1     -38.447  50.048 -54.552  1.00  0.00    -0.166 F 
ENDBRANCH   5  21
TORSDOF 5
ENDMDL
MODEL 2
REMARK VINA RESULT:      -7.7      2.054      2.774
REMARK  5 active torsions:
REMARK  status: ('A' for Active; 'I' for Inactive)
REMARK    1  A    between atoms: C_2  and  N_3 
REMARK       I    between atoms: N_3  and  C_4 
REMARK    2  A    between atoms: C_4  and  C_5 
REMARK    3  A    between atoms: C_5  and  N_6 
REMARK    4  A    between atoms: N_6  and  C_7 
REMARK    5  A    between atoms: C_11  and  C_12 
ROOT
HETATM    1  C   UNL     1     -41.114  55.228 -51.608  1.00  0.00     0.022 A 
HETATM    2  C   UNL     1     -40.755  53.981 -52.203  1.00  0.00     0.012 A 
HETATM    3  C   UNL     1     -40.171  52.977 -51.390  1.00  0.00     0.044 A 
HETATM    4  C   UNL     1     -39.824  51.720 -51.915  1.00  0.00     0.046 A 
HETATM    5  C   UNL     1     -40.033  51.425 -53.270  1.00  0.00     0.050 A 
HETATM    6  C   UNL     1     -40.589  52.412 -54.090  1.00  0.00     0.017 A 
HETATM    7  C   UNL     1     -40.939  53.663 -53.569  1.00  0.00     0.016 A 
HETATM    8  N   UNL     1     -39.937  53.236 -50.090  1.00  0.00    -0.365 N 
HETATM    9  H   UNL     1     -39.512  52.508 -49.515  1.00  0.00     0.165 HD
HETATM   10  C   UNL     1     -40.213  54.413 -49.520  1.00  0.00     0.090 A 
HETATM   11  C   UNL     1     -40.791  55.430 -50.263  1.00  0.00     0.041 A 
ENDROOT
BRANCH   1  12
HETATM   12  N   UNL     1     -41.638  56.266 -52.398  1.00  0.00    -0.283 NA
HETATM   13  H   UNL     1     -41.271  56.252 -53.351  1.00  0.00     0.128 HD
BRANCH  12  14
HETATM   14  C   UNL     1     -43.103  56.493 -52.450  1.00  0.00     0.195 C 
BRANCH  14  15
HETATM   15  C   UNL     1     -43.576  56.662 -53.899  1.00  0.00     0.230 C 
HETATM   16  N   UNL     1     -42.552  56.638 -54.823  1.00  0.00    -0.360 N 
HETATM   17  H   UNL     1     -41.615  56.443 -54.486  1.00  0.00     0.162 HD
HETATM   18  O   UNL     1     -44.754  56.841 -54.185  1.00  0.00    -0.272 OA
BRANCH  16  19
HETATM   19  C   UNL     1     -42.781  56.806 -56.242  1.00  0.00     0.118 C 
HETATM   20  C   UNL     1     -42.869  55.469 -56.955  1.00  0.00     0.026 C 
ENDBRANCH  16  19
ENDBRANCH  14  15
ENDBRANCH  12  14
ENDBRANCH   1  12
BRANCH   5  21
HETATM   21  C   UNL     1     -39.668  50.072 -53.848  1.00  0.00     0.417 C 
HETATM   22  F   UNL     1     -39.439  49.143 -52.882  1.00  0.00    -0.166 F 
HETATM   23  F   UNL     1     -40.650  49.569 -54.636  1.00  0.00    -0.166 F 
HETATM   24  F   UNL     1     -38.542  50.122 -54.605  1.00  0.00    -0.166 F 
ENDBRANCH   5  21
TORSDOF 5
ENDMDL
MODEL 3
REMARK VINA RESULT:      -7.4      1.737      2.071
REMARK  5 active torsions:
REMARK  status: ('A' for Active; 'I' for Inactive)
REMARK    1  A    between atoms: C_2  and  N_3 
REMARK       I    between atoms: N_3  and  C_4 
REMARK    2  A    between atoms: C_4  and  C_5 
REMARK    3  A    between atoms: C_5  and  N_6 
REMARK    4  A    between atoms: N_6  and  C_7 
REMARK    5  A    between atoms: C_11  and  C_12 
ROOT
HETATM    1  C   UNL     1     -41.174  55.211 -51.491  1.00  0.00     0.022 A 
HETATM    2  C   UNL     1     -40.822  53.979 -52.120  1.00  0.00     0.012 A 
HETATM    3  C   UNL     1     -40.105  53.009 -51.374  1.00  0.00     0.044 A 
HETATM    4  C   UNL     1     -39.757  51.767 -51.933  1.00  0.00     0.046 A 
HETATM    5  C   UNL     1     -40.100  51.453 -53.256  1.00  0.00     0.050 A 
HETATM    6  C   UNL     1     -40.790  52.406 -54.011  1.00  0.00     0.017 A 
HETATM    7  C   UNL     1     -41.140  53.643 -53.456  1.00  0.00     0.016 A 
HETATM    8  N   UNL     1     -39.742  53.288 -50.109  1.00  0.00    -0.365 N 
HETATM    9  H   UNL     1     -39.222  52.585 -49.583  1.00  0.00     0.165 HD
HETATM   10  C   UNL     1     -40.010  54.454 -49.514  1.00  0.00     0.090 A 
HETATM   11  C   UNL     1     -40.714  55.437 -50.189  1.00  0.00     0.041 A 
ENDROOT
BRANCH   1  12
HETATM   12  N   UNL     1     -41.831  56.217 -52.220  1.00  0.00    -0.283 NA
HETATM   13  H   UNL     1     -41.648  56.153 -53.222  1.00  0.00     0.128 HD
BRANCH  12  14
HETATM   14  C   UNL     1     -43.279  56.463 -52.009  1.00  0.00     0.195 C 
BRANCH  14  15
HETATM   15  C   UNL     1     -43.517  57.878 -51.470  1.00  0.00     0.230 C 
HETATM   16  N   UNL     1     -44.796  58.083 -50.996  1.00  0.00    -0.360 N 
HETATM   17  H   UNL     1     -45.426  57.288 -50.973  1.00  0.00     0.162 HD
HETATM   18  O   UNL     1     -42.651  58.745 -51.506  1.00  0.00    -0.272 OA
BRANCH  16  19
HETATM   19  C   UNL     1     -45.234  59.357 -50.467  1.00  0.00     0.118 C 
HETATM   20  C   UNL     1     -46.264  60.012 -51.368  1.00  0.00     0.026 C 
ENDBRANCH  16  19
ENDBRANCH  14  15
ENDBRANCH  12  14
ENDBRANCH   1  12
BRANCH   5  21
HETATM   21  C   UNL     1     -39.736  50.115 -53.869  1.00  0.00     0.417 C 
HETATM   22  F   UNL     1     -38.590  50.176 -54.599  1.00  0.00    -0.166 F 
HETATM   23  F   UNL     1     -39.540  49.157 -52.929  1.00  0.00    -0.166 F 
HETATM   24  F   UNL     1     -40.699  49.653 -54.707  1.00  0.00    -0.166 F 
ENDBRANCH   5  21
TORSDOF 5
ENDMDL
MODEL 4
REMARK VINA RESULT:      -7.4     13.960     15.152
REMARK  5 active torsions:
REMARK  status: ('A' for Active; 'I' for Inactive)
REMARK    1  A    between atoms: C_2  and  N_3 
REMARK       I    between atoms: N_3  and  C_4 
REMARK    2  A    between atoms: C_4  and  C_5 
REMARK    3  A    between atoms: C_5  and  N_6 
REMARK    4  A    between atoms: N_6  and  C_7 
REMARK    5  A    between atoms: C_11  and  C_12 
ROOT
HETATM    1  C   UNL     1     -36.251  42.115 -53.123  1.00  0.00     0.022 A 
HETATM    2  C   UNL     1     -36.405  41.993 -54.537  1.00  0.00     0.012 A 
HETATM    3  C   UNL     1     -37.627  41.489 -55.052  1.00  0.00     0.044 A 
HETATM    4  C   UNL     1     -37.845  41.374 -56.436  1.00  0.00     0.046 A 
HETATM    5  C   UNL     1     -36.851  41.744 -57.353  1.00  0.00     0.050 A 
HETATM    6  C   UNL     1     -35.634  42.225 -56.861  1.00  0.00     0.017 A 
HETATM    7  C   UNL     1     -35.415  42.343 -55.483  1.00  0.00     0.016 A 
HETATM    8  N   UNL     1     -38.592  41.104 -54.197  1.00  0.00    -0.365 N 
HETATM    9  H   UNL     1     -39.466  40.738 -54.578  1.00  0.00     0.165 HD
HETATM   10  C   UNL     1     -38.454  41.156 -52.869  1.00  0.00     0.090 A 
HETATM   11  C   UNL     1     -37.286  41.646 -52.307  1.00  0.00     0.041 A 
ENDROOT
BRANCH   1  12
HETATM   12  N   UNL     1     -35.032  42.553 -52.578  1.00  0.00    -0.283 NA
HETATM   13  H   UNL     1     -35.101  43.489 -52.175  1.00  0.00     0.128 HD
BRANCH  12  14
HETATM   14  C   UNL     1     -34.279  41.682 -51.644  1.00  0.00     0.195 C 
BRANCH  14  15
HETATM   15  C   UNL     1     -33.649  40.500 -52.391  1.00  0.00     0.230 C 
HETATM   16  N   UNL     1     -32.719  40.876 -53.339  1.00  0.00    -0.360 N 
HETATM   17  H   UNL     1     -32.483  41.860 -53.406  1.00  0.00     0.162 HD
HETATM   18  O   UNL     1     -33.985  39.341 -52.180  1.00  0.00    -0.272 OA
BRANCH  16  19
HETATM   19  C   UNL     1     -32.027  39.915 -54.171  1.00  0.00     0.118 C 
HETATM   20  C   UNL     1     -32.371  40.097 -55.638  1.00  0.00     0.026 C 
ENDBRANCH  16  19
ENDBRANCH  14  15
ENDBRANCH  12  14
ENDBRANCH   1  12
BRANCH   5  21
HETATM   21  C   UNL     1     -37.077  41.631 -58.848  1.00  0.00     0.417 C 
HETATM   22  F   UNL     1     -36.967  42.831 -59.479  1.00  0.00    -0.166 F 
HETATM   23  F   UNL     1     -36.179  40.804 -59.440  1.00  0.00    -0.166 F 
HETATM   24  F   UNL     1     -38.311  41.153 -59.148  1.00  0.00    -0.166 F 
ENDBRANCH   5  21
TORSDOF 5
ENDMDL
MODEL 5
REMARK VINA RESULT:      -7.4      4.457      5.640
REMARK  5 active torsions:
REMARK  status: ('A' for Active; 'I' for Inactive)
REMARK    1  A    between atoms: C_2  and  N_3 
REMARK       I    between atoms: N_3  and  C_4 
REMARK    2  A    between atoms: C_4  and  C_5 
REMARK    3  A    between atoms: C_5  and  N_6 
REMARK    4  A    between atoms: N_6  and  C_7 
REMARK    5  A    between atoms: C_11  and  C_12 
ROOT
HETATM    1  C   UNL     1     -43.296  55.468 -55.253  1.00  0.00     0.022 A 
HETATM    2  C   UNL     1     -42.426  54.775 -54.359  1.00  0.00     0.012 A 
HETATM    3  C   UNL     1     -42.439  55.122 -52.984  1.00  0.00     0.044 A 
HETATM    4  C   UNL     1     -41.625  54.454 -52.053  1.00  0.00     0.046 A 
HETATM    5  C   UNL     1     -40.762  53.426 -52.460  1.00  0.00     0.050 A 
HETATM    6  C   UNL     1     -40.723  53.085 -53.815  1.00  0.00     0.017 A 
HETATM    7  C   UNL     1     -41.535  53.747 -54.744  1.00  0.00     0.016 A 
HETATM    8  N   UNL     1     -43.240  56.119 -52.564  1.00  0.00    -0.365 N 
HETATM    9  H   UNL     1     -43.237  56.365 -51.574  1.00  0.00     0.165 HD
HETATM   10  C   UNL     1     -44.023  56.821 -53.388  1.00  0.00     0.090 A 
HETATM   11  C   UNL     1     -44.059  56.523 -54.741  1.00  0.00     0.041 A 
ENDROOT
BRANCH   1  12
HETATM   12  N   UNL     1     -43.265  55.190 -56.631  1.00  0.00    -0.283 NA
HETATM   13  H   UNL     1     -44.107  54.708 -56.949  1.00  0.00     0.128 HD
BRANCH  12  14
HETATM   14  C   UNL     1     -42.929  56.262 -57.599  1.00  0.00     0.195 C 
BRANCH  14  15
HETATM   15  C   UNL     1     -43.485  55.934 -58.989  1.00  0.00     0.230 C 
HETATM   16  N   UNL     1     -44.863  55.874 -59.035  1.00  0.00    -0.360 N 
HETATM   17  H   UNL     1     -45.376  56.118 -58.194  1.00  0.00     0.162 HD
HETATM   18  O   UNL     1     -42.756  55.708 -59.948  1.00  0.00    -0.272 OA
BRANCH  16  19
HETATM   19  C   UNL     1     -45.587  55.554 -60.247  1.00  0.00     0.118 C 
HETATM   20  C   UNL     1     -46.933  56.252 -60.294  1.00  0.00     0.026 C 
ENDBRANCH  16  19
ENDBRANCH  14  15
ENDBRANCH  12  14
ENDBRANCH   1  12
BRANCH   5  21
HETATM   21  C   UNL     1     -39.884  52.694 -51.465  1.00  0.00     0.417 C 
HETATM   22  F   UNL     1     -40.608  51.946 -50.590  1.00  0.00    -0.166 F 
HETATM   23  F   UNL     1     -39.021  51.841 -52.073  1.00  0.00    -0.166 F 
HETATM   24  F   UNL     1     -39.136  53.543 -50.716  1.00  0.00    -0.166 F 
ENDBRANCH   5  21
TORSDOF 5
ENDMDL
MODEL 6
REMARK VINA RESULT:      -7.3      2.137      3.700
REMARK  5 active torsions:
REMARK  status: ('A' for Active; 'I' for Inactive)
REMARK    1  A    between atoms: C_2  and  N_3 
REMARK       I    between atoms: N_3  and  C_4 
REMARK    2  A    between atoms: C_4  and  C_5 
REMARK    3  A    between atoms: C_5  and  N_6 
REMARK    4  A    between atoms: N_6  and  C_7 
REMARK    5  A    between atoms: C_11  and  C_12 
ROOT
HETATM    1  C   UNL     1     -41.252  56.076 -53.504  1.00  0.00     0.022 A 
HETATM    2  C   UNL     1     -40.943  54.683 -53.564  1.00  0.00     0.012 A 
HETATM    3  C   UNL     1     -41.069  54.006 -54.804  1.00  0.00     0.044 A 
HETATM    4  C   UNL     1     -40.752  52.642 -54.928  1.00  0.00     0.046 A 
HETATM    5  C   UNL     1     -40.310  51.903 -53.821  1.00  0.00     0.050 A 
HETATM    6  C   UNL     1     -40.198  52.552 -52.588  1.00  0.00     0.017 A 
HETATM    7  C   UNL     1     -40.511  53.910 -52.461  1.00  0.00     0.016 A 
HETATM    8  N   UNL     1     -41.513  54.681 -55.880  1.00  0.00    -0.365 N 
HETATM    9  H   UNL     1     -41.605  54.183 -56.766  1.00  0.00     0.165 HD
HETATM   10  C   UNL     1     -41.861  55.970 -55.840  1.00  0.00     0.090 A 
HETATM   11  C   UNL     1     -41.751  56.686 -54.659  1.00  0.00     0.041 A 
ENDROOT
BRANCH   1  12
HETATM   12  N   UNL     1     -41.194  56.762 -52.279  1.00  0.00    -0.283 NA
HETATM   13  H   UNL     1     -40.775  57.689 -52.372  1.00  0.00     0.128 HD
BRANCH  12  14
HETATM   14  C   UNL     1     -42.404  56.865 -51.427  1.00  0.00     0.195 C 
BRANCH  14  15
HETATM   15  C   UNL     1     -42.407  55.769 -50.354  1.00  0.00     0.230 C 
HETATM   16  N   UNL     1     -41.279  55.768 -49.559  1.00  0.00    -0.360 N 
HETATM   17  H   UNL     1     -40.603  56.512 -49.696  1.00  0.00     0.162 HD
HETATM   18  O   UNL     1     -43.317  54.954 -50.256  1.00  0.00    -0.272 OA
BRANCH  16  19
HETATM   19  C   UNL     1     -41.074  54.800 -48.503  1.00  0.00     0.118 C 
HETATM   20  C   UNL     1     -39.947  53.840 -48.837  1.00  0.00     0.026 C 
ENDBRANCH  16  19
ENDBRANCH  14  15
ENDBRANCH  12  14
ENDBRANCH   1  12
BRANCH   5  21
HETATM   21  C   UNL     1     -39.958  50.434 -53.943  1.00  0.00     0.417 C 
HETATM   22  F   UNL     1     -39.802  49.838 -52.731  1.00  0.00    -0.166 F 
HETATM   23  F   UNL     1     -40.917  49.730 -54.595  1.00  0.00    -0.166 F 
HETATM   24  F   UNL     1     -38.797  50.237 -54.618  1.00  0.00    -0.166 F 
ENDBRANCH   5  21
TORSDOF 5
ENDMDL
MODEL 7
REMARK VINA RESULT:      -7.3      1.669      2.708
REMARK  5 active torsions:
REMARK  status: ('A' for Active; 'I' for Inactive)
REMARK    1  A    between atoms: C_2  and  N_3 
REMARK       I    between atoms: N_3  and  C_4 
REMARK    2  A    between atoms: C_4  and  C_5 
REMARK    3  A    between atoms: C_5  and  N_6 
REMARK    4  A    between atoms: N_6  and  C_7 
REMARK    5  A    between atoms: C_11  and  C_12 
ROOT
HETATM    1  C   UNL     1     -42.105  55.103 -52.635  1.00  0.00     0.022 A 
HETATM    2  C   UNL     1     -41.460  53.861 -52.921  1.00  0.00     0.012 A 
HETATM    3  C   UNL     1     -41.719  53.225 -54.162  1.00  0.00     0.044 A 
HETATM    4  C   UNL     1     -41.090  52.017 -54.509  1.00  0.00     0.046 A 
HETATM    5  C   UNL     1     -40.194  51.394 -53.628  1.00  0.00     0.050 A 
HETATM    6  C   UNL     1     -39.943  51.999 -52.393  1.00  0.00     0.017 A 
HETATM    7  C   UNL     1     -40.565  53.204 -52.045  1.00  0.00     0.016 A 
HETATM    8  N   UNL     1     -42.591  53.786 -55.019  1.00  0.00    -0.365 N 
HETATM    9  H   UNL     1     -42.774  53.317 -55.907  1.00  0.00     0.165 HD
HETATM   10  C   UNL     1     -43.250  54.917 -54.754  1.00  0.00     0.090 A 
HETATM   11  C   UNL     1     -43.033  55.588 -53.562  1.00  0.00     0.041 A 
ENDROOT
BRANCH   1  12
HETATM   12  N   UNL     1     -41.918  55.729 -51.390  1.00  0.00    -0.283 NA
HETATM   13  H   UNL     1     -40.938  55.955 -51.213  1.00  0.00     0.128 HD
BRANCH  12  14
HETATM   14  C   UNL     1     -42.757  56.891 -51.009  1.00  0.00     0.195 C 
BRANCH  14  15
HETATM   15  C   UNL     1     -41.997  58.205 -51.223  1.00  0.00     0.230 C 
HETATM   16  N   UNL     1     -41.180  58.551 -50.166  1.00  0.00    -0.360 N 
HETATM   17  H   UNL     1     -41.096  57.894 -49.397  1.00  0.00     0.162 HD
HETATM   18  O   UNL     1     -42.147  58.889 -52.228  1.00  0.00    -0.272 OA
BRANCH  16  19
HETATM   19  C   UNL     1     -40.395  59.767 -50.157  1.00  0.00     0.118 C 
HETATM   20  C   UNL     1     -38.963  59.511 -50.589  1.00  0.00     0.026 C 
ENDBRANCH  16  19
ENDBRANCH  14  15
ENDBRANCH  12  14
ENDBRANCH   1  12
BRANCH   5  21
HETATM   21  C   UNL     1     -39.505  50.094 -53.993  1.00  0.00     0.417 C 
HETATM   22  F   UNL     1     -38.241  50.292 -54.457  1.00  0.00    -0.166 F 
HETATM   23  F   UNL     1     -39.396  49.256 -52.932  1.00  0.00    -0.166 F 
HETATM   24  F   UNL     1     -40.167  49.416 -54.964  1.00  0.00    -0.166 F 
ENDBRANCH   5  21
TORSDOF 5
ENDMDL
MODEL 8
REMARK VINA RESULT:      -7.2      3.095      4.149
REMARK  5 active torsions:
REMARK  status: ('A' for Active; 'I' for Inactive)
REMARK    1  A    between atoms: C_2  and  N_3 
REMARK       I    between atoms: N_3  and  C_4 
REMARK    2  A    between atoms: C_4  and  C_5 
REMARK    3  A    between atoms: C_5  and  N_6 
REMARK    4  A    between atoms: N_6  and  C_7 
REMARK    5  A    between atoms: C_11  and  C_12 
ROOT
HETATM    1  C   UNL     1     -43.536  55.688 -53.303  1.00  0.00     0.022 A 
HETATM    2  C   UNL     1     -42.559  54.647 -53.303  1.00  0.00     0.012 A 
HETATM    3  C   UNL     1     -41.700  54.514 -52.182  1.00  0.00     0.044 A 
HETATM    4  C   UNL     1     -40.740  53.491 -52.114  1.00  0.00     0.046 A 
HETATM    5  C   UNL     1     -40.593  52.572 -53.163  1.00  0.00     0.050 A 
HETATM    6  C   UNL     1     -41.419  52.700 -54.283  1.00  0.00     0.017 A 
HETATM    7  C   UNL     1     -42.379  53.717 -54.353  1.00  0.00     0.016 A 
HETATM    8  N   UNL     1     -41.801  55.394 -51.168  1.00  0.00    -0.365 N 
HETATM    9  H   UNL     1     -41.174  55.293 -50.369  1.00  0.00     0.165 HD
HETATM   10  C   UNL     1     -42.668  56.410 -51.168  1.00  0.00     0.090 A 
HETATM   11  C   UNL     1     -43.538  56.586 -52.231  1.00  0.00     0.041 A 
ENDROOT
BRANCH   1  12
HETATM   12  N   UNL     1     -44.363  55.884 -54.424  1.00  0.00    -0.283 NA
HETATM   13  H   UNL     1     -45.355  55.817 -54.191  1.00  0.00     0.128 HD
BRANCH  12  14
HETATM   14  C   UNL     1     -44.153  57.057 -55.306  1.00  0.00     0.195 C 
BRANCH  14  15
HETATM   15  C   UNL     1     -43.238  56.696 -56.482  1.00  0.00     0.230 C 
HETATM   16  N   UNL     1     -43.919  56.288 -57.610  1.00  0.00    -0.360 N 
HETATM   17  H   UNL     1     -44.932  56.332 -57.593  1.00  0.00     0.162 HD
HETATM   18  O   UNL     1     -42.016  56.733 -56.394  1.00  0.00    -0.272 OA
BRANCH  16  19
HETATM   19  C   UNL     1     -43.241  55.880 -58.822  1.00  0.00     0.118 C 
HETATM   20  C   UNL     1     -44.112  54.972 -59.670  1.00  0.00     0.026 C 
ENDBRANCH  16  19
ENDBRANCH  14  15
ENDBRANCH  12  14
ENDBRANCH   1  12
BRANCH   5  21
HETATM   21  C   UNL     1     -39.565  51.460 -53.099  1.00  0.00     0.417 C 
HETATM   22  F   UNL     1     -38.970  51.376 -51.878  1.00  0.00    -0.166 F 
HETATM   23  F   UNL     1     -40.111  50.242 -53.341  1.00  0.00    -0.166 F 
HETATM   24  F   UNL     1     -38.565  51.630 -54.001  1.00  0.00    -0.166 F 
ENDBRANCH   5  21
TORSDOF 5
ENDMDL
MODEL 9
REMARK VINA RESULT:      -6.9      2.929      3.992
REMARK  5 active torsions:
REMARK  status: ('A' for Active; 'I' for Inactive)
REMARK    1  A    between atoms: C_2  and  N_3 
REMARK       I    between atoms: N_3  and  C_4 
REMARK    2  A    between atoms: C_4  and  C_5 
REMARK    3  A    between atoms: C_5  and  N_6 
REMARK    4  A    between atoms: N_6  and  C_7 
REMARK    5  A    between atoms: C_11  and  C_12 
ROOT
HETATM    1  C   UNL     1     -43.583  55.699 -54.694  1.00  0.00     0.022 A 
HETATM    2  C   UNL     1     -42.714  54.934 -53.859  1.00  0.00     0.012 A 
HETATM    3  C   UNL     1     -41.496  54.448 -54.400  1.00  0.00     0.044 A 
HETATM    4  C   UNL     1     -40.589  53.715 -53.617  1.00  0.00     0.046 A 
HETATM    5  C   UNL     1     -40.867  53.429 -52.272  1.00  0.00     0.050 A 
HETATM    6  C   UNL     1     -42.072  53.884 -51.729  1.00  0.00     0.017 A 
HETATM    7  C   UNL     1     -42.977  54.618 -52.506  1.00  0.00     0.016 A 
HETATM    8  N   UNL     1     -41.210  54.686 -55.693  1.00  0.00    -0.365 N 
HETATM    9  H   UNL     1     -40.333  54.328 -56.074  1.00  0.00     0.165 HD
HETATM   10  C   UNL     1     -42.030  55.352 -56.511  1.00  0.00     0.090 A 
HETATM   11  C   UNL     1     -43.230  55.857 -56.038  1.00  0.00     0.041 A 
ENDROOT
BRANCH   1  12
HETATM   12  N   UNL     1     -44.824  56.144 -54.207  1.00  0.00    -0.283 NA
HETATM   13  H   UNL     1     -45.168  55.568 -53.436  1.00  0.00     0.128 HD
BRANCH  12  14
HETATM   14  C   UNL     1     -45.019  57.574 -53.864  1.00  0.00     0.195 C 
BRANCH  14  15
HETATM   15  C   UNL     1     -44.476  57.876 -52.462  1.00  0.00     0.230 C 
HETATM   16  N   UNL     1     -43.172  58.324 -52.458  1.00  0.00    -0.360 N 
HETATM   17  H   UNL     1     -42.722  58.484 -53.353  1.00  0.00     0.162 HD
HETATM   18  O   UNL     1     -45.141  57.689 -51.450  1.00  0.00    -0.272 OA
BRANCH  16  19
HETATM   19  C   UNL     1     -42.463  58.641 -51.235  1.00  0.00     0.118 C 
HETATM   20  C   UNL     1     -41.357  57.642 -50.955  1.00  0.00     0.026 C 
ENDBRANCH  16  19
ENDBRANCH  14  15
ENDBRANCH  12  14
ENDBRANCH   1  12
BRANCH   5  21
HETATM   21  C   UNL     1     -39.895  52.644 -51.415  1.00  0.00     0.417 C 
HETATM   22  F   UNL     1     -39.086  51.840 -52.156  1.00  0.00    -0.166 F 
HETATM   23  F   UNL     1     -39.075  53.452 -50.698  1.00  0.00    -0.166 F 
HETATM   24  F   UNL     1     -40.527  51.836 -50.527  1.00  0.00    -0.166 F 
ENDBRANCH   5  21
TORSDOF 5
ENDMDL
MODEL 10
REMARK VINA RESULT:      -6.8      3.721      4.780
REMARK  5 active torsions:
REMARK  status: ('A' for Active; 'I' for Inactive)
REMARK    1  A    between atoms: C_2  and  N_3 
REMARK       I    between atoms: N_3  and  C_4 
REMARK    2  A    between atoms: C_4  and  C_5 
REMARK    3  A    between atoms: C_5  and  N_6 
REMARK    4  A    between atoms: N_6  and  C_7 
REMARK    5  A    between atoms: C_11  and  C_12 
ROOT
HETATM    1  C   UNL     1     -42.351  55.570 -55.279  1.00  0.00     0.022 A 
HETATM    2  C   UNL     1     -41.671  54.591 -54.494  1.00  0.00     0.012 A 
HETATM    3  C   UNL     1     -41.999  54.466 -53.119  1.00  0.00     0.044 A 
HETATM    4  C   UNL     1     -41.383  53.501 -52.305  1.00  0.00     0.046 A 
HETATM    5  C   UNL     1     -40.409  52.636 -52.826  1.00  0.00     0.050 A 
HETATM    6  C   UNL     1     -40.060  52.759 -54.174  1.00  0.00     0.017 A 
HETATM    7  C   UNL     1     -40.675  53.718 -54.989  1.00  0.00     0.016 A 
HETATM    8  N   UNL     1     -42.913  55.295 -52.583  1.00  0.00    -0.365 N 
HETATM    9  H   UNL     1     -43.139  55.200 -51.593  1.00  0.00     0.165 HD
HETATM   10  C   UNL     1     -43.525  56.256 -53.282  1.00  0.00     0.090 A 
HETATM   11  C   UNL     1     -43.251  56.422 -54.630  1.00  0.00     0.041 A 
ENDROOT
BRANCH   1  12
HETATM   12  N   UNL     1     -42.007  55.761 -56.628  1.00  0.00    -0.283 NA
HETATM   13  H   UNL     1     -41.206  55.192 -56.909  1.00  0.00     0.128 HD
BRANCH  12  14
HETATM   14  C   UNL     1     -43.049  55.678 -57.681  1.00  0.00     0.195 C 
BRANCH  14  15
HETATM   15  C   UNL     1     -43.244  57.037 -58.361  1.00  0.00     0.230 C 
HETATM   16  N   UNL     1     -42.066  57.720 -58.584  1.00  0.00    -0.360 N 
HETATM   17  H   UNL     1     -41.196  57.250 -58.357  1.00  0.00     0.162 HD
HETATM   18  O   UNL     1     -44.354  57.477 -58.636  1.00  0.00    -0.272 OA
BRANCH  16  19
HETATM   19  C   UNL     1     -42.031  59.033 -59.193  1.00  0.00     0.118 C 
HETATM   20  C   UNL     1     -41.934  58.945 -60.704  1.00  0.00     0.026 C 
ENDBRANCH  16  19
ENDBRANCH  14  15
ENDBRANCH  12  14
ENDBRANCH   1  12
BRANCH   5  21
HETATM   21  C   UNL     1     -39.741  51.587 -51.960  1.00  0.00     0.417 C 
HETATM   22  F   UNL     1     -39.849  50.337 -52.487  1.00  0.00    -0.166 F 
HETATM   23  F   UNL     1     -38.415  51.821 -51.802  1.00  0.00    -0.166 F 
HETATM   24  F   UNL     1     -40.281  51.526 -50.716  1.00  0.00    -0.166 F 
ENDBRANCH   5  21
TORSDOF 5
ENDMDL
