MODEL 1
REMARK VINA RESULT:      -8.7      0.000      0.000
REMARK  7 active torsions:
REMARK  status: ('A' for Active; 'I' for Inactive)
REMARK    1  A    between atoms: C_2  and  C_3 
REMARK    2  A    between atoms: C_3  and  C_4 
REMARK    3  A    between atoms: C_5  and  O_6 
REMARK    4  A    between atoms: O_6  and  C_7 
REMARK    5  A    between atoms: C_7  and  C_8 
REMARK       I    between atoms: C_8  and  N_9 
REMARK    6  A    between atoms: N_9  and  C_10 
REMARK    7  A    between atoms: C_17  and  C_18 
REMARK       I    between atoms: C_18  and  N_19 
ROOT
HETATM    1  C   UNL     1     -40.448  54.126 -49.092  1.00  0.00     0.246 C 
HETATM    2  N   UNL     1     -40.797  55.419 -49.372  1.00  0.00    -0.325 N 
HETATM    3  O   UNL     1     -39.840  53.921 -48.037  1.00  0.00    -0.271 OA
HETATM    4  H   UNL     1     -40.302  56.073 -48.774  1.00  0.00     0.169 HD
ENDROOT
BRANCH   2   5
HETATM    5  C   UNL     1     -41.726  55.966 -50.269  1.00  0.00     0.035 A 
HETATM    6  C   UNL     1     -41.398  56.962 -51.197  1.00  0.00     0.046 A 
HETATM    7  C   UNL     1     -42.384  57.424 -52.095  1.00  0.00     0.030 A 
HETATM    8  C   UNL     1     -43.658  56.870 -52.039  1.00  0.00     0.063 A 
HETATM    9  C   UNL     1     -42.439  58.370 -53.160  1.00  0.00     0.156 A 
HETATM   10  N   UNL     1     -44.375  57.516 -53.007  1.00  0.00    -0.277 N 
HETATM   11  C   UNL     1     -44.009  55.859 -51.144  1.00  0.00     0.034 A 
HETATM   12  H   UNL     1     -45.350  57.374 -53.246  1.00  0.00     0.189 HD
HETATM   13  N   UNL     1     -43.672  58.419 -53.711  1.00  0.00    -0.168 NA
HETATM   14  C   UNL     1     -43.009  55.405 -50.275  1.00  0.00     0.032 A 
BRANCH   9  15
HETATM   15  C   UNL     1     -41.340  59.211 -53.657  1.00  0.00     0.270 C 
HETATM   16  N   UNL     1     -41.732  60.179 -54.540  1.00  0.00    -0.365 N 
HETATM   17  H   UNL     1     -42.713  60.245 -54.786  1.00  0.00     0.159 HD
HETATM   18  H   UNL     1     -41.046  60.794 -54.947  1.00  0.00     0.159 HD
HETATM   19  O   UNL     1     -40.166  59.075 -53.332  1.00  0.00    -0.266 OA
ENDBRANCH   9  15
ENDBRANCH   2   5
BRANCH   1  20
HETATM   20  C   UNL     1     -40.683  53.010 -50.121  1.00  0.00     0.278 C 
BRANCH  20  21
HETATM   21  O   UNL     1     -39.810  53.077 -51.248  1.00  0.00    -0.342 OA
BRANCH  21  22
HETATM   22  C   UNL     1     -39.816  52.036 -52.139  1.00  0.00     0.076 A 
HETATM   23  C   UNL     1     -40.312  52.311 -53.436  1.00  0.00    -0.021 A 
HETATM   24  C   UNL     1     -40.383  51.246 -54.351  1.00  0.00     0.010 A 
HETATM   25  C   UNL     1     -39.984  49.956 -53.995  1.00  0.00     0.001 A 
HETATM   26  C   UNL     1     -39.511  49.702 -52.714  1.00  0.00     0.003 A 
HETATM   27  C   UNL     1     -39.435  50.737 -51.784  1.00  0.00     0.037 A 
BRANCH  23  28
HETATM   28  C   UNL     1     -40.737  53.734 -53.811  1.00  0.00     0.017 C 
HETATM   29  C   UNL     1     -40.088  54.169 -55.133  1.00  0.00     0.015 C 
BRANCH  28  30
HETATM   30  C   UNL     1     -42.260  54.026 -53.800  1.00  0.00     0.004 C 
HETATM   31  C   UNL     1     -42.814  54.766 -55.014  1.00  0.00     0.006 C 
ENDBRANCH  28  30
ENDBRANCH  23  28
ENDBRANCH  21  22
ENDBRANCH  20  21
ENDBRANCH   1  20
TORSDOF 7
ENDMDL
MODEL 2
REMARK VINA RESULT:      -8.4      2.342      4.149
REMARK  7 active torsions:
REMARK  status: ('A' for Active; 'I' for Inactive)
REMARK    1  A    between atoms: C_2  and  C_3 
REMARK    2  A    between atoms: C_3  and  C_4 
REMARK    3  A    between atoms: C_5  and  O_6 
REMARK    4  A    between atoms: O_6  and  C_7 
REMARK    5  A    between atoms: C_7  and  C_8 
REMARK       I    between atoms: C_8  and  N_9 
REMARK    6  A    between atoms: N_9  and  C_10 
REMARK    7  A    between atoms: C_17  and  C_18 
REMARK       I    between atoms: C_18  and  N_19 
ROOT
HETATM    1  C   UNL     1     -42.267  55.374 -55.651  1.00  0.00     0.246 C 
HETATM    2  N   UNL     1     -42.636  56.587 -55.135  1.00  0.00    -0.325 N 
HETATM    3  O   UNL     1     -42.241  55.268 -56.881  1.00  0.00    -0.271 OA
HETATM    4  H   UNL     1     -43.063  57.175 -55.844  1.00  0.00     0.169 HD
ENDROOT
BRANCH   2   5
HETATM    5  C   UNL     1     -42.479  57.150 -53.861  1.00  0.00     0.035 A 
HETATM    6  C   UNL     1     -41.267  57.683 -53.405  1.00  0.00     0.046 A 
HETATM    7  C   UNL     1     -41.208  58.273 -52.124  1.00  0.00     0.030 A 
HETATM    8  C   UNL     1     -42.360  58.317 -51.350  1.00  0.00     0.063 A 
HETATM    9  C   UNL     1     -40.209  58.920 -51.338  1.00  0.00     0.156 A 
HETATM   10  N   UNL     1     -41.989  58.928 -50.184  1.00  0.00    -0.277 N 
HETATM   11  C   UNL     1     -43.589  57.820 -51.785  1.00  0.00     0.034 A 
HETATM   12  H   UNL     1     -42.575  59.124 -49.380  1.00  0.00     0.189 HD
HETATM   13  N   UNL     1     -40.703  59.316 -50.144  1.00  0.00    -0.168 NA
HETATM   14  C   UNL     1     -43.627  57.254 -53.067  1.00  0.00     0.032 A 
BRANCH   9  15
HETATM   15  C   UNL     1     -38.809  59.169 -51.712  1.00  0.00     0.270 C 
HETATM   16  N   UNL     1     -37.987  59.440 -50.654  1.00  0.00    -0.365 N 
HETATM   17  H   UNL     1     -38.383  59.454 -49.721  1.00  0.00     0.159 HD
HETATM   18  H   UNL     1     -37.012  59.639 -50.813  1.00  0.00     0.159 HD
HETATM   19  O   UNL     1     -38.388  59.150 -52.864  1.00  0.00    -0.266 OA
ENDBRANCH   9  15
ENDBRANCH   2   5
BRANCH   1  20
HETATM   20  C   UNL     1     -42.036  54.167 -54.729  1.00  0.00     0.278 C 
BRANCH  20  21
HETATM   21  O   UNL     1     -40.799  54.218 -54.019  1.00  0.00    -0.342 OA
BRANCH  21  22
HETATM   22  C   UNL     1     -40.436  53.131 -53.267  1.00  0.00     0.076 A 
HETATM   23  C   UNL     1     -40.565  53.257 -51.863  1.00  0.00    -0.021 A 
HETATM   24  C   UNL     1     -40.144  52.178 -51.067  1.00  0.00     0.010 A 
HETATM   25  C   UNL     1     -39.611  51.020 -51.636  1.00  0.00     0.001 A 
HETATM   26  C   UNL     1     -39.481  50.918 -53.015  1.00  0.00     0.003 A 
HETATM   27  C   UNL     1     -39.884  51.974 -53.830  1.00  0.00     0.037 A 
BRANCH  23  28
HETATM   28  C   UNL     1     -41.159  54.531 -51.256  1.00  0.00     0.017 C 
HETATM   29  C   UNL     1     -42.658  54.356 -50.976  1.00  0.00     0.015 C 
BRANCH  28  30
HETATM   30  C   UNL     1     -40.415  55.126 -50.032  1.00  0.00     0.004 C 
HETATM   31  C   UNL     1     -40.969  54.755 -48.660  1.00  0.00     0.006 C 
ENDBRANCH  28  30
ENDBRANCH  23  28
ENDBRANCH  21  22
ENDBRANCH  20  21
ENDBRANCH   1  20
TORSDOF 7
ENDMDL
MODEL 3
REMARK VINA RESULT:      -8.3      2.479      4.545
REMARK  7 active torsions:
REMARK  status: ('A' for Active; 'I' for Inactive)
REMARK    1  A    between atoms: C_2  and  C_3 
REMARK    2  A    between atoms: C_3  and  C_4 
REMARK    3  A    between atoms: C_5  and  O_6 
REMARK    4  A    between atoms: O_6  and  C_7 
REMARK    5  A    between atoms: C_7  and  C_8 
REMARK       I    between atoms: C_8  and  N_9 
REMARK    6  A    between atoms: N_9  and  C_10 
REMARK    7  A    between atoms: C_17  and  C_18 
REMARK       I    between atoms: C_18  and  N_19 
ROOT
HETATM    1  C   UNL     1     -43.358  56.150 -55.381  1.00  0.00     0.246 C 
HETATM    2  N   UNL     1     -43.041  57.409 -54.948  1.00  0.00    -0.325 N 
HETATM    3  O   UNL     1     -43.237  55.923 -56.589  1.00  0.00    -0.271 OA
HETATM    4  H   UNL     1     -42.964  58.058 -55.724  1.00  0.00     0.169 HD
ENDROOT
BRANCH   2   5
HETATM    5  C   UNL     1     -42.761  57.917 -53.671  1.00  0.00     0.035 A 
HETATM    6  C   UNL     1     -41.466  58.232 -53.241  1.00  0.00     0.046 A 
HETATM    7  C   UNL     1     -41.278  58.782 -51.955  1.00  0.00     0.030 A 
HETATM    8  C   UNL     1     -42.388  59.006 -51.150  1.00  0.00     0.063 A 
HETATM    9  C   UNL     1     -40.166  59.239 -51.188  1.00  0.00     0.156 A 
HETATM   10  N   UNL     1     -41.892  59.527 -49.987  1.00  0.00    -0.277 N 
HETATM   11  C   UNL     1     -43.693  58.728 -51.559  1.00  0.00     0.034 A 
HETATM   12  H   UNL     1     -42.416  59.804 -49.165  1.00  0.00     0.189 HD
HETATM   13  N   UNL     1     -40.558  59.693 -49.977  1.00  0.00    -0.168 NA
HETATM   14  C   UNL     1     -43.856  58.198 -52.845  1.00  0.00     0.032 A 
BRANCH   9  15
HETATM   15  C   UNL     1     -38.754  59.257 -51.596  1.00  0.00     0.270 C 
HETATM   16  N   UNL     1     -37.872  59.351 -50.555  1.00  0.00    -0.365 N 
HETATM   17  H   UNL     1     -38.237  59.405 -49.612  1.00  0.00     0.159 HD
HETATM   18  H   UNL     1     -36.881  59.385 -50.738  1.00  0.00     0.159 HD
HETATM   19  O   UNL     1     -38.370  59.201 -52.760  1.00  0.00    -0.266 OA
ENDBRANCH   9  15
ENDBRANCH   2   5
BRANCH   1  20
HETATM   20  C   UNL     1     -43.972  55.121 -54.421  1.00  0.00     0.278 C 
BRANCH  20  21
HETATM   21  O   UNL     1     -43.085  54.057 -54.078  1.00  0.00    -0.342 OA
BRANCH  21  22
HETATM   22  C   UNL     1     -42.399  54.138 -52.895  1.00  0.00     0.076 A 
HETATM   23  C   UNL     1     -41.169  53.442 -52.823  1.00  0.00    -0.021 A 
HETATM   24  C   UNL     1     -40.474  53.461 -51.602  1.00  0.00     0.010 A 
HETATM   25  C   UNL     1     -40.979  54.138 -50.490  1.00  0.00     0.001 A 
HETATM   26  C   UNL     1     -42.194  54.805 -50.574  1.00  0.00     0.003 A 
HETATM   27  C   UNL     1     -42.908  54.799 -51.771  1.00  0.00     0.037 A 
BRANCH  23  28
HETATM   28  C   UNL     1     -40.625  52.711 -54.055  1.00  0.00     0.017 C 
HETATM   29  C   UNL     1     -40.062  53.707 -55.078  1.00  0.00     0.015 C 
BRANCH  28  30
HETATM   30  C   UNL     1     -39.638  51.546 -53.789  1.00  0.00     0.004 C 
HETATM   31  C   UNL     1     -40.023  50.188 -54.369  1.00  0.00     0.006 C 
ENDBRANCH  28  30
ENDBRANCH  23  28
ENDBRANCH  21  22
ENDBRANCH  20  21
ENDBRANCH   1  20
TORSDOF 7
ENDMDL
MODEL 4
REMARK VINA RESULT:      -7.9      2.638      4.847
REMARK  7 active torsions:
REMARK  status: ('A' for Active; 'I' for Inactive)
REMARK    1  A    between atoms: C_2  and  C_3 
REMARK    2  A    between atoms: C_3  and  C_4 
REMARK    3  A    between atoms: C_5  and  O_6 
REMARK    4  A    between atoms: O_6  and  C_7 
REMARK    5  A    between atoms: C_7  and  C_8 
REMARK       I    between atoms: C_8  and  N_9 
REMARK    6  A    between atoms: N_9  and  C_10 
REMARK    7  A    between atoms: C_17  and  C_18 
REMARK       I    between atoms: C_18  and  N_19 
ROOT
HETATM    1  C   UNL     1     -43.051  56.037 -55.447  1.00  0.00     0.246 C 
HETATM    2  N   UNL     1     -42.477  57.261 -55.238  1.00  0.00    -0.325 N 
HETATM    3  O   UNL     1     -42.966  55.560 -56.583  1.00  0.00    -0.271 OA
HETATM    4  H   UNL     1     -42.252  57.719 -56.116  1.00  0.00     0.169 HD
ENDROOT
BRANCH   2   5
HETATM    5  C   UNL     1     -42.110  57.936 -54.065  1.00  0.00     0.035 A 
HETATM    6  C   UNL     1     -43.024  58.630 -53.264  1.00  0.00     0.046 A 
HETATM    7  C   UNL     1     -42.577  59.243 -52.073  1.00  0.00     0.030 A 
HETATM    8  C   UNL     1     -41.237  59.135 -51.723  1.00  0.00     0.063 A 
HETATM    9  C   UNL     1     -43.176  59.993 -51.018  1.00  0.00     0.156 A 
HETATM   10  N   UNL     1     -41.113  59.825 -50.550  1.00  0.00    -0.277 N 
HETATM   11  C   UNL     1     -40.306  58.428 -52.485  1.00  0.00     0.034 A 
HETATM   12  H   UNL     1     -40.269  59.965 -50.005  1.00  0.00     0.189 HD
HETATM   13  N   UNL     1     -42.262  60.347 -50.088  1.00  0.00    -0.168 NA
HETATM   14  C   UNL     1     -40.777  57.814 -53.653  1.00  0.00     0.032 A 
BRANCH   9  15
HETATM   15  C   UNL     1     -44.593  60.361 -50.885  1.00  0.00     0.270 C 
HETATM   16  N   UNL     1     -45.270  59.646 -49.936  1.00  0.00    -0.365 N 
HETATM   17  H   UNL     1     -44.770  58.935 -49.414  1.00  0.00     0.159 HD
HETATM   18  H   UNL     1     -46.251  59.817 -49.783  1.00  0.00     0.159 HD
HETATM   19  O   UNL     1     -45.148  61.224 -51.556  1.00  0.00    -0.266 OA
ENDBRANCH   9  15
ENDBRANCH   2   5
BRANCH   1  20
HETATM   20  C   UNL     1     -43.883  55.362 -54.346  1.00  0.00     0.278 C 
BRANCH  20  21
HETATM   21  O   UNL     1     -43.228  54.255 -53.729  1.00  0.00    -0.342 OA
BRANCH  21  22
HETATM   22  C   UNL     1     -42.414  54.497 -52.654  1.00  0.00     0.076 A 
HETATM   23  C   UNL     1     -41.153  53.854 -52.652  1.00  0.00    -0.021 A 
HETATM   24  C   UNL     1     -40.323  54.040 -51.533  1.00  0.00     0.010 A 
HETATM   25  C   UNL     1     -40.727  54.828 -50.453  1.00  0.00     0.001 A 
HETATM   26  C   UNL     1     -41.973  55.442 -50.466  1.00  0.00     0.003 A 
HETATM   27  C   UNL     1     -42.819  55.271 -51.560  1.00  0.00     0.037 A 
BRANCH  23  28
HETATM   28  C   UNL     1     -40.723  53.000 -53.849  1.00  0.00     0.017 C 
HETATM   29  C   UNL     1     -40.097  53.871 -54.946  1.00  0.00     0.015 C 
BRANCH  28  30
HETATM   30  C   UNL     1     -39.847  51.760 -53.534  1.00  0.00     0.004 C 
HETATM   31  C   UNL     1     -40.185  50.483 -54.298  1.00  0.00     0.006 C 
ENDBRANCH  28  30
ENDBRANCH  23  28
ENDBRANCH  21  22
ENDBRANCH  20  21
ENDBRANCH   1  20
TORSDOF 7
ENDMDL
MODEL 5
REMARK VINA RESULT:      -7.8      3.587      5.666
REMARK  7 active torsions:
REMARK  status: ('A' for Active; 'I' for Inactive)
REMARK    1  A    between atoms: C_2  and  C_3 
REMARK    2  A    between atoms: C_3  and  C_4 
REMARK    3  A    between atoms: C_5  and  O_6 
REMARK    4  A    between atoms: O_6  and  C_7 
REMARK    5  A    between atoms: C_7  and  C_8 
REMARK       I    between atoms: C_8  and  N_9 
REMARK    6  A    between atoms: N_9  and  C_10 
REMARK    7  A    between atoms: C_17  and  C_18 
REMARK       I    between atoms: C_18  and  N_19 
ROOT
HETATM    1  C   UNL     1     -43.014  55.288 -54.839  1.00  0.00     0.246 C 
HETATM    2  N   UNL     1     -43.626  56.130 -55.729  1.00  0.00    -0.325 N 
HETATM    3  O   UNL     1     -43.711  54.823 -53.932  1.00  0.00    -0.271 OA
HETATM    4  H   UNL     1     -44.529  56.439 -55.383  1.00  0.00     0.169 HD
ENDROOT
BRANCH   2   5
HETATM    5  C   UNL     1     -43.256  56.572 -57.007  1.00  0.00     0.035 A 
HETATM    6  C   UNL     1     -42.848  57.885 -57.274  1.00  0.00     0.046 A 
HETATM    7  C   UNL     1     -42.448  58.233 -58.581  1.00  0.00     0.030 A 
HETATM    8  C   UNL     1     -42.463  57.259 -59.572  1.00  0.00     0.063 A 
HETATM    9  C   UNL     1     -41.964  59.410 -59.226  1.00  0.00     0.156 A 
HETATM   10  N   UNL     1     -42.040  57.892 -60.708  1.00  0.00    -0.277 N 
HETATM   11  C   UNL     1     -42.839  55.937 -59.333  1.00  0.00     0.034 A 
HETATM   12  H   UNL     1     -41.935  57.490 -61.632  1.00  0.00     0.189 HD
HETATM   13  N   UNL     1     -41.720  59.186 -60.537  1.00  0.00    -0.168 NA
HETATM   14  C   UNL     1     -43.215  55.611 -58.024  1.00  0.00     0.032 A 
BRANCH   9  15
HETATM   15  C   UNL     1     -41.727  60.724 -58.613  1.00  0.00     0.270 C 
HETATM   16  N   UNL     1     -42.463  61.738 -59.160  1.00  0.00    -0.365 N 
HETATM   17  H   UNL     1     -43.093  61.524 -59.925  1.00  0.00     0.159 HD
HETATM   18  H   UNL     1     -42.357  62.679 -58.815  1.00  0.00     0.159 HD
HETATM   19  O   UNL     1     -40.940  60.926 -57.694  1.00  0.00    -0.266 OA
ENDBRANCH   9  15
ENDBRANCH   2   5
BRANCH   1  20
HETATM   20  C   UNL     1     -41.497  55.056 -54.896  1.00  0.00     0.278 C 
BRANCH  20  21
HETATM   21  O   UNL     1     -40.907  54.809 -53.620  1.00  0.00    -0.342 OA
BRANCH  21  22
HETATM   22  C   UNL     1     -40.517  53.531 -53.320  1.00  0.00     0.076 A 
HETATM   23  C   UNL     1     -40.323  53.229 -51.951  1.00  0.00    -0.021 A 
HETATM   24  C   UNL     1     -39.867  51.941 -51.621  1.00  0.00     0.010 A 
HETATM   25  C   UNL     1     -39.607  50.988 -52.609  1.00  0.00     0.001 A 
HETATM   26  C   UNL     1     -39.791  51.305 -53.948  1.00  0.00     0.003 A 
HETATM   27  C   UNL     1     -40.237  52.576 -54.305  1.00  0.00     0.037 A 
BRANCH  23  28
HETATM   28  C   UNL     1     -40.621  54.283 -50.881  1.00  0.00     0.017 C 
HETATM   29  C   UNL     1     -42.110  54.277 -50.506  1.00  0.00     0.015 C 
BRANCH  28  30
HETATM   30  C   UNL     1     -39.716  54.267 -49.622  1.00  0.00     0.004 C 
HETATM   31  C   UNL     1     -40.429  54.150 -48.278  1.00  0.00     0.006 C 
ENDBRANCH  28  30
ENDBRANCH  23  28
ENDBRANCH  21  22
ENDBRANCH  20  21
ENDBRANCH   1  20
TORSDOF 7
ENDMDL
MODEL 6
REMARK VINA RESULT:      -7.8      3.695      5.923
REMARK  7 active torsions:
REMARK  status: ('A' for Active; 'I' for Inactive)
REMARK    1  A    between atoms: C_2  and  C_3 
REMARK    2  A    between atoms: C_3  and  C_4 
REMARK    3  A    between atoms: C_5  and  O_6 
REMARK    4  A    between atoms: O_6  and  C_7 
REMARK    5  A    between atoms: C_7  and  C_8 
REMARK       I    between atoms: C_8  and  N_9 
REMARK    6  A    between atoms: N_9  and  C_10 
REMARK    7  A    between atoms: C_17  and  C_18 
REMARK       I    between atoms: C_18  and  N_19 
ROOT
HETATM    1  C   UNL     1     -41.618  58.701 -54.235  1.00  0.00     0.246 C 
HETATM    2  N   UNL     1     -41.974  59.004 -55.521  1.00  0.00    -0.325 N 
HETATM    3  O   UNL     1     -40.731  59.388 -53.719  1.00  0.00    -0.271 OA
HETATM    4  H   UNL     1     -41.293  59.616 -55.959  1.00  0.00     0.169 HD
ENDROOT
BRANCH   2   5
HETATM    5  C   UNL     1     -43.103  58.671 -56.284  1.00  0.00     0.035 A 
HETATM    6  C   UNL     1     -43.071  57.747 -57.335  1.00  0.00     0.046 A 
HETATM    7  C   UNL     1     -44.264  57.436 -58.021  1.00  0.00     0.030 A 
HETATM    8  C   UNL     1     -45.446  58.053 -57.629  1.00  0.00     0.063 A 
HETATM    9  C   UNL     1     -44.637  56.567 -59.089  1.00  0.00     0.156 A 
HETATM   10  N   UNL     1     -46.406  57.564 -58.471  1.00  0.00    -0.277 N 
HETATM   11  C   UNL     1     -45.517  58.958 -56.569  1.00  0.00     0.034 A 
HETATM   12  H   UNL     1     -47.392  57.800 -58.482  1.00  0.00     0.189 HD
HETATM   13  N   UNL     1     -45.959  56.658 -59.357  1.00  0.00    -0.168 NA
HETATM   14  C   UNL     1     -44.323  59.237 -55.892  1.00  0.00     0.032 A 
BRANCH   9  15
HETATM   15  C   UNL     1     -43.760  55.657 -59.839  1.00  0.00     0.270 C 
HETATM   16  N   UNL     1     -44.265  54.396 -59.995  1.00  0.00    -0.365 N 
HETATM   17  H   UNL     1     -45.172  54.182 -59.595  1.00  0.00     0.159 HD
HETATM   18  H   UNL     1     -43.728  53.696 -60.483  1.00  0.00     0.159 HD
HETATM   19  O   UNL     1     -42.664  55.970 -60.290  1.00  0.00    -0.266 OA
ENDBRANCH   9  15
ENDBRANCH   2   5
BRANCH   1  20
HETATM   20  C   UNL     1     -42.203  57.469 -53.528  1.00  0.00     0.278 C 
BRANCH  20  21
HETATM   21  O   UNL     1     -41.217  56.643 -52.909  1.00  0.00    -0.342 OA
BRANCH  21  22
HETATM   22  C   UNL     1     -40.979  55.404 -53.443  1.00  0.00     0.076 A 
HETATM   23  C   UNL     1     -41.277  54.289 -52.623  1.00  0.00    -0.021 A 
HETATM   24  C   UNL     1     -40.987  53.009 -53.126  1.00  0.00     0.010 A 
HETATM   25  C   UNL     1     -40.418  52.837 -54.389  1.00  0.00     0.001 A 
HETATM   26  C   UNL     1     -40.121  53.942 -55.176  1.00  0.00     0.003 A 
HETATM   27  C   UNL     1     -40.393  55.224 -54.702  1.00  0.00     0.037 A 
BRANCH  23  28
HETATM   28  C   UNL     1     -41.908  54.496 -51.243  1.00  0.00     0.017 C 
HETATM   29  C   UNL     1     -43.394  54.108 -51.257  1.00  0.00     0.015 C 
BRANCH  28  30
HETATM   30  C   UNL     1     -41.164  53.862 -50.040  1.00  0.00     0.004 C 
HETATM   31  C   UNL     1     -39.719  54.306 -49.831  1.00  0.00     0.006 C 
ENDBRANCH  28  30
ENDBRANCH  23  28
ENDBRANCH  21  22
ENDBRANCH  20  21
ENDBRANCH   1  20
TORSDOF 7
ENDMDL
MODEL 7
REMARK VINA RESULT:      -7.8      3.914      5.955
REMARK  7 active torsions:
REMARK  status: ('A' for Active; 'I' for Inactive)
REMARK    1  A    between atoms: C_2  and  C_3 
REMARK    2  A    between atoms: C_3  and  C_4 
REMARK    3  A    between atoms: C_5  and  O_6 
REMARK    4  A    between atoms: O_6  and  C_7 
REMARK    5  A    between atoms: C_7  and  C_8 
REMARK       I    between atoms: C_8  and  N_9 
REMARK    6  A    between atoms: N_9  and  C_10 
REMARK    7  A    between atoms: C_17  and  C_18 
REMARK       I    between atoms: C_18  and  N_19 
ROOT
HETATM    1  C   UNL     1     -43.065  56.374 -53.867  1.00  0.00     0.246 C 
HETATM    2  N   UNL     1     -43.122  57.418 -54.750  1.00  0.00    -0.325 N 
HETATM    3  O   UNL     1     -43.572  56.548 -52.755  1.00  0.00    -0.271 OA
HETATM    4  H   UNL     1     -43.378  58.282 -54.284  1.00  0.00     0.169 HD
ENDROOT
BRANCH   2   5
HETATM    5  C   UNL     1     -42.949  57.479 -56.140  1.00  0.00     0.035 A 
HETATM    6  C   UNL     1     -43.611  56.625 -57.032  1.00  0.00     0.046 A 
HETATM    7  C   UNL     1     -43.415  56.786 -58.420  1.00  0.00     0.030 A 
HETATM    8  C   UNL     1     -42.573  57.797 -58.868  1.00  0.00     0.063 A 
HETATM    9  C   UNL     1     -43.904  56.160 -59.604  1.00  0.00     0.156 A 
HETATM   10  N   UNL     1     -42.580  57.695 -60.231  1.00  0.00    -0.277 N 
HETATM   11  C   UNL     1     -41.919  58.680 -58.008  1.00  0.00     0.034 A 
HETATM   12  H   UNL     1     -42.069  58.269 -60.893  1.00  0.00     0.189 HD
HETATM   13  N   UNL     1     -43.379  56.727 -60.713  1.00  0.00    -0.168 NA
HETATM   14  C   UNL     1     -42.143  58.512 -56.635  1.00  0.00     0.032 A 
BRANCH   9  15
HETATM   15  C   UNL     1     -44.860  55.047 -59.689  1.00  0.00     0.270 C 
HETATM   16  N   UNL     1     -46.148  55.433 -59.938  1.00  0.00    -0.365 N 
HETATM   17  H   UNL     1     -46.348  56.421 -60.039  1.00  0.00     0.159 HD
HETATM   18  H   UNL     1     -46.878  54.741 -59.998  1.00  0.00     0.159 HD
HETATM   19  O   UNL     1     -44.560  53.866 -59.546  1.00  0.00    -0.266 OA
ENDBRANCH   9  15
ENDBRANCH   2   5
BRANCH   1  20
HETATM   20  C   UNL     1     -42.275  55.101 -54.208  1.00  0.00     0.278 C 
BRANCH  20  21
HETATM   21  O   UNL     1     -41.072  54.955 -53.454  1.00  0.00    -0.342 OA
BRANCH  21  22
HETATM   22  C   UNL     1     -40.613  53.689 -53.202  1.00  0.00     0.076 A 
HETATM   23  C   UNL     1     -40.344  53.367 -51.849  1.00  0.00    -0.021 A 
HETATM   24  C   UNL     1     -39.817  52.095 -51.569  1.00  0.00     0.010 A 
HETATM   25  C   UNL     1     -39.559  51.176 -52.589  1.00  0.00     0.001 A 
HETATM   26  C   UNL     1     -39.817  51.512 -53.911  1.00  0.00     0.003 A 
HETATM   27  C   UNL     1     -40.335  52.769 -54.219  1.00  0.00     0.037 A 
BRANCH  23  28
HETATM   28  C   UNL     1     -40.641  54.384 -50.743  1.00  0.00     0.017 C 
HETATM   29  C   UNL     1     -42.121  54.338 -50.340  1.00  0.00     0.015 C 
BRANCH  28  30
HETATM   30  C   UNL     1     -39.710  54.349 -49.504  1.00  0.00     0.004 C 
HETATM   31  C   UNL     1     -40.357  53.935 -48.185  1.00  0.00     0.006 C 
ENDBRANCH  28  30
ENDBRANCH  23  28
ENDBRANCH  21  22
ENDBRANCH  20  21
ENDBRANCH   1  20
TORSDOF 7
ENDMDL
MODEL 8
REMARK VINA RESULT:      -7.5      3.933      6.092
REMARK  7 active torsions:
REMARK  status: ('A' for Active; 'I' for Inactive)
REMARK    1  A    between atoms: C_2  and  C_3 
REMARK    2  A    between atoms: C_3  and  C_4 
REMARK    3  A    between atoms: C_5  and  O_6 
REMARK    4  A    between atoms: O_6  and  C_7 
REMARK    5  A    between atoms: C_7  and  C_8 
REMARK       I    between atoms: C_8  and  N_9 
REMARK    6  A    between atoms: N_9  and  C_10 
REMARK    7  A    between atoms: C_17  and  C_18 
REMARK       I    between atoms: C_18  and  N_19 
ROOT
HETATM    1  C   UNL     1     -43.872  57.528 -53.715  1.00  0.00     0.246 C 
HETATM    2  N   UNL     1     -44.157  58.009 -54.964  1.00  0.00    -0.325 N 
HETATM    3  O   UNL     1     -44.779  57.564 -52.876  1.00  0.00    -0.271 OA
HETATM    4  H   UNL     1     -45.020  58.543 -54.966  1.00  0.00     0.169 HD
ENDROOT
BRANCH   2   5
HETATM    5  C   UNL     1     -43.516  57.844 -56.200  1.00  0.00     0.035 A 
HETATM    6  C   UNL     1     -43.842  56.823 -57.101  1.00  0.00     0.046 A 
HETATM    7  C   UNL     1     -43.177  56.758 -58.344  1.00  0.00     0.030 A 
HETATM    8  C   UNL     1     -42.218  57.716 -58.646  1.00  0.00     0.063 A 
HETATM    9  C   UNL     1     -43.237  55.919 -59.496  1.00  0.00     0.156 A 
HETATM   10  N   UNL     1     -41.756  57.387 -59.890  1.00  0.00    -0.277 N 
HETATM   11  C   UNL     1     -41.888  58.761 -57.781  1.00  0.00     0.034 A 
HETATM   12  H   UNL     1     -41.041  57.865 -60.426  1.00  0.00     0.189 HD
HETATM   13  N   UNL     1     -42.354  56.316 -60.439  1.00  0.00    -0.168 NA
HETATM   14  C   UNL     1     -42.574  58.815 -56.561  1.00  0.00     0.032 A 
BRANCH   9  15
HETATM   15  C   UNL     1     -44.121  54.764 -59.708  1.00  0.00     0.270 C 
HETATM   16  N   UNL     1     -44.756  54.760 -60.919  1.00  0.00    -0.365 N 
HETATM   17  H   UNL     1     -44.584  55.525 -61.561  1.00  0.00     0.159 HD
HETATM   18  H   UNL     1     -45.395  54.015 -61.149  1.00  0.00     0.159 HD
HETATM   19  O   UNL     1     -44.299  53.871 -58.886  1.00  0.00    -0.266 OA
ENDBRANCH   9  15
ENDBRANCH   2   5
BRANCH   1  20
HETATM   20  C   UNL     1     -42.444  57.101 -53.346  1.00  0.00     0.278 C 
BRANCH  20  21
HETATM   21  O   UNL     1     -42.241  55.689 -53.382  1.00  0.00    -0.342 OA
BRANCH  21  22
HETATM   22  C   UNL     1     -41.477  55.116 -52.400  1.00  0.00     0.076 A 
HETATM   23  C   UNL     1     -40.875  53.872 -52.706  1.00  0.00    -0.021 A 
HETATM   24  C   UNL     1     -40.133  53.235 -51.695  1.00  0.00     0.010 A 
HETATM   25  C   UNL     1     -39.996  53.805 -50.428  1.00  0.00     0.001 A 
HETATM   26  C   UNL     1     -40.602  55.021 -50.141  1.00  0.00     0.003 A 
HETATM   27  C   UNL     1     -41.348  55.672 -51.121  1.00  0.00     0.037 A 
BRANCH  23  28
HETATM   28  C   UNL     1     -41.030  53.265 -54.103  1.00  0.00     0.017 C 
HETATM   29  C   UNL     1     -40.046  53.908 -55.091  1.00  0.00     0.015 C 
BRANCH  28  30
HETATM   30  C   UNL     1     -41.000  51.718 -54.193  1.00  0.00     0.004 C 
HETATM   31  C   UNL     1     -39.628  51.060 -54.073  1.00  0.00     0.006 C 
ENDBRANCH  28  30
ENDBRANCH  23  28
ENDBRANCH  21  22
ENDBRANCH  20  21
ENDBRANCH   1  20
TORSDOF 7
ENDMDL
MODEL 9
REMARK VINA RESULT:      -7.3      2.830      4.923
REMARK  7 active torsions:
REMARK  status: ('A' for Active; 'I' for Inactive)
REMARK    1  A    between atoms: C_2  and  C_3 
REMARK    2  A    between atoms: C_3  and  C_4 
REMARK    3  A    between atoms: C_5  and  O_6 
REMARK    4  A    between atoms: O_6  and  C_7 
REMARK    5  A    between atoms: C_7  and  C_8 
REMARK       I    between atoms: C_8  and  N_9 
REMARK    6  A    between atoms: N_9  and  C_10 
REMARK    7  A    between atoms: C_17  and  C_18 
REMARK       I    between atoms: C_18  and  N_19 
ROOT
HETATM    1  C   UNL     1     -44.056  57.263 -51.950  1.00  0.00     0.246 C 
HETATM    2  N   UNL     1     -44.656  56.973 -53.145  1.00  0.00    -0.325 N 
HETATM    3  O   UNL     1     -44.720  57.079 -50.925  1.00  0.00    -0.271 OA
HETATM    4  H   UNL     1     -45.658  56.856 -53.036  1.00  0.00     0.169 HD
ENDROOT
BRANCH   2   5
HETATM    5  C   UNL     1     -44.133  56.760 -54.428  1.00  0.00     0.035 A 
HETATM    6  C   UNL     1     -43.693  57.800 -55.257  1.00  0.00     0.046 A 
HETATM    7  C   UNL     1     -43.137  57.493 -56.518  1.00  0.00     0.030 A 
HETATM    8  C   UNL     1     -43.034  56.162 -56.902  1.00  0.00     0.063 A 
HETATM    9  C   UNL     1     -42.577  58.235 -57.599  1.00  0.00     0.156 A 
HETATM   10  N   UNL     1     -42.476  56.188 -58.149  1.00  0.00    -0.277 N 
HETATM   11  C   UNL     1     -43.439  55.102 -56.089  1.00  0.00     0.034 A 
HETATM   12  H   UNL     1     -42.260  55.395 -58.743  1.00  0.00     0.189 HD
HETATM   13  N   UNL     1     -42.176  57.419 -58.599  1.00  0.00    -0.168 NA
HETATM   14  C   UNL     1     -43.971  55.430 -54.836  1.00  0.00     0.032 A 
BRANCH   9  15
HETATM   15  C   UNL     1     -42.413  59.693 -57.684  1.00  0.00     0.270 C 
HETATM   16  N   UNL     1     -43.545  60.362 -58.061  1.00  0.00    -0.365 N 
HETATM   17  H   UNL     1     -44.384  59.828 -58.253  1.00  0.00     0.159 HD
HETATM   18  H   UNL     1     -43.526  61.365 -58.161  1.00  0.00     0.159 HD
HETATM   19  O   UNL     1     -41.365  60.286 -57.450  1.00  0.00    -0.266 OA
ENDBRANCH   9  15
ENDBRANCH   2   5
BRANCH   1  20
HETATM   20  C   UNL     1     -42.670  57.924 -51.909  1.00  0.00     0.278 C 
BRANCH  20  21
HETATM   21  O   UNL     1     -41.615  57.023 -51.571  1.00  0.00    -0.342 OA
BRANCH  21  22
HETATM   22  C   UNL     1     -41.231  56.095 -52.502  1.00  0.00     0.076 A 
HETATM   23  C   UNL     1     -41.333  54.735 -52.123  1.00  0.00    -0.021 A 
HETATM   24  C   UNL     1     -40.890  53.764 -53.039  1.00  0.00     0.010 A 
HETATM   25  C   UNL     1     -40.360  54.124 -54.279  1.00  0.00     0.001 A 
HETATM   26  C   UNL     1     -40.255  55.464 -54.629  1.00  0.00     0.003 A 
HETATM   27  C   UNL     1     -40.682  56.449 -53.740  1.00  0.00     0.037 A 
BRANCH  23  28
HETATM   28  C   UNL     1     -41.925  54.357 -50.762  1.00  0.00     0.017 C 
HETATM   29  C   UNL     1     -43.352  53.815 -50.917  1.00  0.00     0.015 C 
BRANCH  28  30
HETATM   30  C   UNL     1     -41.059  53.437 -49.863  1.00  0.00     0.004 C 
HETATM   31  C   UNL     1     -39.976  54.126 -49.037  1.00  0.00     0.006 C 
ENDBRANCH  28  30
ENDBRANCH  23  28
ENDBRANCH  21  22
ENDBRANCH  20  21
ENDBRANCH   1  20
TORSDOF 7
ENDMDL
MODEL 10
REMARK VINA RESULT:      -7.3      3.372      5.278
REMARK  7 active torsions:
REMARK  status: ('A' for Active; 'I' for Inactive)
REMARK    1  A    between atoms: C_2  and  C_3 
REMARK    2  A    between atoms: C_3  and  C_4 
REMARK    3  A    between atoms: C_5  and  O_6 
REMARK    4  A    between atoms: O_6  and  C_7 
REMARK    5  A    between atoms: C_7  and  C_8 
REMARK       I    between atoms: C_8  and  N_9 
REMARK    6  A    between atoms: N_9  and  C_10 
REMARK    7  A    between atoms: C_17  and  C_18 
REMARK       I    between atoms: C_18  and  N_19 
ROOT
HETATM    1  C   UNL     1     -41.011  58.799 -53.630  1.00  0.00     0.246 C 
HETATM    2  N   UNL     1     -41.766  59.402 -54.599  1.00  0.00    -0.325 N 
HETATM    3  O   UNL     1     -40.492  59.532 -52.782  1.00  0.00    -0.271 OA
HETATM    4  H   UNL     1     -41.608  60.405 -54.620  1.00  0.00     0.169 HD
ENDROOT
BRANCH   2   5
HETATM    5  C   UNL     1     -42.722  58.897 -55.491  1.00  0.00     0.035 A 
HETATM    6  C   UNL     1     -42.418  58.515 -56.803  1.00  0.00     0.046 A 
HETATM    7  C   UNL     1     -43.433  57.972 -57.620  1.00  0.00     0.030 A 
HETATM    8  C   UNL     1     -44.711  57.824 -57.096  1.00  0.00     0.063 A 
HETATM    9  C   UNL     1     -43.517  57.462 -58.950  1.00  0.00     0.156 A 
HETATM   10  N   UNL     1     -45.458  57.292 -58.110  1.00  0.00    -0.277 N 
HETATM   11  C   UNL     1     -45.041  58.171 -55.785  1.00  0.00     0.034 A 
HETATM   12  H   UNL     1     -46.444  57.057 -58.089  1.00  0.00     0.189 HD
HETATM   13  N   UNL     1     -44.771  57.050 -59.239  1.00  0.00    -0.168 NA
HETATM   14  C   UNL     1     -44.013  58.691 -54.989  1.00  0.00     0.032 A 
BRANCH   9  15
HETATM   15  C   UNL     1     -42.426  57.358 -59.930  1.00  0.00     0.270 C 
HETATM   16  N   UNL     1     -41.984  58.561 -60.406  1.00  0.00    -0.365 N 
HETATM   17  H   UNL     1     -42.424  59.409 -60.067  1.00  0.00     0.159 HD
HETATM   18  H   UNL     1     -41.249  58.590 -61.094  1.00  0.00     0.159 HD
HETATM   19  O   UNL     1     -41.940  56.298 -60.312  1.00  0.00    -0.266 OA
ENDBRANCH   9  15
ENDBRANCH   2   5
BRANCH   1  20
HETATM   20  C   UNL     1     -40.715  57.293 -53.690  1.00  0.00     0.278 C 
BRANCH  20  21
HETATM   21  O   UNL     1     -41.720  56.487 -53.075  1.00  0.00    -0.342 OA
BRANCH  21  22
HETATM   22  C   UNL     1     -41.332  55.568 -52.137  1.00  0.00     0.076 A 
HETATM   23  C   UNL     1     -41.052  54.261 -52.603  1.00  0.00    -0.021 A 
HETATM   24  C   UNL     1     -40.707  53.284 -51.653  1.00  0.00     0.010 A 
HETATM   25  C   UNL     1     -40.648  53.587 -50.291  1.00  0.00     0.001 A 
HETATM   26  C   UNL     1     -40.938  54.871 -49.849  1.00  0.00     0.003 A 
HETATM   27  C   UNL     1     -41.287  55.859 -50.768  1.00  0.00     0.037 A 
BRANCH  23  28
HETATM   28  C   UNL     1     -41.113  53.949 -54.102  1.00  0.00     0.017 C 
HETATM   29  C   UNL     1     -40.205  52.763 -54.452  1.00  0.00     0.015 C 
BRANCH  28  30
HETATM   30  C   UNL     1     -42.527  53.787 -54.717  1.00  0.00     0.004 C 
HETATM   31  C   UNL     1     -42.865  54.707 -55.886  1.00  0.00     0.006 C 
ENDBRANCH  28  30
ENDBRANCH  23  28
ENDBRANCH  21  22
ENDBRANCH  20  21
ENDBRANCH   1  20
TORSDOF 7
ENDMDL
