MODEL 1
REMARK VINA RESULT:      -8.7      0.000      0.000
REMARK  7 active torsions:
REMARK  status: ('A' for Active; 'I' for Inactive)
REMARK    1  A    between atoms: C_5  and  C_6 
REMARK    2  A    between atoms: C_9  and  C_10 
REMARK       I    between atoms: C_10  and  N_11 
REMARK    3  A    between atoms: N_11  and  N_12 
REMARK       I    between atoms: N_12  and  C_13 
REMARK    4  A    between atoms: C_13  and  C_14 
REMARK    5  A    between atoms: C_14  and  N_15 
REMARK    6  A    between atoms: N_15  and  C_16 
REMARK    7  A    between atoms: C_18  and  O_19 
ROOT
HETATM    1  C   UNL     1     -42.193  57.931 -51.152  1.00  0.00     0.289 C 
HETATM    2  N   UNL     1     -43.556  58.056 -50.954  1.00  0.00    -0.262 N 
HETATM    3  O   UNL     1     -41.483  58.863 -51.525  1.00  0.00    -0.264 OA
HETATM    4  H   UNL     1     -44.035  57.333 -50.417  1.00  0.00     0.190 HD
ENDROOT
BRANCH   2   5
HETATM    5  N   UNL     1     -44.109  59.347 -50.960  1.00  0.00    -0.266 N 
HETATM    6  C   UNL     1     -45.438  59.478 -50.594  1.00  0.00     0.253 C 
HETATM    7  O   UNL     1     -46.210  58.522 -50.500  1.00  0.00    -0.270 OA
HETATM    8  H   UNL     1     -43.450  60.095 -50.751  1.00  0.00     0.190 HD
BRANCH   6   9
HETATM    9  C   UNL     1     -45.881  60.927 -50.353  1.00  0.00     0.224 C 
BRANCH   9  10
HETATM   10  N   UNL     1     -44.834  61.634 -49.614  1.00  0.00    -0.381 N 
HETATM   11  H   UNL     1     -44.516  62.463 -50.120  1.00  0.00     0.160 HD
BRANCH  10  12
HETATM   12  C   UNL     1     -44.956  61.851 -48.241  1.00  0.00     0.030 A 
HETATM   13  C   UNL     1     -45.249  60.749 -47.418  1.00  0.00     0.065 A 
HETATM   14  C   UNL     1     -45.475  60.897 -46.046  1.00  0.00     0.070 A 
HETATM   15  C   UNL     1     -45.433  62.172 -45.484  1.00  0.00     0.037 A 
HETATM   16  C   UNL     1     -45.180  63.283 -46.285  1.00  0.00     0.005 A 
HETATM   17  C   UNL     1     -44.957  63.122 -47.655  1.00  0.00     0.029 A 
BRANCH  14  18
HETATM   18  O   UNL     1     -45.755  59.892 -45.161  1.00  0.00    -0.356 OA
HETATM   19  C   UNL     1     -46.758  58.960 -45.546  1.00  0.00     0.210 C 
ENDBRANCH  14  18
ENDBRANCH  10  12
ENDBRANCH   9  10
ENDBRANCH   6   9
ENDBRANCH   2   5
BRANCH   1  20
HETATM   20  C   UNL     1     -41.687  56.587 -50.878  1.00  0.00     0.134 A 
HETATM   21  C   UNL     1     -41.337  56.141 -49.621  1.00  0.00     0.089 A 
HETATM   22  S   UNL     1     -40.763  54.534 -49.704  1.00  0.00    -0.079 SA
HETATM   23  C   UNL     1     -40.986  54.530 -51.416  1.00  0.00     0.108 A 
HETATM   24  N   UNL     1     -41.510  55.647 -51.895  1.00  0.00    -0.235 NA
BRANCH  23  25
HETATM   25  C   UNL     1     -40.616  53.366 -52.250  1.00  0.00    -0.000 A 
HETATM   26  C   UNL     1     -40.986  53.233 -53.598  1.00  0.00     0.015 A 
HETATM   27  C   UNL     1     -40.635  52.095 -54.337  1.00  0.00     0.007 A 
HETATM   28  C   UNL     1     -39.914  51.057 -53.744  1.00  0.00    -0.062 A 
HETATM   29  C   UNL     1     -39.530  49.838 -54.528  1.00  0.00     0.048 C 
HETATM   30  C   UNL     1     -39.530  51.181 -52.406  1.00  0.00     0.007 A 
HETATM   31  C   UNL     1     -39.882  52.318 -51.670  1.00  0.00     0.015 A 
ENDBRANCH  23  25
ENDBRANCH   1  20
TORSDOF 7
ENDMDL
MODEL 2
REMARK VINA RESULT:      -8.4      7.572     10.228
REMARK  7 active torsions:
REMARK  status: ('A' for Active; 'I' for Inactive)
REMARK    1  A    between atoms: C_5  and  C_6 
REMARK    2  A    between atoms: C_9  and  C_10 
REMARK       I    between atoms: C_10  and  N_11 
REMARK    3  A    between atoms: N_11  and  N_12 
REMARK       I    between atoms: N_12  and  C_13 
REMARK    4  A    between atoms: C_13  and  C_14 
REMARK    5  A    between atoms: C_14  and  N_15 
REMARK    6  A    between atoms: N_15  and  C_16 
REMARK    7  A    between atoms: C_18  and  O_19 
ROOT
HETATM    1  C   UNL     1     -43.249  56.551 -56.696  1.00  0.00     0.289 C 
HETATM    2  N   UNL     1     -43.376  55.444 -57.516  1.00  0.00    -0.262 N 
HETATM    3  O   UNL     1     -43.773  57.634 -56.949  1.00  0.00    -0.264 OA
HETATM    4  H   UNL     1     -43.133  54.530 -57.135  1.00  0.00     0.190 HD
ENDROOT
BRANCH   2   5
HETATM    5  N   UNL     1     -44.323  55.496 -58.553  1.00  0.00    -0.266 N 
HETATM    6  C   UNL     1     -43.848  55.571 -59.852  1.00  0.00     0.253 C 
HETATM    7  O   UNL     1     -42.676  55.833 -60.129  1.00  0.00    -0.270 OA
HETATM    8  H   UNL     1     -45.195  55.007 -58.360  1.00  0.00     0.190 HD
BRANCH   6   9
HETATM    9  C   UNL     1     -44.920  55.338 -60.924  1.00  0.00     0.224 C 
BRANCH   9  10
HETATM   10  N   UNL     1     -46.242  55.575 -60.344  1.00  0.00    -0.381 N 
HETATM   11  H   UNL     1     -46.235  55.435 -59.331  1.00  0.00     0.160 HD
BRANCH  10  12
HETATM   12  C   UNL     1     -47.002  56.679 -60.733  1.00  0.00     0.030 A 
HETATM   13  C   UNL     1     -47.941  56.507 -61.765  1.00  0.00     0.065 A 
HETATM   14  C   UNL     1     -48.678  57.581 -62.273  1.00  0.00     0.070 A 
HETATM   15  C   UNL     1     -48.457  58.859 -61.761  1.00  0.00     0.037 A 
HETATM   16  C   UNL     1     -47.506  59.060 -60.764  1.00  0.00     0.005 A 
HETATM   17  C   UNL     1     -46.775  57.978 -60.266  1.00  0.00     0.029 A 
BRANCH  14  18
HETATM   18  O   UNL     1     -49.620  57.517 -63.264  1.00  0.00    -0.356 OA
HETATM   19  C   UNL     1     -50.047  58.753 -63.822  1.00  0.00     0.210 C 
ENDBRANCH  14  18
ENDBRANCH  10  12
ENDBRANCH   9  10
ENDBRANCH   6   9
ENDBRANCH   2   5
BRANCH   1  20
HETATM   20  C   UNL     1     -42.430  56.304 -55.511  1.00  0.00     0.134 A 
HETATM   21  C   UNL     1     -41.841  57.303 -54.764  1.00  0.00     0.089 A 
HETATM   22  S   UNL     1     -40.941  56.626 -53.480  1.00  0.00    -0.079 SA
HETATM   23  C   UNL     1     -41.362  55.036 -54.006  1.00  0.00     0.108 A 
HETATM   24  N   UNL     1     -42.173  55.010 -55.051  1.00  0.00    -0.235 NA
BRANCH  23  25
HETATM   25  C   UNL     1     -40.847  53.827 -53.329  1.00  0.00    -0.000 A 
HETATM   26  C   UNL     1     -40.695  53.727 -51.937  1.00  0.00     0.015 A 
HETATM   27  C   UNL     1     -40.173  52.569 -51.345  1.00  0.00     0.007 A 
HETATM   28  C   UNL     1     -39.783  51.483 -52.132  1.00  0.00    -0.062 A 
HETATM   29  C   UNL     1     -39.228  50.238 -51.508  1.00  0.00     0.048 C 
HETATM   30  C   UNL     1     -39.939  51.565 -53.518  1.00  0.00     0.007 A 
HETATM   31  C   UNL     1     -40.459  52.723 -54.107  1.00  0.00     0.015 A 
ENDBRANCH  23  25
ENDBRANCH   1  20
TORSDOF 7
ENDMDL
MODEL 3
REMARK VINA RESULT:      -8.3      1.775      2.212
REMARK  7 active torsions:
REMARK  status: ('A' for Active; 'I' for Inactive)
REMARK    1  A    between atoms: C_5  and  C_6 
REMARK    2  A    between atoms: C_9  and  C_10 
REMARK       I    between atoms: C_10  and  N_11 
REMARK    3  A    between atoms: N_11  and  N_12 
REMARK       I    between atoms: N_12  and  C_13 
REMARK    4  A    between atoms: C_13  and  C_14 
REMARK    5  A    between atoms: C_14  and  N_15 
REMARK    6  A    between atoms: N_15  and  C_16 
REMARK    7  A    between atoms: C_18  and  O_19 
ROOT
HETATM    1  C   UNL     1     -42.784  57.595 -51.472  1.00  0.00     0.289 C 
HETATM    2  N   UNL     1     -41.944  58.539 -50.910  1.00  0.00    -0.262 N 
HETATM    3  O   UNL     1     -43.975  57.501 -51.182  1.00  0.00    -0.264 OA
HETATM    4  H   UNL     1     -41.050  58.723 -51.365  1.00  0.00     0.190 HD
ENDROOT
BRANCH   2   5
HETATM    5  N   UNL     1     -42.524  59.572 -50.155  1.00  0.00    -0.266 N 
HETATM    6  C   UNL     1     -42.947  60.703 -50.833  1.00  0.00     0.253 C 
HETATM    7  O   UNL     1     -42.630  60.951 -51.997  1.00  0.00    -0.270 OA
HETATM    8  H   UNL     1     -43.025  59.263 -49.323  1.00  0.00     0.190 HD
BRANCH   6   9
HETATM    9  C   UNL     1     -43.816  61.648 -49.992  1.00  0.00     0.224 C 
BRANCH   9  10
HETATM   10  N   UNL     1     -43.820  61.191 -48.603  1.00  0.00    -0.381 N 
HETATM   11  H   UNL     1     -42.888  61.252 -48.187  1.00  0.00     0.160 HD
BRANCH  10  12
HETATM   12  C   UNL     1     -44.831  61.588 -47.726  1.00  0.00     0.030 A 
HETATM   13  C   UNL     1     -45.721  60.608 -47.252  1.00  0.00     0.065 A 
HETATM   14  C   UNL     1     -46.812  60.938 -46.443  1.00  0.00     0.070 A 
HETATM   15  C   UNL     1     -47.039  62.275 -46.119  1.00  0.00     0.037 A 
HETATM   16  C   UNL     1     -46.193  63.267 -46.608  1.00  0.00     0.005 A 
HETATM   17  C   UNL     1     -45.106  62.924 -47.416  1.00  0.00     0.029 A 
BRANCH  14  18
HETATM   18  O   UNL     1     -47.725  60.061 -45.923  1.00  0.00    -0.356 OA
HETATM   19  C   UNL     1     -47.243  58.773 -45.563  1.00  0.00     0.210 C 
ENDBRANCH  14  18
ENDBRANCH  10  12
ENDBRANCH   9  10
ENDBRANCH   6   9
ENDBRANCH   2   5
BRANCH   1  20
HETATM   20  C   UNL     1     -42.113  56.722 -52.434  1.00  0.00     0.134 A 
HETATM   21  C   UNL     1     -41.860  57.075 -53.744  1.00  0.00     0.089 A 
HETATM   22  S   UNL     1     -41.093  55.789 -54.564  1.00  0.00    -0.079 SA
HETATM   23  C   UNL     1     -41.165  54.819 -53.137  1.00  0.00     0.108 A 
HETATM   24  N   UNL     1     -41.685  55.438 -52.089  1.00  0.00    -0.235 NA
BRANCH  23  25
HETATM   25  C   UNL     1     -40.679  53.422 -53.115  1.00  0.00    -0.000 A 
HETATM   26  C   UNL     1     -40.101  52.823 -51.985  1.00  0.00     0.015 A 
HETATM   27  C   UNL     1     -39.629  51.504 -52.025  1.00  0.00     0.007 A 
HETATM   28  C   UNL     1     -39.716  50.754 -53.200  1.00  0.00    -0.062 A 
HETATM   29  C   UNL     1     -39.218  49.340 -53.251  1.00  0.00     0.048 C 
HETATM   30  C   UNL     1     -40.299  51.335 -54.329  1.00  0.00     0.007 A 
HETATM   31  C   UNL     1     -40.769  52.652 -54.287  1.00  0.00     0.015 A 
ENDBRANCH  23  25
ENDBRANCH   1  20
TORSDOF 7
ENDMDL
MODEL 4
REMARK VINA RESULT:      -8.3      1.278      1.819
REMARK  7 active torsions:
REMARK  status: ('A' for Active; 'I' for Inactive)
REMARK    1  A    between atoms: C_5  and  C_6 
REMARK    2  A    between atoms: C_9  and  C_10 
REMARK       I    between atoms: C_10  and  N_11 
REMARK    3  A    between atoms: N_11  and  N_12 
REMARK       I    between atoms: N_12  and  C_13 
REMARK    4  A    between atoms: C_13  and  C_14 
REMARK    5  A    between atoms: C_14  and  N_15 
REMARK    6  A    between atoms: N_15  and  C_16 
REMARK    7  A    between atoms: C_18  and  O_19 
ROOT
HETATM    1  C   UNL     1     -43.072  57.747 -51.699  1.00  0.00     0.289 C 
HETATM    2  N   UNL     1     -43.485  58.463 -50.590  1.00  0.00    -0.262 N 
HETATM    3  O   UNL     1     -43.408  58.036 -52.845  1.00  0.00    -0.264 OA
HETATM    4  H   UNL     1     -42.982  58.328 -49.713  1.00  0.00     0.190 HD
ENDROOT
BRANCH   2   5
HETATM    5  N   UNL     1     -44.124  59.696 -50.801  1.00  0.00    -0.266 N 
HETATM    6  C   UNL     1     -45.438  59.818 -50.381  1.00  0.00     0.253 C 
HETATM    7  O   UNL     1     -46.137  58.854 -50.061  1.00  0.00    -0.270 OA
HETATM    8  H   UNL     1     -43.508  60.506 -50.777  1.00  0.00     0.190 HD
BRANCH   6   9
HETATM    9  C   UNL     1     -45.965  61.258 -50.385  1.00  0.00     0.224 C 
BRANCH   9  10
HETATM   10  N   UNL     1     -45.072  62.100 -49.588  1.00  0.00    -0.381 N 
HETATM   11  H   UNL     1     -44.931  63.013 -50.027  1.00  0.00     0.160 HD
BRANCH  10  12
HETATM   12  C   UNL     1     -45.220  62.182 -48.203  1.00  0.00     0.030 A 
HETATM   13  C   UNL     1     -45.545  63.430 -47.643  1.00  0.00     0.065 A 
HETATM   14  C   UNL     1     -45.622  63.616 -46.259  1.00  0.00     0.070 A 
HETATM   15  C   UNL     1     -45.347  62.543 -45.413  1.00  0.00     0.037 A 
HETATM   16  C   UNL     1     -44.987  61.306 -45.944  1.00  0.00     0.005 A 
HETATM   17  C   UNL     1     -44.911  61.134 -47.328  1.00  0.00     0.029 A 
BRANCH  14  18
HETATM   18  O   UNL     1     -45.941  64.782 -45.618  1.00  0.00    -0.356 OA
HETATM   19  C   UNL     1     -46.448  64.667 -44.295  1.00  0.00     0.210 C 
ENDBRANCH  14  18
ENDBRANCH  10  12
ENDBRANCH   9  10
ENDBRANCH   6   9
ENDBRANCH   2   5
BRANCH   1  20
HETATM   20  C   UNL     1     -42.205  56.617 -51.370  1.00  0.00     0.134 A 
HETATM   21  C   UNL     1     -41.474  56.524 -50.204  1.00  0.00     0.089 A 
HETATM   22  S   UNL     1     -40.562  55.081 -50.192  1.00  0.00    -0.079 SA
HETATM   23  C   UNL     1     -41.169  54.670 -51.755  1.00  0.00     0.108 A 
HETATM   24  N   UNL     1     -42.045  55.535 -52.239  1.00  0.00    -0.235 NA
BRANCH  23  25
HETATM   25  C   UNL     1     -40.730  53.450 -52.468  1.00  0.00    -0.000 A 
HETATM   26  C   UNL     1     -41.086  53.162 -53.795  1.00  0.00     0.015 A 
HETATM   27  C   UNL     1     -40.670  51.977 -54.417  1.00  0.00     0.007 A 
HETATM   28  C   UNL     1     -39.893  51.046 -53.723  1.00  0.00    -0.062 A 
HETATM   29  C   UNL     1     -39.439  49.778 -54.382  1.00  0.00     0.048 C 
HETATM   30  C   UNL     1     -39.523  51.325 -52.405  1.00  0.00     0.007 A 
HETATM   31  C   UNL     1     -39.941  52.509 -51.787  1.00  0.00     0.015 A 
ENDBRANCH  23  25
ENDBRANCH   1  20
TORSDOF 7
ENDMDL
MODEL 5
REMARK VINA RESULT:      -7.9      4.229      6.788
REMARK  7 active torsions:
REMARK  status: ('A' for Active; 'I' for Inactive)
REMARK    1  A    between atoms: C_5  and  C_6 
REMARK    2  A    between atoms: C_9  and  C_10 
REMARK       I    between atoms: C_10  and  N_11 
REMARK    3  A    between atoms: N_11  and  N_12 
REMARK       I    between atoms: N_12  and  C_13 
REMARK    4  A    between atoms: C_13  and  C_14 
REMARK    5  A    between atoms: C_14  and  N_15 
REMARK    6  A    between atoms: N_15  and  C_16 
REMARK    7  A    between atoms: C_18  and  O_19 
ROOT
HETATM    1  C   UNL     1     -41.783  57.818 -51.271  1.00  0.00     0.289 C 
HETATM    2  N   UNL     1     -42.324  57.957 -52.536  1.00  0.00    -0.262 N 
HETATM    3  O   UNL     1     -41.596  58.769 -50.514  1.00  0.00    -0.264 OA
HETATM    4  H   UNL     1     -42.678  57.124 -53.005  1.00  0.00     0.190 HD
ENDROOT
BRANCH   2   5
HETATM    5  N   UNL     1     -42.891  59.196 -52.879  1.00  0.00    -0.266 N 
HETATM    6  C   UNL     1     -42.170  60.018 -53.730  1.00  0.00     0.253 C 
HETATM    7  O   UNL     1     -40.983  59.832 -54.003  1.00  0.00    -0.270 OA
HETATM    8  H   UNL     1     -43.908  59.209 -52.905  1.00  0.00     0.190 HD
BRANCH   6   9
HETATM    9  C   UNL     1     -42.969  61.207 -54.277  1.00  0.00     0.224 C 
BRANCH   9  10
HETATM   10  N   UNL     1     -43.796  60.759 -55.397  1.00  0.00    -0.381 N 
HETATM   11  H   UNL     1     -44.510  61.450 -55.634  1.00  0.00     0.160 HD
BRANCH  10  12
HETATM   12  C   UNL     1     -43.212  60.176 -56.523  1.00  0.00     0.030 A 
HETATM   13  C   UNL     1     -43.432  58.806 -56.750  1.00  0.00     0.065 A 
HETATM   14  C   UNL     1     -42.811  58.128 -57.803  1.00  0.00     0.070 A 
HETATM   15  C   UNL     1     -41.933  58.821 -58.635  1.00  0.00     0.037 A 
HETATM   16  C   UNL     1     -41.672  60.171 -58.408  1.00  0.00     0.005 A 
HETATM   17  C   UNL     1     -42.297  60.836 -57.350  1.00  0.00     0.029 A 
BRANCH  14  18
HETATM   18  O   UNL     1     -42.967  56.804 -58.115  1.00  0.00    -0.356 OA
HETATM   19  C   UNL     1     -42.909  55.881 -57.035  1.00  0.00     0.210 C 
ENDBRANCH  14  18
ENDBRANCH  10  12
ENDBRANCH   9  10
ENDBRANCH   6   9
ENDBRANCH   2   5
BRANCH   1  20
HETATM   20  C   UNL     1     -41.453  56.435 -50.930  1.00  0.00     0.134 A 
HETATM   21  C   UNL     1     -41.310  55.977 -49.637  1.00  0.00     0.089 A 
HETATM   22  S   UNL     1     -40.894  54.321 -49.640  1.00  0.00    -0.079 SA
HETATM   23  C   UNL     1     -40.899  54.310 -51.366  1.00  0.00     0.108 A 
HETATM   24  N   UNL     1     -41.243  55.465 -51.913  1.00  0.00    -0.235 NA
BRANCH  23  25
HETATM   25  C   UNL     1     -40.545  53.102 -52.142  1.00  0.00    -0.000 A 
HETATM   26  C   UNL     1     -39.849  52.011 -51.597  1.00  0.00     0.015 A 
HETATM   27  C   UNL     1     -39.511  50.901 -52.382  1.00  0.00     0.007 A 
HETATM   28  C   UNL     1     -39.852  50.858 -53.736  1.00  0.00    -0.062 A 
HETATM   29  C   UNL     1     -39.499  49.672 -54.583  1.00  0.00     0.048 C 
HETATM   30  C   UNL     1     -40.554  51.932 -54.289  1.00  0.00     0.007 A 
HETATM   31  C   UNL     1     -40.890  53.040 -53.503  1.00  0.00     0.015 A 
ENDBRANCH  23  25
ENDBRANCH   1  20
TORSDOF 7
ENDMDL
MODEL 6
REMARK VINA RESULT:      -7.9      5.062      8.114
REMARK  7 active torsions:
REMARK  status: ('A' for Active; 'I' for Inactive)
REMARK    1  A    between atoms: C_5  and  C_6 
REMARK    2  A    between atoms: C_9  and  C_10 
REMARK       I    between atoms: C_10  and  N_11 
REMARK    3  A    between atoms: N_11  and  N_12 
REMARK       I    between atoms: N_12  and  C_13 
REMARK    4  A    between atoms: C_13  and  C_14 
REMARK    5  A    between atoms: C_14  and  N_15 
REMARK    6  A    between atoms: N_15  and  C_16 
REMARK    7  A    between atoms: C_18  and  O_19 
ROOT
HETATM    1  C   UNL     1     -42.692  58.153 -52.976  1.00  0.00     0.289 C 
HETATM    2  N   UNL     1     -42.792  57.989 -54.345  1.00  0.00    -0.262 N 
HETATM    3  O   UNL     1     -43.059  59.173 -52.395  1.00  0.00    -0.264 OA
HETATM    4  H   UNL     1     -42.705  57.047 -54.727  1.00  0.00     0.190 HD
ENDROOT
BRANCH   2   5
HETATM    5  N   UNL     1     -43.548  58.926 -55.069  1.00  0.00    -0.266 N 
HETATM    6  C   UNL     1     -42.868  59.770 -55.932  1.00  0.00     0.253 C 
HETATM    7  O   UNL     1     -41.643  59.904 -55.919  1.00  0.00    -0.270 OA
HETATM    8  H   UNL     1     -44.495  58.629 -55.294  1.00  0.00     0.190 HD
BRANCH   6   9
HETATM    9  C   UNL     1     -43.778  60.557 -56.883  1.00  0.00     0.224 C 
BRANCH   9  10
HETATM   10  N   UNL     1     -43.257  60.451 -58.246  1.00  0.00    -0.381 N 
HETATM   11  H   UNL     1     -42.390  60.981 -58.356  1.00  0.00     0.160 HD
BRANCH  10  12
HETATM   12  C   UNL     1     -43.226  59.219 -58.902  1.00  0.00     0.030 A 
HETATM   13  C   UNL     1     -44.406  58.456 -58.934  1.00  0.00     0.065 A 
HETATM   14  C   UNL     1     -44.435  57.174 -59.492  1.00  0.00     0.070 A 
HETATM   15  C   UNL     1     -43.259  56.630 -60.007  1.00  0.00     0.037 A 
HETATM   16  C   UNL     1     -42.070  57.353 -59.953  1.00  0.00     0.005 A 
HETATM   17  C   UNL     1     -42.054  58.633 -59.391  1.00  0.00     0.029 A 
BRANCH  14  18
HETATM   18  O   UNL     1     -45.529  56.358 -59.583  1.00  0.00    -0.356 OA
HETATM   19  C   UNL     1     -45.445  55.272 -60.497  1.00  0.00     0.210 C 
ENDBRANCH  14  18
ENDBRANCH  10  12
ENDBRANCH   9  10
ENDBRANCH   6   9
ENDBRANCH   2   5
BRANCH   1  20
HETATM   20  C   UNL     1     -42.105  57.001 -52.294  1.00  0.00     0.134 A 
HETATM   21  C   UNL     1     -41.774  56.987 -50.955  1.00  0.00     0.089 A 
HETATM   22  S   UNL     1     -41.086  55.483 -50.532  1.00  0.00    -0.079 SA
HETATM   23  C   UNL     1     -41.240  54.939 -52.164  1.00  0.00     0.108 A 
HETATM   24  N   UNL     1     -41.821  55.812 -52.971  1.00  0.00    -0.235 NA
BRANCH  23  25
HETATM   25  C   UNL     1     -40.756  53.610 -52.594  1.00  0.00    -0.000 A 
HETATM   26  C   UNL     1     -40.007  52.757 -51.768  1.00  0.00     0.015 A 
HETATM   27  C   UNL     1     -39.546  51.518 -52.234  1.00  0.00     0.007 A 
HETATM   28  C   UNL     1     -39.815  51.105 -53.541  1.00  0.00    -0.062 A 
HETATM   29  C   UNL     1     -39.330  49.779 -54.046  1.00  0.00     0.048 C 
HETATM   30  C   UNL     1     -40.569  51.940 -54.370  1.00  0.00     0.007 A 
HETATM   31  C   UNL     1     -41.028  53.176 -53.903  1.00  0.00     0.015 A 
ENDBRANCH  23  25
ENDBRANCH   1  20
TORSDOF 7
ENDMDL
MODEL 7
REMARK VINA RESULT:      -7.9      5.942      8.488
REMARK  7 active torsions:
REMARK  status: ('A' for Active; 'I' for Inactive)
REMARK    1  A    between atoms: C_5  and  C_6 
REMARK    2  A    between atoms: C_9  and  C_10 
REMARK       I    between atoms: C_10  and  N_11 
REMARK    3  A    between atoms: N_11  and  N_12 
REMARK       I    between atoms: N_12  and  C_13 
REMARK    4  A    between atoms: C_13  and  C_14 
REMARK    5  A    between atoms: C_14  and  N_15 
REMARK    6  A    between atoms: N_15  and  C_16 
REMARK    7  A    between atoms: C_18  and  O_19 
ROOT
HETATM    1  C   UNL     1     -41.597  58.538 -52.681  1.00  0.00     0.289 C 
HETATM    2  N   UNL     1     -41.343  58.554 -54.040  1.00  0.00    -0.262 N 
HETATM    3  O   UNL     1     -41.891  59.548 -52.043  1.00  0.00    -0.264 OA
HETATM    4  H   UNL     1     -41.351  57.667 -54.544  1.00  0.00     0.190 HD
ENDROOT
BRANCH   2   5
HETATM    5  N   UNL     1     -41.653  59.722 -54.757  1.00  0.00    -0.266 N 
HETATM    6  C   UNL     1     -42.221  59.573 -56.012  1.00  0.00     0.253 C 
HETATM    7  O   UNL     1     -42.244  58.502 -56.620  1.00  0.00    -0.270 OA
HETATM    8  H   UNL     1     -41.903  60.523 -54.180  1.00  0.00     0.190 HD
BRANCH   6   9
HETATM    9  C   UNL     1     -42.786  60.872 -56.600  1.00  0.00     0.224 C 
BRANCH   9  10
HETATM   10  N   UNL     1     -41.681  61.730 -57.027  1.00  0.00    -0.381 N 
HETATM   11  H   UNL     1     -40.872  61.630 -56.410  1.00  0.00     0.160 HD
BRANCH  10  12
HETATM   12  C   UNL     1     -41.327  61.816 -58.374  1.00  0.00     0.030 A 
HETATM   13  C   UNL     1     -40.262  62.664 -58.728  1.00  0.00     0.065 A 
HETATM   14  C   UNL     1     -39.904  62.874 -60.063  1.00  0.00     0.070 A 
HETATM   15  C   UNL     1     -40.635  62.246 -61.070  1.00  0.00     0.037 A 
HETATM   16  C   UNL     1     -41.717  61.430 -60.746  1.00  0.00     0.005 A 
HETATM   17  C   UNL     1     -42.066  61.229 -59.408  1.00  0.00     0.029 A 
BRANCH  14  18
HETATM   18  O   UNL     1     -38.882  63.666 -60.509  1.00  0.00    -0.356 OA
HETATM   19  C   UNL     1     -38.356  64.613 -59.587  1.00  0.00     0.210 C 
ENDBRANCH  14  18
ENDBRANCH  10  12
ENDBRANCH   9  10
ENDBRANCH   6   9
ENDBRANCH   2   5
BRANCH   1  20
HETATM   20  C   UNL     1     -41.477  57.209 -52.084  1.00  0.00     0.134 A 
HETATM   21  C   UNL     1     -41.654  56.953 -50.740  1.00  0.00     0.089 A 
HETATM   22  S   UNL     1     -41.403  55.295 -50.417  1.00  0.00    -0.079 SA
HETATM   23  C   UNL     1     -41.044  55.013 -52.082  1.00  0.00     0.108 A 
HETATM   24  N   UNL     1     -41.156  56.085 -52.849  1.00  0.00    -0.235 NA
BRANCH  23  25
HETATM   25  C   UNL     1     -40.648  53.678 -52.581  1.00  0.00    -0.000 A 
HETATM   26  C   UNL     1     -39.958  52.736 -51.801  1.00  0.00     0.015 A 
HETATM   27  C   UNL     1     -39.579  51.495 -52.331  1.00  0.00     0.007 A 
HETATM   28  C   UNL     1     -39.873  51.168 -53.656  1.00  0.00    -0.062 A 
HETATM   29  C   UNL     1     -39.476  49.841 -54.230  1.00  0.00     0.048 C 
HETATM   30  C   UNL     1     -40.569  52.092 -54.440  1.00  0.00     0.007 A 
HETATM   31  C   UNL     1     -40.946  53.331 -53.910  1.00  0.00     0.015 A 
ENDBRANCH  23  25
ENDBRANCH   1  20
TORSDOF 7
ENDMDL
MODEL 8
REMARK VINA RESULT:      -7.8      2.907     10.358
REMARK  7 active torsions:
REMARK  status: ('A' for Active; 'I' for Inactive)
REMARK    1  A    between atoms: C_5  and  C_6 
REMARK    2  A    between atoms: C_9  and  C_10 
REMARK       I    between atoms: C_10  and  N_11 
REMARK    3  A    between atoms: N_11  and  N_12 
REMARK       I    between atoms: N_12  and  C_13 
REMARK    4  A    between atoms: C_13  and  C_14 
REMARK    5  A    between atoms: C_14  and  N_15 
REMARK    6  A    between atoms: N_15  and  C_16 
REMARK    7  A    between atoms: C_18  and  O_19 
ROOT
HETATM    1  C   UNL     1     -45.126  57.819 -51.373  1.00  0.00     0.289 C 
HETATM    2  N   UNL     1     -44.975  57.673 -52.740  1.00  0.00    -0.262 N 
HETATM    3  O   UNL     1     -45.010  56.884 -50.583  1.00  0.00    -0.264 OA
HETATM    4  H   UNL     1     -44.839  58.511 -53.304  1.00  0.00     0.190 HD
ENDROOT
BRANCH   2   5
HETATM    5  N   UNL     1     -44.446  56.463 -53.220  1.00  0.00    -0.266 N 
HETATM    6  C   UNL     1     -43.627  56.519 -54.336  1.00  0.00     0.253 C 
HETATM    7  O   UNL     1     -43.536  57.513 -55.057  1.00  0.00    -0.270 OA
HETATM    8  H   UNL     1     -44.281  55.756 -52.506  1.00  0.00     0.190 HD
BRANCH   6   9
HETATM    9  C   UNL     1     -42.870  55.215 -54.622  1.00  0.00     0.224 C 
BRANCH   9  10
HETATM   10  N   UNL     1     -42.998  54.321 -53.471  1.00  0.00    -0.381 N 
HETATM   11  H   UNL     1     -43.766  53.659 -53.596  1.00  0.00     0.160 HD
BRANCH  10  12
HETATM   12  C   UNL     1     -41.868  53.738 -52.895  1.00  0.00     0.030 A 
HETATM   13  C   UNL     1     -41.139  52.809 -53.659  1.00  0.00     0.065 A 
HETATM   14  C   UNL     1     -40.050  52.114 -53.125  1.00  0.00     0.070 A 
HETATM   15  C   UNL     1     -39.692  52.329 -51.795  1.00  0.00     0.037 A 
HETATM   16  C   UNL     1     -40.421  53.218 -51.008  1.00  0.00     0.005 A 
HETATM   17  C   UNL     1     -41.509  53.905 -51.553  1.00  0.00     0.029 A 
BRANCH  14  18
HETATM   18  O   UNL     1     -39.272  51.202 -53.786  1.00  0.00    -0.356 OA
HETATM   19  C   UNL     1     -39.937  50.076 -54.342  1.00  0.00     0.210 C 
ENDBRANCH  14  18
ENDBRANCH  10  12
ENDBRANCH   9  10
ENDBRANCH   6   9
ENDBRANCH   2   5
BRANCH   1  20
HETATM   20  C   UNL     1     -45.442  59.187 -50.967  1.00  0.00     0.134 A 
HETATM   21  C   UNL     1     -45.895  60.160 -51.835  1.00  0.00     0.089 A 
HETATM   22  S   UNL     1     -46.122  61.633 -51.002  1.00  0.00    -0.079 SA
HETATM   23  C   UNL     1     -45.578  60.903 -49.536  1.00  0.00     0.108 A 
HETATM   24  N   UNL     1     -45.291  59.616 -49.646  1.00  0.00    -0.235 NA
BRANCH  23  25
HETATM   25  C   UNL     1     -45.452  61.673 -48.279  1.00  0.00    -0.000 A 
HETATM   26  C   UNL     1     -45.394  63.075 -48.235  1.00  0.00     0.015 A 
HETATM   27  C   UNL     1     -45.244  63.757 -47.020  1.00  0.00     0.007 A 
HETATM   28  C   UNL     1     -45.140  63.053 -45.818  1.00  0.00    -0.062 A 
HETATM   29  C   UNL     1     -44.984  63.774 -44.513  1.00  0.00     0.048 C 
HETATM   30  C   UNL     1     -45.207  61.657 -45.847  1.00  0.00     0.007 A 
HETATM   31  C   UNL     1     -45.356  60.979 -47.061  1.00  0.00     0.015 A 
ENDBRANCH  23  25
ENDBRANCH   1  20
TORSDOF 7
ENDMDL
MODEL 9
REMARK VINA RESULT:      -7.5      2.721      4.257
REMARK  7 active torsions:
REMARK  status: ('A' for Active; 'I' for Inactive)
REMARK    1  A    between atoms: C_5  and  C_6 
REMARK    2  A    between atoms: C_9  and  C_10 
REMARK       I    between atoms: C_10  and  N_11 
REMARK    3  A    between atoms: N_11  and  N_12 
REMARK       I    between atoms: N_12  and  C_13 
REMARK    4  A    between atoms: C_13  and  C_14 
REMARK    5  A    between atoms: C_14  and  N_15 
REMARK    6  A    between atoms: N_15  and  C_16 
REMARK    7  A    between atoms: C_18  and  O_19 
ROOT
HETATM    1  C   UNL     1     -41.582  58.136 -51.543  1.00  0.00     0.289 C 
HETATM    2  N   UNL     1     -41.377  58.373 -52.890  1.00  0.00    -0.262 N 
HETATM    3  O   UNL     1     -41.920  59.015 -50.753  1.00  0.00    -0.264 OA
HETATM    4  H   UNL     1     -41.344  57.573 -53.522  1.00  0.00     0.190 HD
ENDROOT
BRANCH   2   5
HETATM    5  N   UNL     1     -41.789  59.609 -53.413  1.00  0.00    -0.266 N 
HETATM    6  C   UNL     1     -42.257  59.631 -54.717  1.00  0.00     0.253 C 
HETATM    7  O   UNL     1     -42.108  58.694 -55.503  1.00  0.00    -0.270 OA
HETATM    8  H   UNL     1     -42.172  60.257 -52.727  1.00  0.00     0.190 HD
BRANCH   6   9
HETATM    9  C   UNL     1     -42.946  60.944 -55.112  1.00  0.00     0.224 C 
BRANCH   9  10
HETATM   10  N   UNL     1     -44.371  60.695 -55.325  1.00  0.00    -0.381 N 
HETATM   11  H   UNL     1     -44.533  59.764 -55.716  1.00  0.00     0.160 HD
BRANCH  10  12
HETATM   12  C   UNL     1     -45.307  61.042 -54.349  1.00  0.00     0.030 A 
HETATM   13  C   UNL     1     -45.372  60.259 -53.184  1.00  0.00     0.065 A 
HETATM   14  C   UNL     1     -46.340  60.486 -52.200  1.00  0.00     0.070 A 
HETATM   15  C   UNL     1     -47.279  61.497 -52.392  1.00  0.00     0.037 A 
HETATM   16  C   UNL     1     -47.258  62.263 -53.556  1.00  0.00     0.005 A 
HETATM   17  C   UNL     1     -46.286  62.025 -54.532  1.00  0.00     0.029 A 
BRANCH  14  18
HETATM   18  O   UNL     1     -46.480  59.790 -51.030  1.00  0.00    -0.356 OA
HETATM   19  C   UNL     1     -45.504  60.029 -50.023  1.00  0.00     0.210 C 
ENDBRANCH  14  18
ENDBRANCH  10  12
ENDBRANCH   9  10
ENDBRANCH   6   9
ENDBRANCH   2   5
BRANCH   1  20
HETATM   20  C   UNL     1     -41.354  56.744 -51.157  1.00  0.00     0.134 A 
HETATM   21  C   UNL     1     -41.318  56.307 -49.849  1.00  0.00     0.089 A 
HETATM   22  S   UNL     1     -40.998  54.630 -49.797  1.00  0.00    -0.079 SA
HETATM   23  C   UNL     1     -40.896  54.583 -51.520  1.00  0.00     0.108 A 
HETATM   24  N   UNL     1     -41.140  55.743 -52.107  1.00  0.00    -0.235 NA
BRANCH  23  25
HETATM   25  C   UNL     1     -40.564  53.340 -52.249  1.00  0.00    -0.000 A 
HETATM   26  C   UNL     1     -39.826  52.287 -51.685  1.00  0.00     0.015 A 
HETATM   27  C   UNL     1     -39.512  51.142 -52.429  1.00  0.00     0.007 A 
HETATM   28  C   UNL     1     -39.921  51.024 -53.760  1.00  0.00    -0.062 A 
HETATM   29  C   UNL     1     -39.594  49.800 -54.562  1.00  0.00     0.048 C 
HETATM   30  C   UNL     1     -40.666  52.060 -54.330  1.00  0.00     0.007 A 
HETATM   31  C   UNL     1     -40.978  53.203 -53.585  1.00  0.00     0.015 A 
ENDBRANCH  23  25
ENDBRANCH   1  20
TORSDOF 7
ENDMDL
MODEL 10
REMARK VINA RESULT:      -7.5      1.707      2.208
REMARK  7 active torsions:
REMARK  status: ('A' for Active; 'I' for Inactive)
REMARK    1  A    between atoms: C_5  and  C_6 
REMARK    2  A    between atoms: C_9  and  C_10 
REMARK       I    between atoms: C_10  and  N_11 
REMARK    3  A    between atoms: N_11  and  N_12 
REMARK       I    between atoms: N_12  and  C_13 
REMARK    4  A    between atoms: C_13  and  C_14 
REMARK    5  A    between atoms: C_14  and  N_15 
REMARK    6  A    between atoms: N_15  and  C_16 
REMARK    7  A    between atoms: C_18  and  O_19 
ROOT
HETATM    1  C   UNL     1     -43.614  57.405 -51.568  1.00  0.00     0.289 C 
HETATM    2  N   UNL     1     -43.510  58.550 -50.798  1.00  0.00    -0.262 N 
HETATM    3  O   UNL     1     -44.504  57.236 -52.399  1.00  0.00    -0.264 OA
HETATM    4  H   UNL     1     -42.628  58.732 -50.319  1.00  0.00     0.190 HD
ENDROOT
BRANCH   2   5
HETATM    5  N   UNL     1     -44.314  59.650 -51.139  1.00  0.00    -0.266 N 
HETATM    6  C   UNL     1     -43.742  60.650 -51.908  1.00  0.00     0.253 C 
HETATM    7  O   UNL     1     -42.528  60.742 -52.100  1.00  0.00    -0.270 OA
HETATM    8  H   UNL     1     -45.305  59.440 -51.239  1.00  0.00     0.190 HD
BRANCH   6   9
HETATM    9  C   UNL     1     -44.749  61.660 -52.470  1.00  0.00     0.224 C 
BRANCH   9  10
HETATM   10  N   UNL     1     -44.484  62.978 -51.892  1.00  0.00    -0.381 N 
HETATM   11  H   UNL     1     -44.904  63.722 -52.454  1.00  0.00     0.160 HD
BRANCH  10  12
HETATM   12  C   UNL     1     -44.620  63.192 -50.520  1.00  0.00     0.030 A 
HETATM   13  C   UNL     1     -45.806  62.768 -49.896  1.00  0.00     0.065 A 
HETATM   14  C   UNL     1     -46.057  63.025 -48.545  1.00  0.00     0.070 A 
HETATM   15  C   UNL     1     -45.118  63.742 -47.803  1.00  0.00     0.037 A 
HETATM   16  C   UNL     1     -43.952  64.204 -48.409  1.00  0.00     0.005 A 
HETATM   17  C   UNL     1     -43.714  63.942 -49.761  1.00  0.00     0.029 A 
BRANCH  14  18
HETATM   18  O   UNL     1     -47.170  62.646 -47.844  1.00  0.00    -0.356 OA
HETATM   19  C   UNL     1     -46.955  61.874 -46.669  1.00  0.00     0.210 C 
ENDBRANCH  14  18
ENDBRANCH  10  12
ENDBRANCH   9  10
ENDBRANCH   6   9
ENDBRANCH   2   5
BRANCH   1  20
HETATM   20  C   UNL     1     -42.567  56.423 -51.291  1.00  0.00     0.134 A 
HETATM   21  C   UNL     1     -41.701  56.506 -50.221  1.00  0.00     0.089 A 
HETATM   22  S   UNL     1     -40.604  55.198 -50.247  1.00  0.00    -0.079 SA
HETATM   23  C   UNL     1     -41.324  54.606 -51.701  1.00  0.00     0.108 A 
HETATM   24  N   UNL     1     -42.361  55.315 -52.117  1.00  0.00    -0.235 NA
BRANCH  23  25
HETATM   25  C   UNL     1     -40.807  53.409 -52.399  1.00  0.00    -0.000 A 
HETATM   26  C   UNL     1     -41.109  53.105 -53.735  1.00  0.00     0.015 A 
HETATM   27  C   UNL     1     -40.618  51.941 -54.342  1.00  0.00     0.007 A 
HETATM   28  C   UNL     1     -39.819  51.048 -53.625  1.00  0.00    -0.062 A 
HETATM   29  C   UNL     1     -39.285  49.803 -54.268  1.00  0.00     0.048 C 
HETATM   30  C   UNL     1     -39.502  51.345 -52.297  1.00  0.00     0.007 A 
HETATM   31  C   UNL     1     -39.994  52.507 -51.693  1.00  0.00     0.015 A 
ENDBRANCH  23  25
ENDBRANCH   1  20
TORSDOF 7
ENDMDL
