MODEL 1
REMARK VINA RESULT:      -8.3      0.000      0.000
REMARK  5 active torsions:
REMARK  status: ('A' for Active; 'I' for Inactive)
REMARK    1  A    between atoms: C_4  and  N_5 
REMARK       I    between atoms: N_5  and  C_6 
REMARK       I    between atoms: C_6  and  N_7 
REMARK    2  A    between atoms: N_7  and  C_8 
REMARK    3  A    between atoms: C_8  and  C_9 
REMARK    4  A    between atoms: C_9  and  N_10 
REMARK    5  A    between atoms: C_9  and  C_14 
ROOT
HETATM    1  N   UNL     1     -43.522  54.881 -53.497  1.00  0.00    -0.307 N 
HETATM    2  C   UNL     1     -43.786  55.797 -54.455  1.00  0.00     0.320 C 
HETATM    3  N   UNL     1     -42.967  55.843 -55.539  1.00  0.00    -0.340 N 
HETATM    4  O   UNL     1     -44.789  56.505 -54.392  1.00  0.00    -0.247 OA
HETATM    5  H   UNL     1     -44.295  54.741 -52.843  1.00  0.00     0.170 HD
HETATM    6  H   UNL     1     -42.368  55.046 -55.702  1.00  0.00     0.164 HD
ENDROOT
BRANCH   1   7
HETATM    7  C   UNL     1     -42.386  54.109 -53.151  1.00  0.00     0.066 A 
HETATM    8  C   UNL     1     -41.808  53.148 -53.991  1.00  0.00     0.038 A 
HETATM    9  C   UNL     1     -40.697  52.410 -53.570  1.00  0.00    -0.059 A 
HETATM   10  C   UNL     1     -40.067  51.386 -54.471  1.00  0.00     0.048 C 
HETATM   11  C   UNL     1     -40.126  52.691 -52.325  1.00  0.00     0.020 A 
HETATM   12  C   UNL     1     -40.663  53.693 -51.501  1.00  0.00    -0.005 A 
HETATM   13  C   UNL     1     -41.805  54.414 -51.907  1.00  0.00     0.093 A 
HETATM   14  C   UNL     1     -40.080  54.013 -50.269  1.00  0.00     0.015 A 
HETATM   15  N   UNL     1     -42.345  55.387 -51.135  1.00  0.00    -0.258 NA
HETATM   16  C   UNL     1     -41.747  55.672 -49.956  1.00  0.00     0.117 A 
HETATM   17  C   UNL     1     -40.626  55.020 -49.484  1.00  0.00     0.020 A 
ENDBRANCH   1   7
BRANCH   3  18
HETATM   18  C   UNL     1     -43.044  56.916 -56.518  1.00  0.00     0.164 C 
BRANCH  18  19
HETATM   19  C   UNL     1     -42.652  56.564 -57.976  1.00  0.00     0.261 C 
BRANCH  19  20
HETATM   20  N   UNL     1     -41.806  57.621 -58.689  1.00  0.00    -0.067 N 
HETATM   21  H   UNL     1     -40.851  57.344 -58.424  1.00  0.00     0.280 HD
HETATM   22  C   UNL     1     -41.795  57.577 -60.189  1.00  0.00     0.270 C 
HETATM   23  C   UNL     1     -42.011  59.013 -58.173  1.00  0.00     0.270 C 
ENDBRANCH  19  20
BRANCH  19  24
HETATM   24  C   UNL     1     -43.818  56.132 -58.819  1.00  0.00     0.085 A 
HETATM   25  O   UNL     1     -44.848  57.031 -58.898  1.00  0.00    -0.325 OA
HETATM   26  C   UNL     1     -45.790  56.489 -59.713  1.00  0.00     0.142 A 
HETATM   27  C   UNL     1     -45.383  55.256 -60.163  1.00  0.00     0.027 A 
HETATM   28  C   UNL     1     -44.107  55.026 -59.594  1.00  0.00     0.037 A 
ENDBRANCH  19  24
ENDBRANCH  18  19
ENDBRANCH   3  18
TORSDOF 5
ENDMDL
MODEL 2
REMARK VINA RESULT:      -8.3      3.216      5.527
REMARK  5 active torsions:
REMARK  status: ('A' for Active; 'I' for Inactive)
REMARK    1  A    between atoms: C_4  and  N_5 
REMARK       I    between atoms: N_5  and  C_6 
REMARK       I    between atoms: C_6  and  N_7 
REMARK    2  A    between atoms: N_7  and  C_8 
REMARK    3  A    between atoms: C_8  and  C_9 
REMARK    4  A    between atoms: C_9  and  N_10 
REMARK    5  A    between atoms: C_9  and  C_14 
ROOT
HETATM    1  N   UNL     1     -42.863  54.774 -53.352  1.00  0.00    -0.307 N 
HETATM    2  C   UNL     1     -42.980  55.917 -54.065  1.00  0.00     0.320 C 
HETATM    3  N   UNL     1     -41.899  56.738 -54.138  1.00  0.00    -0.340 N 
HETATM    4  O   UNL     1     -44.002  56.161 -54.703  1.00  0.00    -0.247 OA
HETATM    5  H   UNL     1     -43.613  54.103 -53.532  1.00  0.00     0.170 HD
HETATM    6  H   UNL     1     -41.003  56.350 -53.879  1.00  0.00     0.164 HD
ENDROOT
BRANCH   1   7
HETATM    7  C   UNL     1     -41.966  54.315 -52.357  1.00  0.00     0.066 A 
HETATM    8  C   UNL     1     -41.928  54.811 -51.048  1.00  0.00     0.038 A 
HETATM    9  C   UNL     1     -40.997  54.320 -50.126  1.00  0.00    -0.059 A 
HETATM   10  C   UNL     1     -40.960  54.842 -48.718  1.00  0.00     0.048 C 
HETATM   11  C   UNL     1     -40.149  53.277 -50.507  1.00  0.00     0.020 A 
HETATM   12  C   UNL     1     -40.219  52.733 -51.800  1.00  0.00    -0.005 A 
HETATM   13  C   UNL     1     -41.132  53.251 -52.743  1.00  0.00     0.093 A 
HETATM   14  C   UNL     1     -39.403  51.662 -52.185  1.00  0.00     0.015 A 
HETATM   15  N   UNL     1     -41.224  52.746 -53.996  1.00  0.00    -0.258 NA
HETATM   16  C   UNL     1     -40.425  51.706 -54.327  1.00  0.00     0.117 A 
HETATM   17  C   UNL     1     -39.508  51.136 -53.466  1.00  0.00     0.020 A 
ENDBRANCH   1   7
BRANCH   3  18
HETATM   18  C   UNL     1     -41.985  58.076 -54.704  1.00  0.00     0.164 C 
BRANCH  18  19
HETATM   19  C   UNL     1     -42.291  59.235 -53.722  1.00  0.00     0.261 C 
BRANCH  19  20
HETATM   20  N   UNL     1     -42.206  60.635 -54.331  1.00  0.00    -0.067 N 
HETATM   21  H   UNL     1     -41.205  60.853 -54.228  1.00  0.00     0.280 HD
HETATM   22  C   UNL     1     -42.452  60.744 -55.808  1.00  0.00     0.270 C 
HETATM   23  C   UNL     1     -42.957  61.679 -53.562  1.00  0.00     0.270 C 
ENDBRANCH  19  20
BRANCH  19  24
HETATM   24  C   UNL     1     -41.520  59.146 -52.436  1.00  0.00     0.085 A 
HETATM   25  O   UNL     1     -40.157  59.182 -52.567  1.00  0.00    -0.325 OA
HETATM   26  C   UNL     1     -39.633  59.118 -51.315  1.00  0.00     0.142 A 
HETATM   27  C   UNL     1     -40.636  59.044 -50.379  1.00  0.00     0.027 A 
HETATM   28  C   UNL     1     -41.855  59.070 -51.098  1.00  0.00     0.037 A 
ENDBRANCH  19  24
ENDBRANCH  18  19
ENDBRANCH   3  18
TORSDOF 5
ENDMDL
MODEL 3
REMARK VINA RESULT:      -8.0      3.384      5.381
REMARK  5 active torsions:
REMARK  status: ('A' for Active; 'I' for Inactive)
REMARK    1  A    between atoms: C_4  and  N_5 
REMARK       I    between atoms: N_5  and  C_6 
REMARK       I    between atoms: C_6  and  N_7 
REMARK    2  A    between atoms: N_7  and  C_8 
REMARK    3  A    between atoms: C_8  and  C_9 
REMARK    4  A    between atoms: C_9  and  N_10 
REMARK    5  A    between atoms: C_9  and  C_14 
ROOT
HETATM    1  N   UNL     1     -40.666  54.058 -50.580  1.00  0.00    -0.307 N 
HETATM    2  C   UNL     1     -41.383  55.115 -50.136  1.00  0.00     0.320 C 
HETATM    3  N   UNL     1     -42.398  55.572 -50.916  1.00  0.00    -0.340 N 
HETATM    4  O   UNL     1     -41.182  55.589 -49.020  1.00  0.00    -0.247 OA
HETATM    5  H   UNL     1     -40.090  53.623 -49.856  1.00  0.00     0.170 HD
HETATM    6  H   UNL     1     -42.729  54.963 -51.651  1.00  0.00     0.164 HD
ENDROOT
BRANCH   1   7
HETATM    7  C   UNL     1     -40.482  53.448 -51.845  1.00  0.00     0.066 A 
HETATM    8  C   UNL     1     -40.519  54.142 -53.061  1.00  0.00     0.038 A 
HETATM    9  C   UNL     1     -40.348  53.464 -54.274  1.00  0.00    -0.059 A 
HETATM   10  C   UNL     1     -40.376  54.205 -55.580  1.00  0.00     0.048 C 
HETATM   11  C   UNL     1     -40.070  52.095 -54.253  1.00  0.00     0.020 A 
HETATM   12  C   UNL     1     -39.972  51.402 -53.036  1.00  0.00    -0.005 A 
HETATM   13  C   UNL     1     -40.180  52.075 -51.813  1.00  0.00     0.093 A 
HETATM   14  C   UNL     1     -39.656  50.038 -52.997  1.00  0.00     0.015 A 
HETATM   15  N   UNL     1     -40.092  51.435 -50.624  1.00  0.00    -0.258 NA
HETATM   16  C   UNL     1     -39.776  50.119 -50.628  1.00  0.00     0.117 A 
HETATM   17  C   UNL     1     -39.551  49.385 -51.775  1.00  0.00     0.020 A 
ENDBRANCH   1   7
BRANCH   3  18
HETATM   18  C   UNL     1     -43.091  56.818 -50.627  1.00  0.00     0.164 C 
BRANCH  18  19
HETATM   19  C   UNL     1     -43.023  57.926 -51.709  1.00  0.00     0.261 C 
BRANCH  19  20
HETATM   20  N   UNL     1     -44.053  59.046 -51.550  1.00  0.00    -0.067 N 
HETATM   21  H   UNL     1     -44.218  59.324 -52.528  1.00  0.00     0.280 HD
HETATM   22  C   UNL     1     -45.411  58.647 -51.051  1.00  0.00     0.270 C 
HETATM   23  C   UNL     1     -43.530  60.256 -50.839  1.00  0.00     0.270 C 
ENDBRANCH  19  20
BRANCH  19  24
HETATM   24  C   UNL     1     -43.006  57.389 -53.111  1.00  0.00     0.085 A 
HETATM   25  O   UNL     1     -43.781  56.279 -53.323  1.00  0.00    -0.325 OA
HETATM   26  C   UNL     1     -43.664  55.954 -54.637  1.00  0.00     0.142 A 
HETATM   27  C   UNL     1     -42.828  56.837 -55.277  1.00  0.00     0.027 A 
HETATM   28  C   UNL     1     -42.407  57.768 -54.297  1.00  0.00     0.037 A 
ENDBRANCH  19  24
ENDBRANCH  18  19
ENDBRANCH   3  18
TORSDOF 5
ENDMDL
MODEL 4
REMARK VINA RESULT:      -8.0      3.879      6.537
REMARK  5 active torsions:
REMARK  status: ('A' for Active; 'I' for Inactive)
REMARK    1  A    between atoms: C_4  and  N_5 
REMARK       I    between atoms: N_5  and  C_6 
REMARK       I    between atoms: C_6  and  N_7 
REMARK    2  A    between atoms: N_7  and  C_8 
REMARK    3  A    between atoms: C_8  and  C_9 
REMARK    4  A    between atoms: C_9  and  N_10 
REMARK    5  A    between atoms: C_9  and  C_14 
ROOT
HETATM    1  N   UNL     1     -44.210  55.961 -51.119  1.00  0.00    -0.307 N 
HETATM    2  C   UNL     1     -44.613  57.247 -51.013  1.00  0.00     0.320 C 
HETATM    3  N   UNL     1     -43.680  58.224 -51.171  1.00  0.00    -0.340 N 
HETATM    4  O   UNL     1     -45.801  57.527 -50.869  1.00  0.00    -0.247 OA
HETATM    5  H   UNL     1     -44.983  55.300 -51.228  1.00  0.00     0.170 HD
HETATM    6  H   UNL     1     -42.804  57.964 -51.603  1.00  0.00     0.164 HD
ENDROOT
BRANCH   1   7
HETATM    7  C   UNL     1     -42.956  55.307 -51.053  1.00  0.00     0.066 A 
HETATM    8  C   UNL     1     -42.240  55.105 -49.866  1.00  0.00     0.038 A 
HETATM    9  C   UNL     1     -40.995  54.467 -49.884  1.00  0.00    -0.059 A 
HETATM   10  C   UNL     1     -40.229  54.239 -48.613  1.00  0.00     0.048 C 
HETATM   11  C   UNL     1     -40.504  53.970 -51.095  1.00  0.00     0.020 A 
HETATM   12  C   UNL     1     -41.242  54.115 -52.281  1.00  0.00    -0.005 A 
HETATM   13  C   UNL     1     -42.480  54.790 -52.272  1.00  0.00     0.093 A 
HETATM   14  C   UNL     1     -40.781  53.589 -53.495  1.00  0.00     0.015 A 
HETATM   15  N   UNL     1     -43.215  54.945 -53.399  1.00  0.00    -0.258 NA
HETATM   16  C   UNL     1     -42.741  54.415 -54.549  1.00  0.00     0.117 A 
HETATM   17  C   UNL     1     -41.542  53.736 -54.647  1.00  0.00     0.020 A 
ENDBRANCH   1   7
BRANCH   3  18
HETATM   18  C   UNL     1     -43.968  59.619 -50.876  1.00  0.00     0.164 C 
BRANCH  18  19
HETATM   19  C   UNL     1     -42.752  60.549 -50.633  1.00  0.00     0.261 C 
BRANCH  19  20
HETATM   20  N   UNL     1     -42.860  61.932 -51.278  1.00  0.00    -0.067 N 
HETATM   21  H   UNL     1     -41.957  62.011 -51.767  1.00  0.00     0.280 HD
HETATM   22  C   UNL     1     -43.879  62.090 -52.369  1.00  0.00     0.270 C 
HETATM   23  C   UNL     1     -42.918  63.059 -50.293  1.00  0.00     0.270 C 
ENDBRANCH  19  20
BRANCH  19  24
HETATM   24  C   UNL     1     -41.433  59.900 -50.941  1.00  0.00     0.085 A 
HETATM   25  O   UNL     1     -41.265  59.503 -52.241  1.00  0.00    -0.325 OA
HETATM   26  C   UNL     1     -40.021  58.967 -52.339  1.00  0.00     0.142 A 
HETATM   27  C   UNL     1     -39.382  59.015 -51.123  1.00  0.00     0.027 A 
HETATM   28  C   UNL     1     -40.288  59.622 -50.220  1.00  0.00     0.037 A 
ENDBRANCH  19  24
ENDBRANCH  18  19
ENDBRANCH   3  18
TORSDOF 5
ENDMDL
MODEL 5
REMARK VINA RESULT:      -7.9      4.163      5.919
REMARK  5 active torsions:
REMARK  status: ('A' for Active; 'I' for Inactive)
REMARK    1  A    between atoms: C_4  and  N_5 
REMARK       I    between atoms: N_5  and  C_6 
REMARK       I    between atoms: C_6  and  N_7 
REMARK    2  A    between atoms: N_7  and  C_8 
REMARK    3  A    between atoms: C_8  and  C_9 
REMARK    4  A    between atoms: C_9  and  N_10 
REMARK    5  A    between atoms: C_9  and  C_14 
ROOT
HETATM    1  N   UNL     1     -43.990  55.657 -51.286  1.00  0.00    -0.307 N 
HETATM    2  C   UNL     1     -44.395  56.947 -51.292  1.00  0.00     0.320 C 
HETATM    3  N   UNL     1     -43.842  57.786 -52.208  1.00  0.00    -0.340 N 
HETATM    4  O   UNL     1     -45.302  57.328 -50.554  1.00  0.00    -0.247 OA
HETATM    5  H   UNL     1     -44.604  55.040 -50.750  1.00  0.00     0.170 HD
HETATM    6  H   UNL     1     -43.357  57.367 -52.988  1.00  0.00     0.164 HD
ENDROOT
BRANCH   1   7
HETATM    7  C   UNL     1     -42.867  54.969 -51.806  1.00  0.00     0.066 A 
HETATM    8  C   UNL     1     -42.703  54.650 -53.160  1.00  0.00     0.038 A 
HETATM    9  C   UNL     1     -41.573  53.949 -53.596  1.00  0.00    -0.059 A 
HETATM   10  C   UNL     1     -41.388  53.613 -55.048  1.00  0.00     0.048 C 
HETATM   11  C   UNL     1     -40.574  53.630 -52.672  1.00  0.00     0.020 A 
HETATM   12  C   UNL     1     -40.702  53.999 -51.323  1.00  0.00    -0.005 A 
HETATM   13  C   UNL     1     -41.857  54.673 -50.874  1.00  0.00     0.093 A 
HETATM   14  C   UNL     1     -39.692  53.721 -50.393  1.00  0.00     0.015 A 
HETATM   15  N   UNL     1     -42.009  55.041 -49.580  1.00  0.00    -0.258 NA
HETATM   16  C   UNL     1     -41.007  54.763 -48.714  1.00  0.00     0.117 A 
HETATM   17  C   UNL     1     -39.842  54.112 -49.068  1.00  0.00     0.020 A 
ENDBRANCH   1   7
BRANCH   3  18
HETATM   18  C   UNL     1     -44.057  59.224 -52.164  1.00  0.00     0.164 C 
BRANCH  18  19
HETATM   19  C   UNL     1     -43.195  60.032 -51.160  1.00  0.00     0.261 C 
BRANCH  19  20
HETATM   20  N   UNL     1     -43.367  61.550 -51.239  1.00  0.00    -0.067 N 
HETATM   21  H   UNL     1     -42.518  61.886 -50.763  1.00  0.00     0.280 HD
HETATM   22  C   UNL     1     -43.287  62.168 -52.604  1.00  0.00     0.270 C 
HETATM   23  C   UNL     1     -44.535  62.070 -50.458  1.00  0.00     0.270 C 
ENDBRANCH  19  20
BRANCH  19  24
HETATM   24  C   UNL     1     -41.745  59.640 -51.170  1.00  0.00     0.085 A 
HETATM   25  O   UNL     1     -41.255  59.241 -52.385  1.00  0.00    -0.325 OA
HETATM   26  C   UNL     1     -39.939  58.954 -52.210  1.00  0.00     0.142 A 
HETATM   27  C   UNL     1     -39.571  59.165 -50.903  1.00  0.00     0.027 A 
HETATM   28  C   UNL     1     -40.733  59.615 -50.230  1.00  0.00     0.037 A 
ENDBRANCH  19  24
ENDBRANCH  18  19
ENDBRANCH   3  18
TORSDOF 5
ENDMDL
MODEL 6
REMARK VINA RESULT:      -7.8      3.875      6.062
REMARK  5 active torsions:
REMARK  status: ('A' for Active; 'I' for Inactive)
REMARK    1  A    between atoms: C_4  and  N_5 
REMARK       I    between atoms: N_5  and  C_6 
REMARK       I    between atoms: C_6  and  N_7 
REMARK    2  A    between atoms: N_7  and  C_8 
REMARK    3  A    between atoms: C_8  and  C_9 
REMARK    4  A    between atoms: C_9  and  N_10 
REMARK    5  A    between atoms: C_9  and  C_14 
ROOT
HETATM    1  N   UNL     1     -40.849  54.053 -50.659  1.00  0.00    -0.307 N 
HETATM    2  C   UNL     1     -41.721  55.003 -50.253  1.00  0.00     0.320 C 
HETATM    3  N   UNL     1     -42.801  55.256 -51.040  1.00  0.00    -0.340 N 
HETATM    4  O   UNL     1     -41.592  55.555 -49.163  1.00  0.00    -0.247 OA
HETATM    5  H   UNL     1     -40.207  53.750 -49.923  1.00  0.00     0.170 HD
HETATM    6  H   UNL     1     -43.036  54.568 -51.742  1.00  0.00     0.164 HD
ENDROOT
BRANCH   1   7
HETATM    7  C   UNL     1     -40.577  53.421 -51.897  1.00  0.00     0.066 A 
HETATM    8  C   UNL     1     -40.571  54.085 -53.130  1.00  0.00     0.038 A 
HETATM    9  C   UNL     1     -40.314  53.386 -54.314  1.00  0.00    -0.059 A 
HETATM   10  C   UNL     1     -40.296  54.095 -55.638  1.00  0.00     0.048 C 
HETATM   11  C   UNL     1     -39.994  52.027 -54.245  1.00  0.00     0.020 A 
HETATM   12  C   UNL     1     -39.938  51.366 -53.008  1.00  0.00    -0.005 A 
HETATM   13  C   UNL     1     -40.234  52.059 -51.815  1.00  0.00     0.093 A 
HETATM   14  C   UNL     1     -39.582  50.014 -52.918  1.00  0.00     0.015 A 
HETATM   15  N   UNL     1     -40.188  51.450 -50.607  1.00  0.00    -0.258 NA
HETATM   16  C   UNL     1     -39.831  50.146 -50.562  1.00  0.00     0.117 A 
HETATM   17  C   UNL     1     -39.522  49.393 -51.677  1.00  0.00     0.020 A 
ENDBRANCH   1   7
BRANCH   3  18
HETATM   18  C   UNL     1     -43.682  56.388 -50.799  1.00  0.00     0.164 C 
BRANCH  18  19
HETATM   19  C   UNL     1     -43.505  57.622 -51.720  1.00  0.00     0.261 C 
BRANCH  19  20
HETATM   20  N   UNL     1     -43.219  57.296 -53.186  1.00  0.00    -0.067 N 
HETATM   21  H   UNL     1     -42.534  56.532 -53.106  1.00  0.00     0.280 HD
HETATM   22  C   UNL     1     -44.344  56.694 -53.976  1.00  0.00     0.270 C 
HETATM   23  C   UNL     1     -42.543  58.404 -53.935  1.00  0.00     0.270 C 
ENDBRANCH  19  20
BRANCH  19  24
HETATM   24  C   UNL     1     -42.535  58.634 -51.181  1.00  0.00     0.085 A 
HETATM   25  O   UNL     1     -43.057  59.878 -50.941  1.00  0.00    -0.325 OA
HETATM   26  C   UNL     1     -42.055  60.643 -50.439  1.00  0.00     0.142 A 
HETATM   27  C   UNL     1     -40.894  59.914 -50.348  1.00  0.00     0.027 A 
HETATM   28  C   UNL     1     -41.202  58.615 -50.819  1.00  0.00     0.037 A 
ENDBRANCH  19  24
ENDBRANCH  18  19
ENDBRANCH   3  18
TORSDOF 5
ENDMDL
MODEL 7
REMARK VINA RESULT:      -7.8      3.137      4.611
REMARK  5 active torsions:
REMARK  status: ('A' for Active; 'I' for Inactive)
REMARK    1  A    between atoms: C_4  and  N_5 
REMARK       I    between atoms: N_5  and  C_6 
REMARK       I    between atoms: C_6  and  N_7 
REMARK    2  A    between atoms: N_7  and  C_8 
REMARK    3  A    between atoms: C_8  and  C_9 
REMARK    4  A    between atoms: C_9  and  N_10 
REMARK    5  A    between atoms: C_9  and  C_14 
ROOT
HETATM    1  N   UNL     1     -40.554  54.671 -54.574  1.00  0.00    -0.307 N 
HETATM    2  C   UNL     1     -41.632  55.452 -54.809  1.00  0.00     0.320 C 
HETATM    3  N   UNL     1     -42.715  55.307 -54.000  1.00  0.00    -0.340 N 
HETATM    4  O   UNL     1     -41.600  56.330 -55.669  1.00  0.00    -0.247 OA
HETATM    5  H   UNL     1     -39.708  54.990 -55.051  1.00  0.00     0.170 HD
HETATM    6  H   UNL     1     -42.580  54.819 -53.125  1.00  0.00     0.164 HD
ENDROOT
BRANCH   1   7
HETATM    7  C   UNL     1     -40.341  53.466 -53.860  1.00  0.00     0.066 A 
HETATM    8  C   UNL     1     -40.018  52.245 -54.466  1.00  0.00     0.038 A 
HETATM    9  C   UNL     1     -39.842  51.091 -53.694  1.00  0.00    -0.059 A 
HETATM   10  C   UNL     1     -39.487  49.782 -54.338  1.00  0.00     0.048 C 
HETATM   11  C   UNL     1     -39.924  51.186 -52.302  1.00  0.00     0.020 A 
HETATM   12  C   UNL     1     -40.187  52.419 -51.683  1.00  0.00    -0.005 A 
HETATM   13  C   UNL     1     -40.402  53.576 -52.460  1.00  0.00     0.093 A 
HETATM   14  C   UNL     1     -40.234  52.538 -50.288  1.00  0.00     0.015 A 
HETATM   15  N   UNL     1     -40.657  54.778 -51.892  1.00  0.00    -0.258 NA
HETATM   16  C   UNL     1     -40.685  54.854 -50.541  1.00  0.00     0.117 A 
HETATM   17  C   UNL     1     -40.482  53.774 -49.705  1.00  0.00     0.020 A 
ENDBRANCH   1   7
BRANCH   3  18
HETATM   18  C   UNL     1     -43.988  55.948 -54.293  1.00  0.00     0.164 C 
BRANCH  18  19
HETATM   19  C   UNL     1     -44.284  57.283 -53.563  1.00  0.00     0.261 C 
BRANCH  19  20
HETATM   20  N   UNL     1     -44.695  58.439 -54.476  1.00  0.00    -0.067 N 
HETATM   21  H   UNL     1     -43.787  58.753 -54.846  1.00  0.00     0.280 HD
HETATM   22  C   UNL     1     -45.484  58.083 -55.702  1.00  0.00     0.270 C 
HETATM   23  C   UNL     1     -45.292  59.606 -53.749  1.00  0.00     0.270 C 
ENDBRANCH  19  20
BRANCH  19  24
HETATM   24  C   UNL     1     -43.200  57.694 -52.608  1.00  0.00     0.085 A 
HETATM   25  O   UNL     1     -42.101  58.275 -53.185  1.00  0.00    -0.325 OA
HETATM   26  C   UNL     1     -41.248  58.601 -52.180  1.00  0.00     0.142 A 
HETATM   27  C   UNL     1     -41.778  58.243 -50.965  1.00  0.00     0.027 A 
HETATM   28  C   UNL     1     -43.042  57.664 -51.236  1.00  0.00     0.037 A 
ENDBRANCH  19  24
ENDBRANCH  18  19
ENDBRANCH   3  18
TORSDOF 5
ENDMDL
MODEL 8
REMARK VINA RESULT:      -7.8      3.279      5.246
REMARK  5 active torsions:
REMARK  status: ('A' for Active; 'I' for Inactive)
REMARK    1  A    between atoms: C_4  and  N_5 
REMARK       I    between atoms: N_5  and  C_6 
REMARK       I    between atoms: C_6  and  N_7 
REMARK    2  A    between atoms: N_7  and  C_8 
REMARK    3  A    between atoms: C_8  and  C_9 
REMARK    4  A    between atoms: C_9  and  N_10 
REMARK    5  A    between atoms: C_9  and  C_14 
ROOT
HETATM    1  N   UNL     1     -42.978  54.571 -53.829  1.00  0.00    -0.307 N 
HETATM    2  C   UNL     1     -43.175  55.890 -54.045  1.00  0.00     0.320 C 
HETATM    3  N   UNL     1     -42.089  56.709 -54.038  1.00  0.00    -0.340 N 
HETATM    4  O   UNL     1     -44.289  56.323 -54.332  1.00  0.00    -0.247 OA
HETATM    5  H   UNL     1     -43.782  53.992 -54.082  1.00  0.00     0.170 HD
HETATM    6  H   UNL     1     -41.181  56.275 -54.123  1.00  0.00     0.164 HD
ENDROOT
BRANCH   1   7
HETATM    7  C   UNL     1     -41.925  53.805 -53.270  1.00  0.00     0.066 A 
HETATM    8  C   UNL     1     -41.252  52.785 -53.953  1.00  0.00     0.038 A 
HETATM    9  C   UNL     1     -40.234  52.058 -53.325  1.00  0.00    -0.059 A 
HETATM   10  C   UNL     1     -39.502  50.970 -54.057  1.00  0.00     0.048 C 
HETATM   11  C   UNL     1     -39.850  52.409 -52.028  1.00  0.00     0.020 A 
HETATM   12  C   UNL     1     -40.479  53.470 -51.357  1.00  0.00    -0.005 A 
HETATM   13  C   UNL     1     -41.531  54.180 -51.973  1.00  0.00     0.093 A 
HETATM   14  C   UNL     1     -40.080  53.858 -50.071  1.00  0.00     0.015 A 
HETATM   15  N   UNL     1     -42.156  55.208 -51.352  1.00  0.00    -0.258 NA
HETATM   16  C   UNL     1     -41.735  55.559 -50.115  1.00  0.00     0.117 A 
HETATM   17  C   UNL     1     -40.713  54.922 -49.440  1.00  0.00     0.020 A 
ENDBRANCH   1   7
BRANCH   3  18
HETATM   18  C   UNL     1     -42.217  58.158 -54.057  1.00  0.00     0.164 C 
BRANCH  18  19
HETATM   19  C   UNL     1     -42.631  58.843 -52.730  1.00  0.00     0.261 C 
BRANCH  19  20
HETATM   20  N   UNL     1     -43.486  60.101 -52.894  1.00  0.00    -0.067 N 
HETATM   21  H   UNL     1     -43.564  60.435 -51.923  1.00  0.00     0.280 HD
HETATM   22  C   UNL     1     -42.858  61.252 -53.625  1.00  0.00     0.270 C 
HETATM   23  C   UNL     1     -44.880  59.831 -53.372  1.00  0.00     0.270 C 
ENDBRANCH  19  20
BRANCH  19  24
HETATM   24  C   UNL     1     -41.479  59.078 -51.795  1.00  0.00     0.085 A 
HETATM   25  O   UNL     1     -40.237  58.877 -52.335  1.00  0.00    -0.325 OA
HETATM   26  C   UNL     1     -39.328  59.158 -51.365  1.00  0.00     0.142 A 
HETATM   27  C   UNL     1     -39.965  59.540 -50.209  1.00  0.00     0.027 A 
HETATM   28  C   UNL     1     -41.353  59.496 -50.485  1.00  0.00     0.037 A 
ENDBRANCH  19  24
ENDBRANCH  18  19
ENDBRANCH   3  18
TORSDOF 5
ENDMDL
MODEL 9
REMARK VINA RESULT:      -7.7      3.275      5.321
REMARK  5 active torsions:
REMARK  status: ('A' for Active; 'I' for Inactive)
REMARK    1  A    between atoms: C_4  and  N_5 
REMARK       I    between atoms: N_5  and  C_6 
REMARK       I    between atoms: C_6  and  N_7 
REMARK    2  A    between atoms: N_7  and  C_8 
REMARK    3  A    between atoms: C_8  and  C_9 
REMARK    4  A    between atoms: C_9  and  N_10 
REMARK    5  A    between atoms: C_9  and  C_14 
ROOT
HETATM    1  N   UNL     1     -43.938  55.721 -51.050  1.00  0.00    -0.307 N 
HETATM    2  C   UNL     1     -44.281  57.028 -51.059  1.00  0.00     0.320 C 
HETATM    3  N   UNL     1     -43.298  57.946 -51.263  1.00  0.00    -0.340 N 
HETATM    4  O   UNL     1     -45.458  57.372 -50.979  1.00  0.00    -0.247 OA
HETATM    5  H   UNL     1     -44.737  55.089 -51.132  1.00  0.00     0.170 HD
HETATM    6  H   UNL     1     -42.423  57.612 -51.642  1.00  0.00     0.164 HD
ENDROOT
BRANCH   1   7
HETATM    7  C   UNL     1     -42.718  55.018 -50.889  1.00  0.00     0.066 A 
HETATM    8  C   UNL     1     -42.075  54.839 -49.658  1.00  0.00     0.038 A 
HETATM    9  C   UNL     1     -40.860  54.149 -49.582  1.00  0.00    -0.059 A 
HETATM   10  C   UNL     1     -40.171  53.947 -48.263  1.00  0.00     0.048 C 
HETATM   11  C   UNL     1     -40.330  53.579 -50.743  1.00  0.00     0.020 A 
HETATM   12  C   UNL     1     -40.998  53.702 -51.972  1.00  0.00    -0.005 A 
HETATM   13  C   UNL     1     -42.204  54.428 -52.058  1.00  0.00     0.093 A 
HETATM   14  C   UNL     1     -40.499  53.103 -53.136  1.00  0.00     0.015 A 
HETATM   15  N   UNL     1     -42.872  54.564 -53.228  1.00  0.00    -0.258 NA
HETATM   16  C   UNL     1     -42.363  53.963 -54.328  1.00  0.00     0.117 A 
HETATM   17  C   UNL     1     -41.193  53.231 -54.333  1.00  0.00     0.020 A 
ENDBRANCH   1   7
BRANCH   3  18
HETATM   18  C   UNL     1     -43.528  59.372 -51.090  1.00  0.00     0.164 C 
BRANCH  18  19
HETATM   19  C   UNL     1     -43.943  60.173 -52.350  1.00  0.00     0.261 C 
BRANCH  19  20
HETATM   20  N   UNL     1     -45.452  60.282 -52.576  1.00  0.00    -0.067 N 
HETATM   21  H   UNL     1     -45.708  59.306 -52.781  1.00  0.00     0.280 HD
HETATM   22  C   UNL     1     -46.290  60.634 -51.382  1.00  0.00     0.270 C 
HETATM   23  C   UNL     1     -45.830  61.089 -53.780  1.00  0.00     0.270 C 
ENDBRANCH  19  20
BRANCH  19  24
HETATM   24  C   UNL     1     -43.230  59.736 -53.597  1.00  0.00     0.085 A 
HETATM   25  O   UNL     1     -43.613  58.518 -54.094  1.00  0.00    -0.325 OA
HETATM   26  C   UNL     1     -42.890  58.301 -55.223  1.00  0.00     0.142 A 
HETATM   27  C   UNL     1     -42.048  59.360 -55.464  1.00  0.00     0.027 A 
HETATM   28  C   UNL     1     -42.270  60.291 -54.420  1.00  0.00     0.037 A 
ENDBRANCH  19  24
ENDBRANCH  18  19
ENDBRANCH   3  18
TORSDOF 5
ENDMDL
MODEL 10
REMARK VINA RESULT:      -7.5      2.102      3.141
REMARK  5 active torsions:
REMARK  status: ('A' for Active; 'I' for Inactive)
REMARK    1  A    between atoms: C_4  and  N_5 
REMARK       I    between atoms: N_5  and  C_6 
REMARK       I    between atoms: C_6  and  N_7 
REMARK    2  A    between atoms: N_7  and  C_8 
REMARK    3  A    between atoms: C_8  and  C_9 
REMARK    4  A    between atoms: C_9  and  N_10 
REMARK    5  A    between atoms: C_9  and  C_14 
ROOT
HETATM    1  N   UNL     1     -42.007  56.672 -55.340  1.00  0.00    -0.307 N 
HETATM    2  C   UNL     1     -42.446  56.865 -56.604  1.00  0.00     0.320 C 
HETATM    3  N   UNL     1     -43.203  55.889 -57.173  1.00  0.00    -0.340 N 
HETATM    4  O   UNL     1     -42.245  57.928 -57.187  1.00  0.00    -0.247 OA
HETATM    5  H   UNL     1     -41.657  57.523 -54.896  1.00  0.00     0.170 HD
HETATM    6  H   UNL     1     -43.609  55.198 -56.558  1.00  0.00     0.164 HD
ENDROOT
BRANCH   1   7
HETATM    7  C   UNL     1     -41.862  55.538 -54.503  1.00  0.00     0.066 A 
HETATM    8  C   UNL     1     -41.062  54.432 -54.816  1.00  0.00     0.038 A 
HETATM    9  C   UNL     1     -40.986  53.338 -53.947  1.00  0.00    -0.059 A 
HETATM   10  C   UNL     1     -40.122  52.154 -54.273  1.00  0.00     0.048 C 
HETATM   11  C   UNL     1     -41.666  53.392 -52.727  1.00  0.00     0.020 A 
HETATM   12  C   UNL     1     -42.423  54.522 -52.378  1.00  0.00    -0.005 A 
HETATM   13  C   UNL     1     -42.531  55.611 -53.269  1.00  0.00     0.093 A 
HETATM   14  C   UNL     1     -43.079  54.607 -51.143  1.00  0.00     0.015 A 
HETATM   15  N   UNL     1     -43.253  56.714 -52.960  1.00  0.00    -0.258 NA
HETATM   16  C   UNL     1     -43.864  56.762 -51.755  1.00  0.00     0.117 A 
HETATM   17  C   UNL     1     -43.808  55.745 -50.822  1.00  0.00     0.020 A 
ENDBRANCH   1   7
BRANCH   3  18
HETATM   18  C   UNL     1     -43.551  55.909 -58.585  1.00  0.00     0.164 C 
BRANCH  18  19
HETATM   19  C   UNL     1     -44.914  56.544 -58.963  1.00  0.00     0.261 C 
BRANCH  19  20
HETATM   20  N   UNL     1     -45.808  55.671 -59.845  1.00  0.00    -0.067 N 
HETATM   21  H   UNL     1     -46.111  54.940 -59.186  1.00  0.00     0.280 HD
HETATM   22  C   UNL     1     -47.092  56.286 -60.322  1.00  0.00     0.270 C 
HETATM   23  C   UNL     1     -45.077  54.977 -60.954  1.00  0.00     0.270 C 
ENDBRANCH  19  20
BRANCH  19  24
HETATM   24  C   UNL     1     -44.791  57.937 -59.511  1.00  0.00     0.085 A 
HETATM   25  O   UNL     1     -45.526  58.890 -58.857  1.00  0.00    -0.325 OA
HETATM   26  C   UNL     1     -45.274  60.078 -59.466  1.00  0.00     0.142 A 
HETATM   27  C   UNL     1     -44.387  59.907 -60.501  1.00  0.00     0.027 A 
HETATM   28  C   UNL     1     -44.067  58.528 -60.528  1.00  0.00     0.037 A 
ENDBRANCH  19  24
ENDBRANCH  18  19
ENDBRANCH   3  18
TORSDOF 5
ENDMDL
