MODEL 1
REMARK VINA RESULT:      -8.9      0.000      0.000
REMARK  6 active torsions:
REMARK  status: ('A' for Active; 'I' for Inactive)
REMARK    1  A    between atoms: O_2  and  C_3 
REMARK    2  A    between atoms: C_8  and  C_9 
REMARK    3  A    between atoms: C_9  and  N_10 
REMARK    4  A    between atoms: N_13  and  C_26 
REMARK    5  A    between atoms: N_18  and  C_22 
REMARK    6  A    between atoms: C_29  and  C_32 
ROOT
HETATM    1  N   UNL     1     -43.198  58.212 -55.026  1.00  0.00    -0.318 N 
HETATM    2  C   UNL     1     -42.811  56.876 -55.234  1.00  0.00     0.326 C 
HETATM    3  O   UNL     1     -43.089  56.240 -56.235  1.00  0.00    -0.247 OA
HETATM    4  N   UNL     1     -42.075  56.475 -54.097  1.00  0.00    -0.297 N 
HETATM    5  C   UNL     1     -41.846  57.613 -53.236  1.00  0.00     0.165 C 
HETATM    6  C   UNL     1     -42.947  58.628 -53.646  1.00  0.00     0.057 C 
HETATM    7  C   UNL     1     -42.462  60.080 -53.532  1.00  0.00     0.060 C 
HETATM    8  C   UNL     1     -42.325  60.546 -52.089  1.00  0.00     0.238 C 
HETATM    9  N   UNL     1     -43.591  60.323 -51.311  1.00  0.00    -0.063 N 
HETATM   10  H   UNL     1     -43.400  60.557 -50.318  1.00  0.00     0.280 HD
HETATM   11  C   UNL     1     -44.083  58.906 -51.361  1.00  0.00     0.238 C 
HETATM   12  C   UNL     1     -44.220  58.408 -52.794  1.00  0.00     0.060 C 
ENDROOT
BRANCH   4  13
HETATM   13  C   UNL     1     -41.519  55.187 -53.869  1.00  0.00     0.039 A 
HETATM   14  C   UNL     1     -40.794  54.517 -54.861  1.00  0.00     0.030 A 
HETATM   15  C   UNL     1     -40.281  53.229 -54.649  1.00  0.00     0.014 A 
HETATM   16  C   UNL     1     -40.479  52.566 -53.436  1.00  0.00    -0.023 A 
HETATM   17  C   UNL     1     -41.188  53.235 -52.433  1.00  0.00     0.014 A 
HETATM   18  C   UNL     1     -41.702  54.525 -52.648  1.00  0.00     0.030 A 
BRANCH  16  19
HETATM   19  C   UNL     1     -39.966  51.225 -53.211  1.00  0.00     0.010 A 
HETATM   20  C   UNL     1     -39.662  50.182 -54.118  1.00  0.00     0.152 A 
HETATM   21  N   UNL     1     -39.183  49.092 -53.515  1.00  0.00    -0.187 NA
HETATM   22  N   UNL     1     -39.187  49.423 -52.215  1.00  0.00    -0.289 N 
HETATM   23  H   UNL     1     -38.863  48.736 -51.542  1.00  0.00     0.188 HD
HETATM   24  C   UNL     1     -39.638  50.690 -51.982  1.00  0.00     0.123 A 
ENDBRANCH  16  19
ENDBRANCH   4  13
BRANCH   1  25
HETATM   25  C   UNL     1     -44.032  58.913 -55.995  1.00  0.00     0.167 C 
BRANCH  25  26
HETATM   26  C   UNL     1     -43.288  59.336 -57.237  1.00  0.00    -0.035 A 
HETATM   27  C   UNL     1     -43.729  58.985 -58.519  1.00  0.00     0.051 A 
HETATM   28  C   UNL     1     -43.051  59.452 -59.642  1.00  0.00     0.119 A 
HETATM   29  C   UNL     1     -41.949  60.293 -59.527  1.00  0.00     0.079 A 
HETATM   30  F   UNL     1     -43.471  59.084 -60.858  1.00  0.00    -0.206 F 
HETATM   31  C   UNL     1     -41.519  60.680 -58.262  1.00  0.00     0.071 A 
HETATM   32  C   UNL     1     -42.179  60.192 -57.126  1.00  0.00     0.045 A 
BRANCH  31  33
HETATM   33  O   UNL     1     -40.465  61.512 -58.000  1.00  0.00    -0.356 OA
HETATM   34  C   UNL     1     -40.257  62.566 -58.938  1.00  0.00     0.210 C 
ENDBRANCH  31  33
ENDBRANCH  25  26
ENDBRANCH   1  25
BRANCH   9  35
HETATM   35  C   UNL     1     -44.684  61.288 -51.764  1.00  0.00     0.235 C 
HETATM   36  C   UNL     1     -45.911  61.347 -50.808  1.00  0.00     0.203 C 
HETATM   37  O   UNL     1     -45.268  62.419 -50.063  1.00  0.00    -0.387 OA
HETATM   38  C   UNL     1     -44.490  62.744 -51.250  1.00  0.00     0.203 C 
ENDBRANCH   9  35
TORSDOF 6
ENDMDL
MODEL 2
REMARK VINA RESULT:      -8.8      3.774      9.209
REMARK  6 active torsions:
REMARK  status: ('A' for Active; 'I' for Inactive)
REMARK    1  A    between atoms: O_2  and  C_3 
REMARK    2  A    between atoms: C_8  and  C_9 
REMARK    3  A    between atoms: C_9  and  N_10 
REMARK    4  A    between atoms: N_13  and  C_26 
REMARK    5  A    between atoms: N_18  and  C_22 
REMARK    6  A    between atoms: C_29  and  C_32 
ROOT
HETATM    1  N   UNL     1     -43.326  56.132 -53.459  1.00  0.00    -0.318 N 
HETATM    2  C   UNL     1     -43.648  56.761 -52.242  1.00  0.00     0.326 C 
HETATM    3  O   UNL     1     -43.951  56.156 -51.229  1.00  0.00    -0.247 OA
HETATM    4  N   UNL     1     -43.542  58.153 -52.453  1.00  0.00    -0.297 N 
HETATM    5  C   UNL     1     -42.984  58.409 -53.761  1.00  0.00     0.165 C 
HETATM    6  C   UNL     1     -43.255  57.101 -54.552  1.00  0.00     0.057 C 
HETATM    7  C   UNL     1     -42.137  56.794 -55.559  1.00  0.00     0.060 C 
HETATM    8  C   UNL     1     -42.150  57.730 -56.760  1.00  0.00     0.238 C 
HETATM    9  N   UNL     1     -43.497  57.763 -57.424  1.00  0.00    -0.063 N 
HETATM   10  H   UNL     1     -43.472  58.493 -58.161  1.00  0.00     0.280 HD
HETATM   11  C   UNL     1     -44.619  58.097 -56.486  1.00  0.00     0.238 C 
HETATM   12  C   UNL     1     -44.626  57.183 -55.268  1.00  0.00     0.060 C 
ENDROOT
BRANCH   4  13
HETATM   13  C   UNL     1     -43.812  59.169 -51.496  1.00  0.00     0.039 A 
HETATM   14  C   UNL     1     -42.803  60.018 -51.027  1.00  0.00     0.030 A 
HETATM   15  C   UNL     1     -43.062  60.993 -50.052  1.00  0.00     0.014 A 
HETATM   16  C   UNL     1     -44.340  61.150 -49.513  1.00  0.00    -0.023 A 
HETATM   17  C   UNL     1     -45.358  60.317 -49.989  1.00  0.00     0.014 A 
HETATM   18  C   UNL     1     -45.097  59.340 -50.965  1.00  0.00     0.030 A 
BRANCH  16  19
HETATM   19  C   UNL     1     -44.616  62.146 -48.492  1.00  0.00     0.010 A 
HETATM   20  C   UNL     1     -44.436  63.550 -48.490  1.00  0.00     0.152 A 
HETATM   21  N   UNL     1     -44.837  64.124 -47.353  1.00  0.00    -0.187 NA
HETATM   22  N   UNL     1     -45.266  63.092 -46.612  1.00  0.00    -0.289 N 
HETATM   23  H   UNL     1     -45.622  63.281 -45.681  1.00  0.00     0.188 HD
HETATM   24  C   UNL     1     -45.163  61.889 -47.250  1.00  0.00     0.123 A 
ENDBRANCH  16  19
ENDBRANCH   4  13
BRANCH   1  25
HETATM   25  C   UNL     1     -43.401  54.682 -53.599  1.00  0.00     0.167 C 
BRANCH  25  26
HETATM   26  C   UNL     1     -42.115  53.976 -53.246  1.00  0.00    -0.035 A 
HETATM   27  C   UNL     1     -41.462  54.195 -52.028  1.00  0.00     0.051 A 
HETATM   28  C   UNL     1     -40.314  53.473 -51.712  1.00  0.00     0.119 A 
HETATM   29  C   UNL     1     -39.806  52.506 -52.572  1.00  0.00     0.079 A 
HETATM   30  F   UNL     1     -39.688  53.715 -50.553  1.00  0.00    -0.206 F 
HETATM   31  C   UNL     1     -40.462  52.250 -53.772  1.00  0.00     0.071 A 
HETATM   32  C   UNL     1     -41.602  52.993 -54.109  1.00  0.00     0.045 A 
BRANCH  31  33
HETATM   33  O   UNL     1     -40.086  51.321 -54.702  1.00  0.00    -0.356 OA
HETATM   34  C   UNL     1     -40.100  49.963 -54.265  1.00  0.00     0.210 C 
ENDBRANCH  31  33
ENDBRANCH  25  26
ENDBRANCH   1  25
BRANCH   9  35
HETATM   35  C   UNL     1     -43.777  56.448 -58.150  1.00  0.00     0.235 C 
HETATM   36  C   UNL     1     -44.797  56.577 -59.319  1.00  0.00     0.203 C 
HETATM   37  O   UNL     1     -43.701  56.853 -60.234  1.00  0.00    -0.387 OA
HETATM   38  C   UNL     1     -42.800  56.159 -59.326  1.00  0.00     0.203 C 
ENDBRANCH   9  35
TORSDOF 6
ENDMDL
MODEL 3
REMARK VINA RESULT:      -8.7      2.582      5.582
REMARK  6 active torsions:
REMARK  status: ('A' for Active; 'I' for Inactive)
REMARK    1  A    between atoms: O_2  and  C_3 
REMARK    2  A    between atoms: C_8  and  C_9 
REMARK    3  A    between atoms: C_9  and  N_10 
REMARK    4  A    between atoms: N_13  and  C_26 
REMARK    5  A    between atoms: N_18  and  C_22 
REMARK    6  A    between atoms: C_29  and  C_32 
ROOT
HETATM    1  N   UNL     1     -42.334  58.616 -54.887  1.00  0.00    -0.318 N 
HETATM    2  C   UNL     1     -41.561  57.642 -54.229  1.00  0.00     0.326 C 
HETATM    3  O   UNL     1     -40.683  57.906 -53.427  1.00  0.00    -0.247 OA
HETATM    4  N   UNL     1     -42.009  56.381 -54.680  1.00  0.00    -0.297 N 
HETATM    5  C   UNL     1     -43.189  56.546 -55.500  1.00  0.00     0.165 C 
HETATM    6  C   UNL     1     -43.123  58.025 -55.967  1.00  0.00     0.057 C 
HETATM    7  C   UNL     1     -44.520  58.647 -56.106  1.00  0.00     0.060 C 
HETATM    8  C   UNL     1     -45.287  58.118 -57.309  1.00  0.00     0.238 C 
HETATM    9  N   UNL     1     -44.493  58.255 -58.578  1.00  0.00    -0.063 N 
HETATM   10  H   UNL     1     -45.019  57.782 -59.336  1.00  0.00     0.280 HD
HETATM   11  C   UNL     1     -43.132  57.627 -58.504  1.00  0.00     0.238 C 
HETATM   12  C   UNL     1     -42.344  58.130 -57.301  1.00  0.00     0.060 C 
ENDROOT
BRANCH   4  13
HETATM   13  C   UNL     1     -41.482  55.118 -54.299  1.00  0.00     0.039 A 
HETATM   14  C   UNL     1     -40.601  54.413 -55.126  1.00  0.00     0.030 A 
HETATM   15  C   UNL     1     -40.114  53.147 -54.766  1.00  0.00     0.014 A 
HETATM   16  C   UNL     1     -40.494  52.544 -53.566  1.00  0.00    -0.023 A 
HETATM   17  C   UNL     1     -41.361  53.250 -52.725  1.00  0.00     0.014 A 
HETATM   18  C   UNL     1     -41.849  54.517 -53.087  1.00  0.00     0.030 A 
BRANCH  16  19
HETATM   19  C   UNL     1     -40.008  51.227 -53.191  1.00  0.00     0.010 A 
HETATM   20  C   UNL     1     -39.811  50.056 -53.960  1.00  0.00     0.152 A 
HETATM   21  N   UNL     1     -39.320  49.040 -53.245  1.00  0.00    -0.187 NA
HETATM   22  N   UNL     1     -39.210  49.550 -52.009  1.00  0.00    -0.289 N 
HETATM   23  H   UNL     1     -38.855  48.951 -51.270  1.00  0.00     0.188 HD
HETATM   24  C   UNL     1     -39.599  50.856 -51.925  1.00  0.00     0.123 A 
ENDBRANCH  16  19
ENDBRANCH   4  13
BRANCH   1  25
HETATM   25  C   UNL     1     -42.080  60.039 -54.689  1.00  0.00     0.167 C 
BRANCH  25  26
HETATM   26  C   UNL     1     -42.855  60.635 -53.540  1.00  0.00    -0.035 A 
HETATM   27  C   UNL     1     -42.967  62.020 -53.364  1.00  0.00     0.051 A 
HETATM   28  C   UNL     1     -43.747  62.530 -52.330  1.00  0.00     0.119 A 
HETATM   29  C   UNL     1     -44.451  61.694 -51.471  1.00  0.00     0.079 A 
HETATM   30  F   UNL     1     -43.821  63.856 -52.161  1.00  0.00    -0.206 F 
HETATM   31  C   UNL     1     -44.379  60.316 -51.653  1.00  0.00     0.071 A 
HETATM   32  C   UNL     1     -43.574  59.794 -52.674  1.00  0.00     0.045 A 
BRANCH  31  33
HETATM   33  O   UNL     1     -45.028  59.379 -50.898  1.00  0.00    -0.356 OA
HETATM   34  C   UNL     1     -45.011  58.048 -51.409  1.00  0.00     0.210 C 
ENDBRANCH  31  33
ENDBRANCH  25  26
ENDBRANCH   1  25
BRANCH   9  35
HETATM   35  C   UNL     1     -44.386  59.720 -58.996  1.00  0.00     0.235 C 
HETATM   36  C   UNL     1     -43.979  59.925 -60.484  1.00  0.00     0.203 C 
HETATM   37  O   UNL     1     -45.384  59.916 -60.861  1.00  0.00    -0.387 OA
HETATM   38  C   UNL     1     -45.724  60.328 -59.507  1.00  0.00     0.203 C 
ENDBRANCH   9  35
TORSDOF 6
ENDMDL
MODEL 4
REMARK VINA RESULT:      -8.7      1.425      2.058
REMARK  6 active torsions:
REMARK  status: ('A' for Active; 'I' for Inactive)
REMARK    1  A    between atoms: O_2  and  C_3 
REMARK    2  A    between atoms: C_8  and  C_9 
REMARK    3  A    between atoms: C_9  and  N_10 
REMARK    4  A    between atoms: N_13  and  C_26 
REMARK    5  A    between atoms: N_18  and  C_22 
REMARK    6  A    between atoms: C_29  and  C_32 
ROOT
HETATM    1  N   UNL     1     -43.271  57.966 -55.408  1.00  0.00    -0.318 N 
HETATM    2  C   UNL     1     -42.910  56.608 -55.487  1.00  0.00     0.326 C 
HETATM    3  O   UNL     1     -43.269  55.865 -56.382  1.00  0.00    -0.247 OA
HETATM    4  N   UNL     1     -42.092  56.330 -54.369  1.00  0.00    -0.297 N 
HETATM    5  C   UNL     1     -41.789  57.557 -53.668  1.00  0.00     0.165 C 
HETATM    6  C   UNL     1     -42.911  58.535 -54.110  1.00  0.00     0.057 C 
HETATM    7  C   UNL     1     -42.409  59.983 -54.203  1.00  0.00     0.060 C 
HETATM    8  C   UNL     1     -42.158  60.611 -52.839  1.00  0.00     0.238 C 
HETATM    9  N   UNL     1     -43.362  60.500 -51.947  1.00  0.00    -0.063 N 
HETATM   10  H   UNL     1     -43.094  60.845 -51.006  1.00  0.00     0.280 HD
HETATM   11  C   UNL     1     -43.867  59.096 -51.794  1.00  0.00     0.238 C 
HETATM   12  C   UNL     1     -44.117  58.437 -53.144  1.00  0.00     0.060 C 
ENDROOT
BRANCH   4  13
HETATM   13  C   UNL     1     -41.529  55.069 -54.035  1.00  0.00     0.039 A 
HETATM   14  C   UNL     1     -40.789  54.329 -54.963  1.00  0.00     0.030 A 
HETATM   15  C   UNL     1     -40.269  53.065 -54.645  1.00  0.00     0.014 A 
HETATM   16  C   UNL     1     -40.476  52.499 -53.386  1.00  0.00    -0.023 A 
HETATM   17  C   UNL     1     -41.200  53.239 -52.446  1.00  0.00     0.014 A 
HETATM   18  C   UNL     1     -41.721  54.505 -52.767  1.00  0.00     0.030 A 
BRANCH  16  19
HETATM   19  C   UNL     1     -39.955  51.184 -53.050  1.00  0.00     0.010 A 
HETATM   20  C   UNL     1     -39.681  50.058 -53.863  1.00  0.00     0.152 A 
HETATM   21  N   UNL     1     -39.182  49.029 -53.174  1.00  0.00    -0.187 NA
HETATM   22  N   UNL     1     -39.144  49.483 -51.912  1.00  0.00    -0.289 N 
HETATM   23  H   UNL     1     -38.798  48.863 -51.187  1.00  0.00     0.188 HD
HETATM   24  C   UNL     1     -39.587  50.768 -51.786  1.00  0.00     0.123 A 
ENDBRANCH  16  19
ENDBRANCH   4  13
BRANCH   1  25
HETATM   25  C   UNL     1     -44.172  58.562 -56.387  1.00  0.00     0.167 C 
BRANCH  25  26
HETATM   26  C   UNL     1     -43.565  58.698 -57.761  1.00  0.00    -0.035 A 
HETATM   27  C   UNL     1     -42.670  59.728 -58.075  1.00  0.00     0.051 A 
HETATM   28  C   UNL     1     -42.080  59.780 -59.335  1.00  0.00     0.119 A 
HETATM   29  C   UNL     1     -42.336  58.808 -60.296  1.00  0.00     0.079 A 
HETATM   30  F   UNL     1     -41.248  60.787 -59.626  1.00  0.00    -0.206 F 
HETATM   31  C   UNL     1     -43.195  57.758 -59.989  1.00  0.00     0.071 A 
HETATM   32  C   UNL     1     -43.814  57.715 -58.733  1.00  0.00     0.045 A 
BRANCH  31  33
HETATM   33  O   UNL     1     -43.524  56.728 -60.827  1.00  0.00    -0.356 OA
HETATM   34  C   UNL     1     -43.922  55.514 -60.193  1.00  0.00     0.210 C 
ENDBRANCH  31  33
ENDBRANCH  25  26
ENDBRANCH   1  25
BRANCH   9  35
HETATM   35  C   UNL     1     -44.480  61.424 -52.426  1.00  0.00     0.235 C 
HETATM   36  C   UNL     1     -45.753  61.390 -51.532  1.00  0.00     0.203 C 
HETATM   37  O   UNL     1     -45.205  62.468 -50.725  1.00  0.00    -0.387 OA
HETATM   38  C   UNL     1     -44.387  62.870 -51.860  1.00  0.00     0.203 C 
ENDBRANCH   9  35
TORSDOF 6
ENDMDL
MODEL 5
REMARK VINA RESULT:      -8.6      2.747      5.377
REMARK  6 active torsions:
REMARK  status: ('A' for Active; 'I' for Inactive)
REMARK    1  A    between atoms: O_2  and  C_3 
REMARK    2  A    between atoms: C_8  and  C_9 
REMARK    3  A    between atoms: C_9  and  N_10 
REMARK    4  A    between atoms: N_13  and  C_26 
REMARK    5  A    between atoms: N_18  and  C_22 
REMARK    6  A    between atoms: C_29  and  C_32 
ROOT
HETATM    1  N   UNL     1     -42.231  58.675 -54.605  1.00  0.00    -0.318 N 
HETATM    2  C   UNL     1     -41.430  57.675 -54.024  1.00  0.00     0.326 C 
HETATM    3  O   UNL     1     -40.478  57.907 -53.300  1.00  0.00    -0.247 OA
HETATM    4  N   UNL     1     -41.951  56.430 -54.442  1.00  0.00    -0.297 N 
HETATM    5  C   UNL     1     -43.192  56.634 -55.154  1.00  0.00     0.165 C 
HETATM    6  C   UNL     1     -43.127  58.115 -55.616  1.00  0.00     0.057 C 
HETATM    7  C   UNL     1     -44.512  58.776 -55.627  1.00  0.00     0.060 C 
HETATM    8  C   UNL     1     -45.396  58.278 -56.763  1.00  0.00     0.238 C 
HETATM    9  N   UNL     1     -44.712  58.406 -58.095  1.00  0.00    -0.063 N 
HETATM   10  H   UNL     1     -45.316  57.954 -58.807  1.00  0.00     0.280 HD
HETATM   11  C   UNL     1     -43.368  57.740 -58.144  1.00  0.00     0.238 C 
HETATM   12  C   UNL     1     -42.465  58.211 -57.012  1.00  0.00     0.060 C 
ENDROOT
BRANCH   4  13
HETATM   13  C   UNL     1     -41.427  55.150 -54.117  1.00  0.00     0.039 A 
HETATM   14  C   UNL     1     -40.781  54.358 -55.073  1.00  0.00     0.030 A 
HETATM   15  C   UNL     1     -40.302  53.078 -54.761  1.00  0.00     0.014 A 
HETATM   16  C   UNL     1     -40.454  52.545 -53.480  1.00  0.00    -0.023 A 
HETATM   17  C   UNL     1     -41.083  53.336 -52.513  1.00  0.00     0.014 A 
HETATM   18  C   UNL     1     -41.564  54.619 -52.827  1.00  0.00     0.030 A 
BRANCH  16  19
HETATM   19  C   UNL     1     -39.975  51.214 -53.149  1.00  0.00     0.010 A 
HETATM   20  C   UNL     1     -39.758  50.076 -53.963  1.00  0.00     0.152 A 
HETATM   21  N   UNL     1     -39.283  49.031 -53.280  1.00  0.00    -0.187 NA
HETATM   22  N   UNL     1     -39.203  49.488 -52.021  1.00  0.00    -0.289 N 
HETATM   23  H   UNL     1     -38.866  48.858 -51.300  1.00  0.00     0.188 HD
HETATM   24  C   UNL     1     -39.597  50.789 -51.891  1.00  0.00     0.123 A 
ENDBRANCH  16  19
ENDBRANCH   4  13
BRANCH   1  25
HETATM   25  C   UNL     1     -41.921  60.088 -54.420  1.00  0.00     0.167 C 
BRANCH  25  26
HETATM   26  C   UNL     1     -42.706  60.737 -53.307  1.00  0.00    -0.035 A 
HETATM   27  C   UNL     1     -42.440  60.465 -51.960  1.00  0.00     0.051 A 
HETATM   28  C   UNL     1     -43.143  61.136 -50.962  1.00  0.00     0.119 A 
HETATM   29  C   UNL     1     -44.094  62.102 -51.268  1.00  0.00     0.079 A 
HETATM   30  F   UNL     1     -42.894  60.843 -49.679  1.00  0.00    -0.206 F 
HETATM   31  C   UNL     1     -44.345  62.410 -52.601  1.00  0.00     0.071 A 
HETATM   32  C   UNL     1     -43.662  61.719 -53.612  1.00  0.00     0.045 A 
BRANCH  31  33
HETATM   33  O   UNL     1     -45.238  63.346 -53.047  1.00  0.00    -0.356 OA
HETATM   34  C   UNL     1     -45.680  63.191 -54.394  1.00  0.00     0.210 C 
ENDBRANCH  31  33
ENDBRANCH  25  26
ENDBRANCH   1  25
BRANCH   9  35
HETATM   35  C   UNL     1     -44.602  59.871 -58.511  1.00  0.00     0.235 C 
HETATM   36  C   UNL     1     -43.920  60.086 -59.893  1.00  0.00     0.203 C 
HETATM   37  O   UNL     1     -45.220  59.997 -60.539  1.00  0.00    -0.387 OA
HETATM   38  C   UNL     1     -45.843  60.399 -59.287  1.00  0.00     0.203 C 
ENDBRANCH   9  35
TORSDOF 6
ENDMDL
MODEL 6
REMARK VINA RESULT:      -8.5      3.626      9.197
REMARK  6 active torsions:
REMARK  status: ('A' for Active; 'I' for Inactive)
REMARK    1  A    between atoms: O_2  and  C_3 
REMARK    2  A    between atoms: C_8  and  C_9 
REMARK    3  A    between atoms: C_9  and  N_10 
REMARK    4  A    between atoms: N_13  and  C_26 
REMARK    5  A    between atoms: N_18  and  C_22 
REMARK    6  A    between atoms: C_29  and  C_32 
ROOT
HETATM    1  N   UNL     1     -43.461  56.207 -53.463  1.00  0.00    -0.318 N 
HETATM    2  C   UNL     1     -43.755  56.892 -52.269  1.00  0.00     0.326 C 
HETATM    3  O   UNL     1     -44.123  56.340 -51.247  1.00  0.00    -0.247 OA
HETATM    4  N   UNL     1     -43.535  58.265 -52.513  1.00  0.00    -0.297 N 
HETATM    5  C   UNL     1     -42.935  58.441 -53.816  1.00  0.00     0.165 C 
HETATM    6  C   UNL     1     -43.294  57.138 -54.579  1.00  0.00     0.057 C 
HETATM    7  C   UNL     1     -42.185  56.718 -55.554  1.00  0.00     0.060 C 
HETATM    8  C   UNL     1     -42.101  57.619 -56.778  1.00  0.00     0.238 C 
HETATM    9  N   UNL     1     -43.429  57.740 -57.470  1.00  0.00    -0.063 N 
HETATM   10  H   UNL     1     -43.333  58.446 -58.224  1.00  0.00     0.280 HD
HETATM   11  C   UNL     1     -44.539  58.186 -56.565  1.00  0.00     0.238 C 
HETATM   12  C   UNL     1     -44.640  57.308 -55.324  1.00  0.00     0.060 C 
ENDROOT
BRANCH   4  13
HETATM   13  C   UNL     1     -43.741  59.325 -51.588  1.00  0.00     0.039 A 
HETATM   14  C   UNL     1     -45.028  59.737 -51.223  1.00  0.00     0.030 A 
HETATM   15  C   UNL     1     -45.230  60.810 -50.341  1.00  0.00     0.014 A 
HETATM   16  C   UNL     1     -44.150  61.507 -49.797  1.00  0.00    -0.023 A 
HETATM   17  C   UNL     1     -42.861  61.090 -50.143  1.00  0.00     0.014 A 
HETATM   18  C   UNL     1     -42.660  60.016 -51.027  1.00  0.00     0.030 A 
BRANCH  16  19
HETATM   19  C   UNL     1     -44.348  62.629 -48.895  1.00  0.00     0.010 A 
HETATM   20  C   UNL     1     -44.980  62.705 -47.631  1.00  0.00     0.152 A 
HETATM   21  N   UNL     1     -44.936  63.930 -47.101  1.00  0.00    -0.187 NA
HETATM   22  N   UNL     1     -44.286  64.652 -48.026  1.00  0.00    -0.289 N 
HETATM   23  H   UNL     1     -44.132  65.638 -47.847  1.00  0.00     0.188 HD
HETATM   24  C   UNL     1     -43.906  63.919 -49.114  1.00  0.00     0.123 A 
ENDBRANCH  16  19
ENDBRANCH   4  13
BRANCH   1  25
HETATM   25  C   UNL     1     -43.647  54.765 -53.568  1.00  0.00     0.167 C 
BRANCH  25  26
HETATM   26  C   UNL     1     -42.434  53.969 -53.154  1.00  0.00    -0.035 A 
HETATM   27  C   UNL     1     -41.597  53.355 -54.093  1.00  0.00     0.051 A 
HETATM   28  C   UNL     1     -40.450  52.686 -53.674  1.00  0.00     0.119 A 
HETATM   29  C   UNL     1     -40.092  52.633 -52.331  1.00  0.00     0.079 A 
HETATM   30  F   UNL     1     -39.676  52.082 -54.584  1.00  0.00    -0.206 F 
HETATM   31  C   UNL     1     -40.893  53.268 -51.388  1.00  0.00     0.071 A 
HETATM   32  C   UNL     1     -42.063  53.919 -51.800  1.00  0.00     0.045 A 
BRANCH  31  33
HETATM   33  O   UNL     1     -40.655  53.311 -50.042  1.00  0.00    -0.356 OA
HETATM   34  C   UNL     1     -39.686  54.265 -49.612  1.00  0.00     0.210 C 
ENDBRANCH  31  33
ENDBRANCH  25  26
ENDBRANCH   1  25
BRANCH   9  35
HETATM   35  C   UNL     1     -43.798  56.432 -58.169  1.00  0.00     0.235 C 
HETATM   36  C   UNL     1     -44.796  56.607 -59.350  1.00  0.00     0.203 C 
HETATM   37  O   UNL     1     -43.675  56.780 -60.261  1.00  0.00    -0.387 OA
HETATM   38  C   UNL     1     -42.835  56.044 -59.328  1.00  0.00     0.203 C 
ENDBRANCH   9  35
TORSDOF 6
ENDMDL
MODEL 7
REMARK VINA RESULT:      -7.8      3.915      7.849
REMARK  6 active torsions:
REMARK  status: ('A' for Active; 'I' for Inactive)
REMARK    1  A    between atoms: O_2  and  C_3 
REMARK    2  A    between atoms: C_8  and  C_9 
REMARK    3  A    between atoms: C_9  and  N_10 
REMARK    4  A    between atoms: N_13  and  C_26 
REMARK    5  A    between atoms: N_18  and  C_22 
REMARK    6  A    between atoms: C_29  and  C_32 
ROOT
HETATM    1  N   UNL     1     -42.788  58.031 -53.508  1.00  0.00    -0.318 N 
HETATM    2  C   UNL     1     -42.990  57.737 -54.869  1.00  0.00     0.326 C 
HETATM    3  O   UNL     1     -42.118  57.306 -55.603  1.00  0.00    -0.247 OA
HETATM    4  N   UNL     1     -44.340  58.031 -55.162  1.00  0.00    -0.297 N 
HETATM    5  C   UNL     1     -45.046  58.352 -53.943  1.00  0.00     0.165 C 
HETATM    6  C   UNL     1     -43.925  58.763 -52.951  1.00  0.00     0.057 C 
HETATM    7  C   UNL     1     -44.257  58.357 -51.508  1.00  0.00     0.060 C 
HETATM    8  C   UNL     1     -45.357  59.210 -50.891  1.00  0.00     0.238 C 
HETATM    9  N   UNL     1     -45.046  60.677 -50.995  1.00  0.00    -0.063 N 
HETATM   10  H   UNL     1     -45.875  61.202 -50.659  1.00  0.00     0.280 HD
HETATM   11  C   UNL     1     -44.753  61.129 -52.395  1.00  0.00     0.238 C 
HETATM   12  C   UNL     1     -43.663  60.286 -53.043  1.00  0.00     0.060 C 
ENDROOT
BRANCH   4  13
HETATM   13  C   UNL     1     -44.967  57.911 -56.432  1.00  0.00     0.039 A 
HETATM   14  C   UNL     1     -46.322  58.211 -56.610  1.00  0.00     0.030 A 
HETATM   15  C   UNL     1     -46.950  58.052 -57.854  1.00  0.00     0.014 A 
HETATM   16  C   UNL     1     -46.242  57.587 -58.963  1.00  0.00    -0.023 A 
HETATM   17  C   UNL     1     -44.883  57.301 -58.799  1.00  0.00     0.014 A 
HETATM   18  C   UNL     1     -44.255  57.460 -57.551  1.00  0.00     0.030 A 
BRANCH  16  19
HETATM   19  C   UNL     1     -46.886  57.405 -60.253  1.00  0.00     0.010 A 
HETATM   20  C   UNL     1     -47.158  56.233 -60.998  1.00  0.00     0.152 A 
HETATM   21  N   UNL     1     -47.795  56.482 -62.145  1.00  0.00    -0.187 NA
HETATM   22  N   UNL     1     -47.926  57.817 -62.149  1.00  0.00    -0.289 N 
HETATM   23  H   UNL     1     -48.386  58.254 -62.941  1.00  0.00     0.188 HD
HETATM   24  C   UNL     1     -47.407  58.415 -61.037  1.00  0.00     0.123 A 
ENDBRANCH  16  19
ENDBRANCH   4  13
BRANCH   1  25
HETATM   25  C   UNL     1     -41.472  57.895 -52.896  1.00  0.00     0.167 C 
BRANCH  25  26
HETATM   26  C   UNL     1     -41.309  56.630 -52.091  1.00  0.00    -0.035 A 
HETATM   27  C   UNL     1     -41.318  56.639 -50.691  1.00  0.00     0.051 A 
HETATM   28  C   UNL     1     -41.232  55.441 -49.986  1.00  0.00     0.119 A 
HETATM   29  C   UNL     1     -41.166  54.217 -50.640  1.00  0.00     0.079 A 
HETATM   30  F   UNL     1     -41.215  55.472 -48.647  1.00  0.00    -0.206 F 
HETATM   31  C   UNL     1     -41.192  54.187 -52.031  1.00  0.00     0.071 A 
HETATM   32  C   UNL     1     -41.250  55.390 -52.748  1.00  0.00     0.045 A 
BRANCH  31  33
HETATM   33  O   UNL     1     -41.150  53.059 -52.804  1.00  0.00    -0.356 OA
HETATM   34  C   UNL     1     -41.202  53.269 -54.213  1.00  0.00     0.210 C 
ENDBRANCH  31  33
ENDBRANCH  25  26
ENDBRANCH   1  25
BRANCH   9  35
HETATM   35  C   UNL     1     -43.903  61.057 -50.056  1.00  0.00     0.235 C 
HETATM   36  C   UNL     1     -43.498  62.558 -50.130  1.00  0.00     0.203 C 
HETATM   37  O   UNL     1     -44.462  62.861 -49.084  1.00  0.00    -0.387 OA
HETATM   38  C   UNL     1     -44.371  61.480 -48.634  1.00  0.00     0.203 C 
ENDBRANCH   9  35
TORSDOF 6
ENDMDL
MODEL 8
REMARK VINA RESULT:      -7.7     17.311     20.367
REMARK  6 active torsions:
REMARK  status: ('A' for Active; 'I' for Inactive)
REMARK    1  A    between atoms: O_2  and  C_3 
REMARK    2  A    between atoms: C_8  and  C_9 
REMARK    3  A    between atoms: C_9  and  N_10 
REMARK    4  A    between atoms: N_13  and  C_26 
REMARK    5  A    between atoms: N_18  and  C_22 
REMARK    6  A    between atoms: C_29  and  C_32 
ROOT
HETATM    1  N   UNL     1     -35.664  41.224 -56.152  1.00  0.00    -0.318 N 
HETATM    2  C   UNL     1     -36.687  41.113 -57.112  1.00  0.00     0.326 C 
HETATM    3  O   UNL     1     -37.623  41.888 -57.194  1.00  0.00    -0.247 OA
HETATM    4  N   UNL     1     -36.394  39.979 -57.901  1.00  0.00    -0.297 N 
HETATM    5  C   UNL     1     -35.089  39.464 -57.552  1.00  0.00     0.165 C 
HETATM    6  C   UNL     1     -34.826  40.026 -56.129  1.00  0.00     0.057 C 
HETATM    7  C   UNL     1     -33.340  40.332 -55.897  1.00  0.00     0.060 C 
HETATM    8  C   UNL     1     -32.493  39.076 -55.747  1.00  0.00     0.238 C 
HETATM    9  N   UNL     1     -33.040  38.161 -54.689  1.00  0.00    -0.063 N 
HETATM   10  H   UNL     1     -32.489  37.283 -54.710  1.00  0.00     0.280 HD
HETATM   11  C   UNL     1     -34.482  37.801 -54.895  1.00  0.00     0.238 C 
HETATM   12  C   UNL     1     -35.354  39.039 -55.059  1.00  0.00     0.060 C 
ENDROOT
BRANCH   4  13
HETATM   13  C   UNL     1     -37.182  39.475 -58.970  1.00  0.00     0.039 A 
HETATM   14  C   UNL     1     -36.856  39.735 -60.306  1.00  0.00     0.030 A 
HETATM   15  C   UNL     1     -37.659  39.272 -61.359  1.00  0.00     0.014 A 
HETATM   16  C   UNL     1     -38.817  38.534 -61.110  1.00  0.00    -0.023 A 
HETATM   17  C   UNL     1     -39.141  38.255 -59.779  1.00  0.00     0.014 A 
HETATM   18  C   UNL     1     -38.337  38.719 -58.725  1.00  0.00     0.030 A 
BRANCH  16  19
HETATM   19  C   UNL     1     -39.664  38.063 -62.193  1.00  0.00     0.010 A 
HETATM   20  C   UNL     1     -41.062  38.158 -62.388  1.00  0.00     0.152 A 
HETATM   21  N   UNL     1     -41.465  37.612 -63.538  1.00  0.00    -0.187 NA
HETATM   22  N   UNL     1     -40.330  37.153 -64.085  1.00  0.00    -0.289 N 
HETATM   23  H   UNL     1     -40.382  36.681 -64.982  1.00  0.00     0.188 HD
HETATM   24  C   UNL     1     -39.224  37.404 -63.325  1.00  0.00     0.123 A 
ENDBRANCH  16  19
ENDBRANCH   4  13
BRANCH   1  25
HETATM   25  C   UNL     1     -35.701  42.266 -55.132  1.00  0.00     0.167 C 
BRANCH  25  26
HETATM   26  C   UNL     1     -35.969  41.741 -53.743  1.00  0.00    -0.035 A 
HETATM   27  C   UNL     1     -34.996  41.783 -52.736  1.00  0.00     0.051 A 
HETATM   28  C   UNL     1     -35.305  41.349 -51.450  1.00  0.00     0.119 A 
HETATM   29  C   UNL     1     -36.578  40.895 -51.123  1.00  0.00     0.079 A 
HETATM   30  F   UNL     1     -34.355  41.372 -50.507  1.00  0.00    -0.206 F 
HETATM   31  C   UNL     1     -37.567  40.880 -52.102  1.00  0.00     0.071 A 
HETATM   32  C   UNL     1     -37.255  41.288 -53.406  1.00  0.00     0.045 A 
BRANCH  31  33
HETATM   33  O   UNL     1     -38.861  40.477 -51.920  1.00  0.00    -0.356 OA
HETATM   34  C   UNL     1     -39.840  41.155 -52.705  1.00  0.00     0.210 C 
ENDBRANCH  31  33
ENDBRANCH  25  26
ENDBRANCH   1  25
BRANCH   9  35
HETATM   35  C   UNL     1     -32.828  38.752 -53.296  1.00  0.00     0.235 C 
HETATM   36  C   UNL     1     -33.612  38.016 -52.171  1.00  0.00     0.203 C 
HETATM   37  O   UNL     1     -32.477  37.129 -51.972  1.00  0.00    -0.387 OA
HETATM   38  C   UNL     1     -31.610  38.151 -52.537  1.00  0.00     0.203 C 
ENDBRANCH   9  35
TORSDOF 6
ENDMDL
MODEL 9
REMARK VINA RESULT:      -7.7      3.816      9.539
REMARK  6 active torsions:
REMARK  status: ('A' for Active; 'I' for Inactive)
REMARK    1  A    between atoms: O_2  and  C_3 
REMARK    2  A    between atoms: C_8  and  C_9 
REMARK    3  A    between atoms: C_9  and  N_10 
REMARK    4  A    between atoms: N_13  and  C_26 
REMARK    5  A    between atoms: N_18  and  C_22 
REMARK    6  A    between atoms: C_29  and  C_32 
ROOT
HETATM    1  N   UNL     1     -41.754  59.777 -52.187  1.00  0.00    -0.318 N 
HETATM    2  C   UNL     1     -42.059  60.210 -50.884  1.00  0.00     0.326 C 
HETATM    3  O   UNL     1     -41.412  59.898 -49.900  1.00  0.00    -0.247 OA
HETATM    4  N   UNL     1     -43.202  61.034 -50.976  1.00  0.00    -0.297 N 
HETATM    5  C   UNL     1     -43.527  61.265 -52.365  1.00  0.00     0.165 C 
HETATM    6  C   UNL     1     -42.837  60.096 -53.117  1.00  0.00     0.057 C 
HETATM    7  C   UNL     1     -42.336  60.521 -54.505  1.00  0.00     0.060 C 
HETATM    8  C   UNL     1     -43.465  60.728 -55.504  1.00  0.00     0.238 C 
HETATM    9  N   UNL     1     -44.362  59.525 -55.585  1.00  0.00    -0.063 N 
HETATM   10  H   UNL     1     -45.165  59.767 -56.195  1.00  0.00     0.280 HD
HETATM   11  C   UNL     1     -44.909  59.095 -54.256  1.00  0.00     0.238 C 
HETATM   12  C   UNL     1     -43.801  58.890 -53.231  1.00  0.00     0.060 C 
ENDROOT
BRANCH   4  13
HETATM   13  C   UNL     1     -43.874  61.660 -49.892  1.00  0.00     0.039 A 
HETATM   14  C   UNL     1     -43.756  63.034 -49.653  1.00  0.00     0.030 A 
HETATM   15  C   UNL     1     -44.386  63.644 -48.558  1.00  0.00     0.014 A 
HETATM   16  C   UNL     1     -45.155  62.898 -47.664  1.00  0.00    -0.023 A 
HETATM   17  C   UNL     1     -45.293  61.527 -47.904  1.00  0.00     0.014 A 
HETATM   18  C   UNL     1     -44.661  60.917 -49.001  1.00  0.00     0.030 A 
BRANCH  16  19
HETATM   19  C   UNL     1     -45.800  63.517 -46.518  1.00  0.00     0.010 A 
HETATM   20  C   UNL     1     -47.060  64.149 -46.389  1.00  0.00     0.152 A 
HETATM   21  N   UNL     1     -47.303  64.577 -45.148  1.00  0.00    -0.187 NA
HETATM   22  N   UNL     1     -46.196  64.233 -44.473  1.00  0.00    -0.289 N 
HETATM   23  H   UNL     1     -46.141  64.464 -43.487  1.00  0.00     0.188 HD
HETATM   24  C   UNL     1     -45.271  63.589 -45.245  1.00  0.00     0.123 A 
ENDBRANCH  16  19
ENDBRANCH   4  13
BRANCH   1  25
HETATM   25  C   UNL     1     -40.654  58.852 -52.435  1.00  0.00     0.167 C 
BRANCH  25  26
HETATM   26  C   UNL     1     -41.072  57.402 -52.426  1.00  0.00    -0.035 A 
HETATM   27  C   UNL     1     -40.988  56.602 -53.572  1.00  0.00     0.051 A 
HETATM   28  C   UNL     1     -41.321  55.252 -53.506  1.00  0.00     0.119 A 
HETATM   29  C   UNL     1     -41.712  54.659 -52.311  1.00  0.00     0.079 A 
HETATM   30  F   UNL     1     -41.260  54.509 -54.618  1.00  0.00    -0.206 F 
HETATM   31  C   UNL     1     -41.767  55.431 -51.155  1.00  0.00     0.071 A 
HETATM   32  C   UNL     1     -41.461  56.797 -51.220  1.00  0.00     0.045 A 
BRANCH  31  33
HETATM   33  O   UNL     1     -42.118  54.979 -49.913  1.00  0.00    -0.356 OA
HETATM   34  C   UNL     1     -41.037  54.636 -49.048  1.00  0.00     0.210 C 
ENDBRANCH  31  33
ENDBRANCH  25  26
ENDBRANCH   1  25
BRANCH   9  35
HETATM   35  C   UNL     1     -43.651  58.363 -56.276  1.00  0.00     0.235 C 
HETATM   36  C   UNL     1     -44.516  57.641 -57.349  1.00  0.00     0.203 C 
HETATM   37  O   UNL     1     -44.010  58.555 -58.360  1.00  0.00    -0.387 OA
HETATM   38  C   UNL     1     -42.835  58.782 -57.532  1.00  0.00     0.203 C 
ENDBRANCH   9  35
TORSDOF 6
ENDMDL
MODEL 10
REMARK VINA RESULT:      -7.7      3.286      5.644
REMARK  6 active torsions:
REMARK  status: ('A' for Active; 'I' for Inactive)
REMARK    1  A    between atoms: O_2  and  C_3 
REMARK    2  A    between atoms: C_8  and  C_9 
REMARK    3  A    between atoms: C_9  and  N_10 
REMARK    4  A    between atoms: N_13  and  C_26 
REMARK    5  A    between atoms: N_18  and  C_22 
REMARK    6  A    between atoms: C_29  and  C_32 
ROOT
HETATM    1  N   UNL     1     -44.567  58.667 -57.295  1.00  0.00    -0.318 N 
HETATM    2  C   UNL     1     -44.399  57.695 -56.292  1.00  0.00     0.326 C 
HETATM    3  O   UNL     1     -45.275  57.377 -55.507  1.00  0.00    -0.247 OA
HETATM    4  N   UNL     1     -43.078  57.208 -56.403  1.00  0.00    -0.297 N 
HETATM    5  C   UNL     1     -42.455  57.748 -57.589  1.00  0.00     0.165 C 
HETATM    6  C   UNL     1     -43.288  59.018 -57.911  1.00  0.00     0.057 C 
HETATM    7  C   UNL     1     -43.394  59.269 -59.422  1.00  0.00     0.060 C 
HETATM    8  C   UNL     1     -42.088  59.757 -60.034  1.00  0.00     0.238 C 
HETATM    9  N   UNL     1     -41.551  60.960 -59.311  1.00  0.00    -0.063 N 
HETATM   10  H   UNL     1     -40.615  61.176 -59.702  1.00  0.00     0.280 HD
HETATM   11  C   UNL     1     -41.393  60.749 -57.834  1.00  0.00     0.238 C 
HETATM   12  C   UNL     1     -42.682  60.249 -57.195  1.00  0.00     0.060 C 
ENDROOT
BRANCH   4  13
HETATM   13  C   UNL     1     -42.471  56.234 -55.565  1.00  0.00     0.039 A 
HETATM   14  C   UNL     1     -41.515  56.587 -54.606  1.00  0.00     0.030 A 
HETATM   15  C   UNL     1     -40.886  55.620 -53.807  1.00  0.00     0.014 A 
HETATM   16  C   UNL     1     -41.193  54.265 -53.944  1.00  0.00    -0.023 A 
HETATM   17  C   UNL     1     -42.159  53.904 -54.888  1.00  0.00     0.014 A 
HETATM   18  C   UNL     1     -42.788  54.874 -55.687  1.00  0.00     0.030 A 
BRANCH  16  19
HETATM   19  C   UNL     1     -40.536  53.253 -53.133  1.00  0.00     0.010 A 
HETATM   20  C   UNL     1     -40.300  53.188 -51.740  1.00  0.00     0.152 A 
HETATM   21  N   UNL     1     -39.676  52.067 -51.369  1.00  0.00    -0.187 NA
HETATM   22  N   UNL     1     -39.496  51.410 -52.525  1.00  0.00    -0.289 N 
HETATM   23  H   UNL     1     -39.027  50.511 -52.500  1.00  0.00     0.188 HD
HETATM   24  C   UNL     1     -40.000  52.072 -53.607  1.00  0.00     0.123 A 
ENDBRANCH  16  19
ENDBRANCH   4  13
BRANCH   1  25
HETATM   25  C   UNL     1     -45.812  59.417 -57.415  1.00  0.00     0.167 C 
BRANCH  25  26
HETATM   26  C   UNL     1     -46.570  59.126 -58.687  1.00  0.00    -0.035 A 
HETATM   27  C   UNL     1     -47.210  60.138 -59.413  1.00  0.00     0.051 A 
HETATM   28  C   UNL     1     -47.843  59.838 -60.617  1.00  0.00     0.119 A 
HETATM   29  C   UNL     1     -47.832  58.551 -61.141  1.00  0.00     0.079 A 
HETATM   30  F   UNL     1     -48.473  60.813 -61.284  1.00  0.00    -0.206 F 
HETATM   31  C   UNL     1     -47.170  57.540 -60.450  1.00  0.00     0.071 A 
HETATM   32  C   UNL     1     -46.556  57.829 -59.224  1.00  0.00     0.045 A 
BRANCH  31  33
HETATM   33  O   UNL     1     -47.066  56.238 -60.853  1.00  0.00    -0.356 OA
HETATM   34  C   UNL     1     -45.796  55.622 -60.643  1.00  0.00     0.210 C 
ENDBRANCH  31  33
ENDBRANCH  25  26
ENDBRANCH   1  25
BRANCH   9  35
HETATM   35  C   UNL     1     -42.413  62.190 -59.589  1.00  0.00     0.235 C 
HETATM   36  C   UNL     1     -41.679  63.542 -59.351  1.00  0.00     0.203 C 
HETATM   37  O   UNL     1     -41.236  63.535 -60.736  1.00  0.00    -0.387 OA
HETATM   38  C   UNL     1     -42.360  62.674 -61.067  1.00  0.00     0.203 C 
ENDBRANCH   9  35
TORSDOF 6
ENDMDL
