MODEL 1
REMARK VINA RESULT:      -7.3      0.000      0.000
REMARK  10 active torsions:
REMARK  status: ('A' for Active; 'I' for Inactive)
REMARK       I    between atoms: C_2  and  N_3 
REMARK    1  A    between atoms: N_3  and  C_4 
REMARK    2  A    between atoms: C_6  and  O_7 
REMARK    3  A    between atoms: O_7  and  C_8 
REMARK    4  A    between atoms: C_8  and  C_9 
REMARK    5  A    between atoms: C_9  and  C_10 
REMARK    6  A    between atoms: C_10  and  C_11 
REMARK    7  A    between atoms: C_11  and  N_12 
REMARK       I    between atoms: N_12  and  C_13 
REMARK    8  A    between atoms: C_13  and  C_14 
REMARK    9  A    between atoms: C_18  and  C_19 
REMARK   10  A    between atoms: C_21  and  O_22 
ROOT
HETATM    1  N   UNL     1     -42.449  55.850 -58.468  1.00  0.00    -0.345 N 
HETATM    2  C   UNL     1     -43.150  56.118 -57.320  1.00  0.00     0.270 C 
HETATM    3  O   UNL     1     -43.977  57.022 -57.249  1.00  0.00    -0.266 OA
HETATM    4  H   UNL     1     -41.756  55.118 -58.483  1.00  0.00     0.163 HD
ENDROOT
BRANCH   1   5
HETATM    5  C   UNL     1     -42.644  56.637 -59.656  1.00  0.00     0.217 C 
BRANCH   5   6
HETATM    6  C   UNL     1     -42.318  58.037 -59.382  1.00  0.00    -0.085 C 
BRANCH   6   7
HETATM    7  C   UNL     1     -42.019  59.283 -59.139  1.00  0.00    -0.078 C 
BRANCH   7   8
HETATM    8  C   UNL     1     -41.668  60.735 -58.856  1.00  0.00     0.269 C 
BRANCH   8   9
HETATM    9  O   UNL     1     -41.193  60.863 -57.519  1.00  0.00    -0.339 OA
BRANCH   9  10
HETATM   10  C   UNL     1     -42.137  60.726 -56.533  1.00  0.00     0.072 A 
HETATM   11  C   UNL     1     -42.122  59.770 -55.509  1.00  0.00     0.066 A 
HETATM   12  C   UNL     1     -43.138  59.730 -54.550  1.00  0.00     0.037 A 
HETATM   13  C   UNL     1     -44.183  60.660 -54.629  1.00  0.00     0.029 A 
HETATM   14  C   UNL     1     -44.207  61.613 -55.648  1.00  0.00     0.005 A 
HETATM   15  C   UNL     1     -43.186  61.644 -56.596  1.00  0.00     0.037 A 
BRANCH  12  16
HETATM   16  N   UNL     1     -43.179  58.801 -53.485  1.00  0.00    -0.327 N 
HETATM   17  C   UNL     1     -44.017  57.709 -53.352  1.00  0.00     0.218 C 
HETATM   18  C   UNL     1     -43.766  56.938 -52.079  1.00  0.00     0.117 C 
HETATM   19  O   UNL     1     -44.904  57.360 -54.124  1.00  0.00    -0.274 OA
HETATM   20  H   UNL     1     -42.518  58.962 -52.737  1.00  0.00     0.169 HD
ENDBRANCH  12  16
ENDBRANCH   9  10
ENDBRANCH   8   9
ENDBRANCH   7   8
ENDBRANCH   6   7
ENDBRANCH   5   6
ENDBRANCH   1   5
BRANCH   2  21
HETATM   21  C   UNL     1     -42.841  55.273 -56.200  1.00  0.00     0.120 A 
HETATM   22  N   UNL     1     -43.811  54.841 -55.341  1.00  0.00    -0.272 N 
HETATM   23  H   UNL     1     -44.804  55.048 -55.393  1.00  0.00     0.189 HD
HETATM   24  N   UNL     1     -43.357  54.085 -54.330  1.00  0.00    -0.174 NA
HETATM   25  C   UNL     1     -42.036  53.985 -54.549  1.00  0.00     0.089 A 
HETATM   26  C   UNL     1     -41.674  54.721 -55.713  1.00  0.00     0.071 A 
BRANCH  25  27
HETATM   27  C   UNL     1     -41.161  53.220 -53.655  1.00  0.00    -0.003 A 
HETATM   28  C   UNL     1     -41.125  53.512 -52.280  1.00  0.00     0.050 A 
HETATM   29  C   UNL     1     -40.285  52.803 -51.420  1.00  0.00     0.069 A 
HETATM   30  C   UNL     1     -39.479  51.786 -51.935  1.00  0.00     0.037 A 
HETATM   31  C   UNL     1     -39.508  51.478 -53.294  1.00  0.00     0.004 A 
HETATM   32  C   UNL     1     -40.346  52.193 -54.152  1.00  0.00     0.014 A 
BRANCH  29  33
HETATM   33  O   UNL     1     -40.158  53.004 -50.072  1.00  0.00    -0.356 OA
HETATM   34  C   UNL     1     -39.691  54.282 -49.658  1.00  0.00     0.210 C 
ENDBRANCH  29  33
ENDBRANCH  25  27
ENDBRANCH   2  21
TORSDOF 10
ENDMDL
MODEL 2
REMARK VINA RESULT:      -7.3      2.092      4.633
REMARK  10 active torsions:
REMARK  status: ('A' for Active; 'I' for Inactive)
REMARK       I    between atoms: C_2  and  N_3 
REMARK    1  A    between atoms: N_3  and  C_4 
REMARK    2  A    between atoms: C_6  and  O_7 
REMARK    3  A    between atoms: O_7  and  C_8 
REMARK    4  A    between atoms: C_8  and  C_9 
REMARK    5  A    between atoms: C_9  and  C_10 
REMARK    6  A    between atoms: C_10  and  C_11 
REMARK    7  A    between atoms: C_11  and  N_12 
REMARK       I    between atoms: N_12  and  C_13 
REMARK    8  A    between atoms: C_13  and  C_14 
REMARK    9  A    between atoms: C_18  and  C_19 
REMARK   10  A    between atoms: C_21  and  O_22 
ROOT
HETATM    1  N   UNL     1     -42.063  59.368 -52.960  1.00  0.00    -0.345 N 
HETATM    2  C   UNL     1     -42.552  58.848 -51.789  1.00  0.00     0.270 C 
HETATM    3  O   UNL     1     -43.362  59.447 -51.089  1.00  0.00    -0.266 OA
HETATM    4  H   UNL     1     -41.377  58.860 -53.496  1.00  0.00     0.163 HD
ENDROOT
BRANCH   1   5
HETATM    5  C   UNL     1     -42.474  60.667 -53.421  1.00  0.00     0.217 C 
BRANCH   5   6
HETATM    6  C   UNL     1     -42.483  60.693 -54.884  1.00  0.00    -0.085 C 
BRANCH   6   7
HETATM    7  C   UNL     1     -42.500  60.714 -56.188  1.00  0.00    -0.078 C 
BRANCH   7   8
HETATM    8  C   UNL     1     -42.522  60.736 -57.708  1.00  0.00     0.269 C 
BRANCH   8   9
HETATM    9  O   UNL     1     -41.553  59.822 -58.216  1.00  0.00    -0.339 OA
BRANCH   9  10
HETATM   10  C   UNL     1     -41.993  58.540 -58.427  1.00  0.00     0.072 A 
HETATM   11  C   UNL     1     -42.450  57.655 -57.442  1.00  0.00     0.066 A 
HETATM   12  C   UNL     1     -42.884  56.369 -57.777  1.00  0.00     0.037 A 
HETATM   13  C   UNL     1     -42.851  55.970 -59.119  1.00  0.00     0.029 A 
HETATM   14  C   UNL     1     -42.394  56.845 -60.107  1.00  0.00     0.005 A 
HETATM   15  C   UNL     1     -41.967  58.125 -59.759  1.00  0.00     0.037 A 
BRANCH  12  16
HETATM   16  N   UNL     1     -43.366  55.431 -56.837  1.00  0.00    -0.327 N 
HETATM   17  C   UNL     1     -42.632  54.719 -55.905  1.00  0.00     0.218 C 
HETATM   18  C   UNL     1     -43.494  53.810 -55.061  1.00  0.00     0.117 C 
HETATM   19  O   UNL     1     -41.417  54.749 -55.742  1.00  0.00    -0.274 OA
HETATM   20  H   UNL     1     -44.364  55.265 -56.854  1.00  0.00     0.169 HD
ENDBRANCH  12  16
ENDBRANCH   9  10
ENDBRANCH   8   9
ENDBRANCH   7   8
ENDBRANCH   6   7
ENDBRANCH   5   6
ENDBRANCH   1   5
BRANCH   2  21
HETATM   21  C   UNL     1     -42.041  57.553 -51.431  1.00  0.00     0.120 A 
HETATM   22  N   UNL     1     -41.746  57.234 -50.137  1.00  0.00    -0.272 N 
HETATM   23  H   UNL     1     -41.853  57.834 -49.324  1.00  0.00     0.189 HD
HETATM   24  N   UNL     1     -41.250  55.999 -49.972  1.00  0.00    -0.174 NA
HETATM   25  C   UNL     1     -41.249  55.467 -51.205  1.00  0.00     0.089 A 
HETATM   26  C   UNL     1     -41.737  56.415 -52.149  1.00  0.00     0.071 A 
BRANCH  25  27
HETATM   27  C   UNL     1     -40.780  54.101 -51.456  1.00  0.00    -0.003 A 
HETATM   28  C   UNL     1     -40.600  53.646 -52.775  1.00  0.00     0.050 A 
HETATM   29  C   UNL     1     -40.169  52.343 -53.029  1.00  0.00     0.069 A 
HETATM   30  C   UNL     1     -39.908  51.487 -51.959  1.00  0.00     0.037 A 
HETATM   31  C   UNL     1     -40.074  51.923 -50.645  1.00  0.00     0.004 A 
HETATM   32  C   UNL     1     -40.510  53.226 -50.394  1.00  0.00     0.014 A 
BRANCH  29  33
HETATM   33  O   UNL     1     -39.969  51.788 -54.264  1.00  0.00    -0.356 OA
HETATM   34  C   UNL     1     -39.669  50.398 -54.300  1.00  0.00     0.210 C 
ENDBRANCH  29  33
ENDBRANCH  25  27
ENDBRANCH   2  21
TORSDOF 10
ENDMDL
MODEL 3
REMARK VINA RESULT:      -7.3      2.845      5.169
REMARK  10 active torsions:
REMARK  status: ('A' for Active; 'I' for Inactive)
REMARK       I    between atoms: C_2  and  N_3 
REMARK    1  A    between atoms: N_3  and  C_4 
REMARK    2  A    between atoms: C_6  and  O_7 
REMARK    3  A    between atoms: O_7  and  C_8 
REMARK    4  A    between atoms: C_8  and  C_9 
REMARK    5  A    between atoms: C_9  and  C_10 
REMARK    6  A    between atoms: C_10  and  C_11 
REMARK    7  A    between atoms: C_11  and  N_12 
REMARK       I    between atoms: N_12  and  C_13 
REMARK    8  A    between atoms: C_13  and  C_14 
REMARK    9  A    between atoms: C_18  and  C_19 
REMARK   10  A    between atoms: C_21  and  O_22 
ROOT
HETATM    1  N   UNL     1     -42.153  58.142 -54.786  1.00  0.00    -0.345 N 
HETATM    2  C   UNL     1     -41.119  57.869 -53.927  1.00  0.00     0.270 C 
HETATM    3  O   UNL     1     -40.316  58.725 -53.569  1.00  0.00    -0.266 OA
HETATM    4  H   UNL     1     -42.777  57.407 -55.082  1.00  0.00     0.163 HD
ENDROOT
BRANCH   1   5
HETATM    5  C   UNL     1     -42.338  59.462 -55.326  1.00  0.00     0.217 C 
BRANCH   5   6
HETATM    6  C   UNL     1     -42.368  59.400 -56.787  1.00  0.00    -0.085 C 
BRANCH   6   7
HETATM    7  C   UNL     1     -42.401  59.337 -58.089  1.00  0.00    -0.078 C 
BRANCH   7   8
HETATM    8  C   UNL     1     -42.439  59.263 -59.608  1.00  0.00     0.269 C 
BRANCH   8   9
HETATM    9  O   UNL     1     -42.067  57.955 -60.034  1.00  0.00    -0.339 OA
BRANCH   9  10
HETATM   10  C   UNL     1     -43.067  57.016 -60.024  1.00  0.00     0.072 A 
HETATM   11  C   UNL     1     -44.267  57.086 -60.743  1.00  0.00     0.066 A 
HETATM   12  C   UNL     1     -45.214  56.060 -60.661  1.00  0.00     0.037 A 
HETATM   13  C   UNL     1     -44.948  54.956 -59.841  1.00  0.00     0.029 A 
HETATM   14  C   UNL     1     -43.757  54.881 -59.118  1.00  0.00     0.005 A 
HETATM   15  C   UNL     1     -42.821  55.908 -59.212  1.00  0.00     0.037 A 
BRANCH  12  16
HETATM   16  N   UNL     1     -46.438  56.061 -61.366  1.00  0.00    -0.327 N 
HETATM   17  C   UNL     1     -47.463  56.986 -61.275  1.00  0.00     0.218 C 
HETATM   18  C   UNL     1     -48.619  56.662 -62.190  1.00  0.00     0.117 C 
HETATM   19  O   UNL     1     -47.510  57.965 -60.539  1.00  0.00    -0.274 OA
HETATM   20  H   UNL     1     -46.574  55.292 -62.010  1.00  0.00     0.169 HD
ENDBRANCH  12  16
ENDBRANCH   9  10
ENDBRANCH   8   9
ENDBRANCH   7   8
ENDBRANCH   6   7
ENDBRANCH   5   6
ENDBRANCH   1   5
BRANCH   2  21
HETATM   21  C   UNL     1     -41.033  56.505 -53.483  1.00  0.00     0.120 A 
HETATM   22  N   UNL     1     -41.469  56.127 -52.245  1.00  0.00    -0.272 N 
HETATM   23  H   UNL     1     -41.886  56.727 -51.539  1.00  0.00     0.189 HD
HETATM   24  N   UNL     1     -41.292  54.827 -51.970  1.00  0.00    -0.174 NA
HETATM   25  C   UNL     1     -40.746  54.316 -53.086  1.00  0.00     0.089 A 
HETATM   26  C   UNL     1     -40.566  55.341 -54.058  1.00  0.00     0.071 A 
BRANCH  25  27
HETATM   27  C   UNL     1     -40.402  52.895 -53.196  1.00  0.00    -0.003 A 
HETATM   28  C   UNL     1     -39.904  52.200 -52.079  1.00  0.00     0.050 A 
HETATM   29  C   UNL     1     -39.556  50.851 -52.173  1.00  0.00     0.069 A 
HETATM   30  C   UNL     1     -39.713  50.187 -53.390  1.00  0.00     0.037 A 
HETATM   31  C   UNL     1     -40.212  50.859 -54.506  1.00  0.00     0.004 A 
HETATM   32  C   UNL     1     -40.554  52.209 -54.409  1.00  0.00     0.014 A 
BRANCH  29  33
HETATM   33  O   UNL     1     -39.055  50.076 -51.162  1.00  0.00    -0.356 OA
HETATM   34  C   UNL     1     -39.986  49.615 -50.190  1.00  0.00     0.210 C 
ENDBRANCH  29  33
ENDBRANCH  25  27
ENDBRANCH   2  21
TORSDOF 10
ENDMDL
MODEL 4
REMARK VINA RESULT:      -7.2      2.690      5.700
REMARK  10 active torsions:
REMARK  status: ('A' for Active; 'I' for Inactive)
REMARK       I    between atoms: C_2  and  N_3 
REMARK    1  A    between atoms: N_3  and  C_4 
REMARK    2  A    between atoms: C_6  and  O_7 
REMARK    3  A    between atoms: O_7  and  C_8 
REMARK    4  A    between atoms: C_8  and  C_9 
REMARK    5  A    between atoms: C_9  and  C_10 
REMARK    6  A    between atoms: C_10  and  C_11 
REMARK    7  A    between atoms: C_11  and  N_12 
REMARK       I    between atoms: N_12  and  C_13 
REMARK    8  A    between atoms: C_13  and  C_14 
REMARK    9  A    between atoms: C_18  and  C_19 
REMARK   10  A    between atoms: C_21  and  O_22 
ROOT
HETATM    1  N   UNL     1     -42.782  57.623 -50.788  1.00  0.00    -0.345 N 
HETATM    2  C   UNL     1     -41.476  57.329 -50.490  1.00  0.00     0.270 C 
HETATM    3  O   UNL     1     -40.617  58.195 -50.365  1.00  0.00    -0.266 OA
HETATM    4  H   UNL     1     -43.456  56.884 -50.912  1.00  0.00     0.163 HD
ENDROOT
BRANCH   1   5
HETATM    5  C   UNL     1     -43.208  58.983 -50.983  1.00  0.00     0.217 C 
BRANCH   5   6
HETATM    6  C   UNL     1     -43.474  59.220 -52.402  1.00  0.00    -0.085 C 
BRANCH   6   7
HETATM    7  C   UNL     1     -43.718  59.439 -53.664  1.00  0.00    -0.078 C 
BRANCH   7   8
HETATM    8  C   UNL     1     -44.003  59.696 -55.136  1.00  0.00     0.269 C 
BRANCH   8   9
HETATM    9  O   UNL     1     -42.901  59.251 -55.923  1.00  0.00    -0.339 OA
BRANCH   9  10
HETATM   10  C   UNL     1     -42.937  57.938 -56.317  1.00  0.00     0.072 A 
HETATM   11  C   UNL     1     -43.650  57.428 -57.409  1.00  0.00     0.066 A 
HETATM   12  C   UNL     1     -43.606  56.065 -57.722  1.00  0.00     0.037 A 
HETATM   13  C   UNL     1     -42.840  55.210 -56.920  1.00  0.00     0.029 A 
HETATM   14  C   UNL     1     -42.130  55.710 -55.827  1.00  0.00     0.005 A 
HETATM   15  C   UNL     1     -42.180  57.070 -55.529  1.00  0.00     0.037 A 
BRANCH  12  16
HETATM   16  N   UNL     1     -44.291  55.486 -58.814  1.00  0.00    -0.327 N 
HETATM   17  C   UNL     1     -43.963  55.572 -60.155  1.00  0.00     0.218 C 
HETATM   18  C   UNL     1     -44.927  54.815 -61.036  1.00  0.00     0.117 C 
HETATM   19  O   UNL     1     -43.029  56.195 -60.649  1.00  0.00    -0.274 OA
HETATM   20  H   UNL     1     -45.116  54.949 -58.579  1.00  0.00     0.169 HD
ENDBRANCH  12  16
ENDBRANCH   9  10
ENDBRANCH   8   9
ENDBRANCH   7   8
ENDBRANCH   6   7
ENDBRANCH   5   6
ENDBRANCH   1   5
BRANCH   2  21
HETATM   21  C   UNL     1     -41.179  55.930 -50.347  1.00  0.00     0.120 A 
HETATM   22  N   UNL     1     -41.191  55.318 -49.126  1.00  0.00    -0.272 N 
HETATM   23  H   UNL     1     -41.404  55.751 -48.232  1.00  0.00     0.189 HD
HETATM   24  N   UNL     1     -40.863  54.018 -49.156  1.00  0.00    -0.174 NA
HETATM   25  C   UNL     1     -40.659  53.751 -50.456  1.00  0.00     0.089 A 
HETATM   26  C   UNL     1     -40.846  54.928 -51.235  1.00  0.00     0.071 A 
BRANCH  25  27
HETATM   27  C   UNL     1     -40.284  52.411 -50.919  1.00  0.00    -0.003 A 
HETATM   28  C   UNL     1     -39.889  52.209 -52.254  1.00  0.00     0.050 A 
HETATM   29  C   UNL     1     -39.545  50.936 -52.713  1.00  0.00     0.069 A 
HETATM   30  C   UNL     1     -39.588  49.856 -51.831  1.00  0.00     0.037 A 
HETATM   31  C   UNL     1     -39.970  50.039 -50.503  1.00  0.00     0.004 A 
HETATM   32  C   UNL     1     -40.319  51.312 -50.048  1.00  0.00     0.014 A 
BRANCH  29  33
HETATM   33  O   UNL     1     -39.156  50.618 -53.986  1.00  0.00    -0.356 OA
HETATM   34  C   UNL     1     -40.090  49.895 -54.778  1.00  0.00     0.210 C 
ENDBRANCH  29  33
ENDBRANCH  25  27
ENDBRANCH   2  21
TORSDOF 10
ENDMDL
MODEL 5
REMARK VINA RESULT:      -7.2     16.198     20.743
REMARK  10 active torsions:
REMARK  status: ('A' for Active; 'I' for Inactive)
REMARK       I    between atoms: C_2  and  N_3 
REMARK    1  A    between atoms: N_3  and  C_4 
REMARK    2  A    between atoms: C_6  and  O_7 
REMARK    3  A    between atoms: O_7  and  C_8 
REMARK    4  A    between atoms: C_8  and  C_9 
REMARK    5  A    between atoms: C_9  and  C_10 
REMARK    6  A    between atoms: C_10  and  C_11 
REMARK    7  A    between atoms: C_11  and  N_12 
REMARK       I    between atoms: N_12  and  C_13 
REMARK    8  A    between atoms: C_13  and  C_14 
REMARK    9  A    between atoms: C_18  and  C_19 
REMARK   10  A    between atoms: C_21  and  O_22 
ROOT
HETATM    1  N   UNL     1     -34.599  41.913 -52.536  1.00  0.00    -0.345 N 
HETATM    2  C   UNL     1     -35.780  42.073 -53.215  1.00  0.00     0.270 C 
HETATM    3  O   UNL     1     -36.834  42.348 -52.650  1.00  0.00    -0.266 OA
HETATM    4  H   UNL     1     -33.757  41.659 -53.029  1.00  0.00     0.163 HD
ENDROOT
BRANCH   1   5
HETATM    5  C   UNL     1     -34.544  42.050 -51.106  1.00  0.00     0.217 C 
BRANCH   5   6
HETATM    6  C   UNL     1     -33.626  41.056 -50.548  1.00  0.00    -0.085 C 
BRANCH   6   7
HETATM    7  C   UNL     1     -32.816  40.165 -50.049  1.00  0.00    -0.078 C 
BRANCH   7   8
HETATM    8  C   UNL     1     -31.871  39.126 -49.466  1.00  0.00     0.269 C 
BRANCH   8   9
HETATM    9  O   UNL     1     -30.853  39.774 -48.708  1.00  0.00    -0.339 OA
BRANCH   9  10
HETATM   10  C   UNL     1     -30.888  39.563 -47.353  1.00  0.00     0.072 A 
HETATM   11  C   UNL     1     -30.072  40.190 -46.403  1.00  0.00     0.066 A 
HETATM   12  C   UNL     1     -30.204  39.901 -45.041  1.00  0.00     0.037 A 
HETATM   13  C   UNL     1     -31.166  38.966 -44.636  1.00  0.00     0.029 A 
HETATM   14  C   UNL     1     -31.980  38.335 -45.577  1.00  0.00     0.005 A 
HETATM   15  C   UNL     1     -31.840  38.634 -46.931  1.00  0.00     0.037 A 
BRANCH  12  16
HETATM   16  N   UNL     1     -29.423  40.504 -44.030  1.00  0.00    -0.327 N 
HETATM   17  C   UNL     1     -28.407  39.923 -43.291  1.00  0.00     0.218 C 
HETATM   18  C   UNL     1     -27.792  40.881 -42.300  1.00  0.00     0.117 C 
HETATM   19  O   UNL     1     -28.016  38.763 -43.358  1.00  0.00    -0.274 OA
HETATM   20  H   UNL     1     -29.638  41.471 -43.827  1.00  0.00     0.169 HD
ENDBRANCH  12  16
ENDBRANCH   9  10
ENDBRANCH   8   9
ENDBRANCH   7   8
ENDBRANCH   6   7
ENDBRANCH   5   6
ENDBRANCH   1   5
BRANCH   2  21
HETATM   21  C   UNL     1     -35.701  41.885 -54.638  1.00  0.00     0.120 A 
HETATM   22  N   UNL     1     -34.543  42.112 -55.326  1.00  0.00    -0.272 N 
HETATM   23  H   UNL     1     -33.655  42.414 -54.937  1.00  0.00     0.189 HD
HETATM   24  N   UNL     1     -34.641  41.919 -56.650  1.00  0.00    -0.174 NA
HETATM   25  C   UNL     1     -35.907  41.516 -56.841  1.00  0.00     0.089 A 
HETATM   26  C   UNL     1     -36.606  41.485 -55.600  1.00  0.00     0.071 A 
BRANCH  25  27
HETATM   27  C   UNL     1     -36.421  41.190 -58.175  1.00  0.00    -0.003 A 
HETATM   28  C   UNL     1     -36.273  39.891 -58.691  1.00  0.00     0.050 A 
HETATM   29  C   UNL     1     -36.741  39.570 -59.967  1.00  0.00     0.069 A 
HETATM   30  C   UNL     1     -37.371  40.553 -60.731  1.00  0.00     0.037 A 
HETATM   31  C   UNL     1     -37.533  41.844 -60.232  1.00  0.00     0.004 A 
HETATM   32  C   UNL     1     -37.058  42.163 -58.959  1.00  0.00     0.014 A 
BRANCH  29  33
HETATM   33  O   UNL     1     -36.646  38.348 -60.576  1.00  0.00    -0.356 OA
HETATM   34  C   UNL     1     -35.574  38.173 -61.494  1.00  0.00     0.210 C 
ENDBRANCH  29  33
ENDBRANCH  25  27
ENDBRANCH   2  21
TORSDOF 10
ENDMDL
MODEL 6
REMARK VINA RESULT:      -7.1      1.803      2.478
REMARK  10 active torsions:
REMARK  status: ('A' for Active; 'I' for Inactive)
REMARK       I    between atoms: C_2  and  N_3 
REMARK    1  A    between atoms: N_3  and  C_4 
REMARK    2  A    between atoms: C_6  and  O_7 
REMARK    3  A    between atoms: O_7  and  C_8 
REMARK    4  A    between atoms: C_8  and  C_9 
REMARK    5  A    between atoms: C_9  and  C_10 
REMARK    6  A    between atoms: C_10  and  C_11 
REMARK    7  A    between atoms: C_11  and  N_12 
REMARK       I    between atoms: N_12  and  C_13 
REMARK    8  A    between atoms: C_13  and  C_14 
REMARK    9  A    between atoms: C_18  and  C_19 
REMARK   10  A    between atoms: C_21  and  O_22 
ROOT
HETATM    1  N   UNL     1     -41.825  57.414 -57.468  1.00  0.00    -0.345 N 
HETATM    2  C   UNL     1     -42.878  56.578 -57.197  1.00  0.00     0.270 C 
HETATM    3  O   UNL     1     -43.991  56.741 -57.685  1.00  0.00    -0.266 OA
HETATM    4  H   UNL     1     -40.930  57.267 -57.026  1.00  0.00     0.163 HD
ENDROOT
BRANCH   1   5
HETATM    5  C   UNL     1     -41.983  58.545 -58.342  1.00  0.00     0.217 C 
BRANCH   5   6
HETATM    6  C   UNL     1     -42.694  59.616 -57.643  1.00  0.00    -0.085 C 
BRANCH   6   7
HETATM    7  C   UNL     1     -43.330  60.564 -57.013  1.00  0.00    -0.078 C 
BRANCH   7   8
HETATM    8  C   UNL     1     -44.073  61.668 -56.278  1.00  0.00     0.269 C 
BRANCH   8   9
HETATM    9  O   UNL     1     -44.978  61.095 -55.337  1.00  0.00    -0.339 OA
BRANCH   9  10
HETATM   10  C   UNL     1     -44.478  60.074 -54.570  1.00  0.00     0.072 A 
HETATM   11  C   UNL     1     -43.448  60.184 -53.628  1.00  0.00     0.066 A 
HETATM   12  C   UNL     1     -43.024  59.071 -52.895  1.00  0.00     0.037 A 
HETATM   13  C   UNL     1     -43.642  57.834 -53.121  1.00  0.00     0.029 A 
HETATM   14  C   UNL     1     -44.666  57.716 -54.062  1.00  0.00     0.005 A 
HETATM   15  C   UNL     1     -45.081  58.834 -54.782  1.00  0.00     0.037 A 
BRANCH  12  16
HETATM   16  N   UNL     1     -42.000  59.113 -51.923  1.00  0.00    -0.327 N 
HETATM   17  C   UNL     1     -40.634  59.155 -52.138  1.00  0.00     0.218 C 
HETATM   18  C   UNL     1     -39.845  59.199 -50.852  1.00  0.00     0.117 C 
HETATM   19  O   UNL     1     -40.056  59.134 -53.220  1.00  0.00    -0.274 OA
HETATM   20  H   UNL     1     -42.309  59.109 -50.959  1.00  0.00     0.169 HD
ENDBRANCH  12  16
ENDBRANCH   9  10
ENDBRANCH   8   9
ENDBRANCH   7   8
ENDBRANCH   6   7
ENDBRANCH   5   6
ENDBRANCH   1   5
BRANCH   2  21
HETATM   21  C   UNL     1     -42.590  55.503 -56.288  1.00  0.00     0.120 A 
HETATM   22  N   UNL     1     -43.506  54.525 -56.024  1.00  0.00    -0.272 N 
HETATM   23  H   UNL     1     -44.439  54.444 -56.419  1.00  0.00     0.189 HD
HETATM   24  N   UNL     1     -43.097  53.610 -55.132  1.00  0.00    -0.174 NA
HETATM   25  C   UNL     1     -41.845  53.980 -54.819  1.00  0.00     0.089 A 
HETATM   26  C   UNL     1     -41.491  55.166 -55.523  1.00  0.00     0.071 A 
BRANCH  25  27
HETATM   27  C   UNL     1     -41.032  53.220 -53.865  1.00  0.00    -0.003 A 
HETATM   28  C   UNL     1     -40.978  53.610 -52.515  1.00  0.00     0.050 A 
HETATM   29  C   UNL     1     -40.195  52.906 -51.598  1.00  0.00     0.069 A 
HETATM   30  C   UNL     1     -39.465  51.797 -52.029  1.00  0.00     0.037 A 
HETATM   31  C   UNL     1     -39.513  51.392 -53.362  1.00  0.00     0.004 A 
HETATM   32  C   UNL     1     -40.293  52.102 -54.278  1.00  0.00     0.014 A 
BRANCH  29  33
HETATM   33  O   UNL     1     -40.057  53.196 -50.267  1.00  0.00    -0.356 OA
HETATM   34  C   UNL     1     -40.981  54.126 -49.716  1.00  0.00     0.210 C 
ENDBRANCH  29  33
ENDBRANCH  25  27
ENDBRANCH   2  21
TORSDOF 10
ENDMDL
MODEL 7
REMARK VINA RESULT:      -6.9      2.917      4.664
REMARK  10 active torsions:
REMARK  status: ('A' for Active; 'I' for Inactive)
REMARK       I    between atoms: C_2  and  N_3 
REMARK    1  A    between atoms: N_3  and  C_4 
REMARK    2  A    between atoms: C_6  and  O_7 
REMARK    3  A    between atoms: O_7  and  C_8 
REMARK    4  A    between atoms: C_8  and  C_9 
REMARK    5  A    between atoms: C_9  and  C_10 
REMARK    6  A    between atoms: C_10  and  C_11 
REMARK    7  A    between atoms: C_11  and  N_12 
REMARK       I    between atoms: N_12  and  C_13 
REMARK    8  A    between atoms: C_13  and  C_14 
REMARK    9  A    between atoms: C_18  and  C_19 
REMARK   10  A    between atoms: C_21  and  O_22 
ROOT
HETATM    1  N   UNL     1     -42.262  58.745 -56.284  1.00  0.00    -0.345 N 
HETATM    2  C   UNL     1     -42.528  57.496 -56.784  1.00  0.00     0.270 C 
HETATM    3  O   UNL     1     -42.835  57.307 -57.957  1.00  0.00    -0.266 OA
HETATM    4  H   UNL     1     -42.040  58.867 -55.308  1.00  0.00     0.163 HD
ENDROOT
BRANCH   1   5
HETATM    5  C   UNL     1     -42.345  59.911 -57.121  1.00  0.00     0.217 C 
BRANCH   5   6
HETATM    6  C   UNL     1     -43.728  60.386 -57.173  1.00  0.00    -0.085 C 
BRANCH   6   7
HETATM    7  C   UNL     1     -44.963  60.801 -57.220  1.00  0.00    -0.078 C 
BRANCH   7   8
HETATM    8  C   UNL     1     -46.404  61.284 -57.276  1.00  0.00     0.269 C 
BRANCH   8   9
HETATM    9  O   UNL     1     -47.288  60.166 -57.255  1.00  0.00    -0.339 OA
BRANCH   9  10
HETATM   10  C   UNL     1     -47.203  59.315 -58.328  1.00  0.00     0.072 A 
HETATM   11  C   UNL     1     -46.678  58.017 -58.306  1.00  0.00     0.066 A 
HETATM   12  C   UNL     1     -46.651  57.235 -59.465  1.00  0.00     0.037 A 
HETATM   13  C   UNL     1     -47.152  57.772 -60.658  1.00  0.00     0.029 A 
HETATM   14  C   UNL     1     -47.674  59.066 -60.688  1.00  0.00     0.005 A 
HETATM   15  C   UNL     1     -47.698  59.833 -59.525  1.00  0.00     0.037 A 
BRANCH  12  16
HETATM   16  N   UNL     1     -46.146  55.916 -59.512  1.00  0.00    -0.327 N 
HETATM   17  C   UNL     1     -45.001  55.474 -60.150  1.00  0.00     0.218 C 
HETATM   18  C   UNL     1     -44.777  53.991 -59.977  1.00  0.00     0.117 C 
HETATM   19  O   UNL     1     -44.224  56.144 -60.821  1.00  0.00    -0.274 OA
HETATM   20  H   UNL     1     -46.693  55.220 -59.022  1.00  0.00     0.169 HD
ENDBRANCH  12  16
ENDBRANCH   9  10
ENDBRANCH   8   9
ENDBRANCH   7   8
ENDBRANCH   6   7
ENDBRANCH   5   6
ENDBRANCH   1   5
BRANCH   2  21
HETATM   21  C   UNL     1     -42.433  56.421 -55.836  1.00  0.00     0.120 A 
HETATM   22  N   UNL     1     -43.540  55.743 -55.410  1.00  0.00    -0.272 N 
HETATM   23  H   UNL     1     -44.499  55.904 -55.702  1.00  0.00     0.189 HD
HETATM   24  N   UNL     1     -43.288  54.789 -54.502  1.00  0.00    -0.174 NA
HETATM   25  C   UNL     1     -41.955  54.814 -54.345  1.00  0.00     0.089 A 
HETATM   26  C   UNL     1     -41.382  55.829 -55.164  1.00  0.00     0.071 A 
BRANCH  25  27
HETATM   27  C   UNL     1     -41.268  53.901 -53.426  1.00  0.00    -0.003 A 
HETATM   28  C   UNL     1     -40.567  52.789 -53.927  1.00  0.00     0.050 A 
HETATM   29  C   UNL     1     -39.923  51.902 -53.063  1.00  0.00     0.069 A 
HETATM   30  C   UNL     1     -39.971  52.130 -51.687  1.00  0.00     0.037 A 
HETATM   31  C   UNL     1     -40.654  53.231 -51.174  1.00  0.00     0.004 A 
HETATM   32  C   UNL     1     -41.303  54.113 -52.041  1.00  0.00     0.014 A 
BRANCH  29  33
HETATM   33  O   UNL     1     -39.221  50.786 -53.431  1.00  0.00    -0.356 OA
HETATM   34  C   UNL     1     -39.793  49.980 -54.455  1.00  0.00     0.210 C 
ENDBRANCH  29  33
ENDBRANCH  25  27
ENDBRANCH   2  21
TORSDOF 10
ENDMDL
MODEL 8
REMARK VINA RESULT:      -6.9      1.973      4.421
REMARK  10 active torsions:
REMARK  status: ('A' for Active; 'I' for Inactive)
REMARK       I    between atoms: C_2  and  N_3 
REMARK    1  A    between atoms: N_3  and  C_4 
REMARK    2  A    between atoms: C_6  and  O_7 
REMARK    3  A    between atoms: O_7  and  C_8 
REMARK    4  A    between atoms: C_8  and  C_9 
REMARK    5  A    between atoms: C_9  and  C_10 
REMARK    6  A    between atoms: C_10  and  C_11 
REMARK    7  A    between atoms: C_11  and  N_12 
REMARK       I    between atoms: N_12  and  C_13 
REMARK    8  A    between atoms: C_13  and  C_14 
REMARK    9  A    between atoms: C_18  and  C_19 
REMARK   10  A    between atoms: C_21  and  O_22 
ROOT
HETATM    1  N   UNL     1     -44.285  58.293 -53.646  1.00  0.00    -0.345 N 
HETATM    2  C   UNL     1     -44.621  57.176 -54.368  1.00  0.00     0.270 C 
HETATM    3  O   UNL     1     -45.646  57.109 -55.038  1.00  0.00    -0.266 OA
HETATM    4  H   UNL     1     -43.448  58.304 -53.083  1.00  0.00     0.163 HD
ENDROOT
BRANCH   1   5
HETATM    5  C   UNL     1     -45.139  59.450 -53.631  1.00  0.00     0.217 C 
BRANCH   5   6
HETATM    6  C   UNL     1     -45.013  60.175 -54.895  1.00  0.00    -0.085 C 
BRANCH   6   7
HETATM    7  C   UNL     1     -44.906  60.830 -56.018  1.00  0.00    -0.078 C 
BRANCH   7   8
HETATM    8  C   UNL     1     -44.782  61.593 -57.327  1.00  0.00     0.269 C 
BRANCH   8   9
HETATM    9  O   UNL     1     -45.062  60.723 -58.420  1.00  0.00    -0.339 OA
BRANCH   9  10
HETATM   10  C   UNL     1     -44.249  59.623 -58.534  1.00  0.00     0.072 A 
HETATM   11  C   UNL     1     -44.673  58.289 -58.570  1.00  0.00     0.066 A 
HETATM   12  C   UNL     1     -43.750  57.246 -58.697  1.00  0.00     0.037 A 
HETATM   13  C   UNL     1     -42.387  57.554 -58.783  1.00  0.00     0.029 A 
HETATM   14  C   UNL     1     -41.956  58.881 -58.744  1.00  0.00     0.005 A 
HETATM   15  C   UNL     1     -42.886  59.911 -58.620  1.00  0.00     0.037 A 
BRANCH  12  16
HETATM   16  N   UNL     1     -44.109  55.881 -58.751  1.00  0.00    -0.327 N 
HETATM   17  C   UNL     1     -44.350  55.116 -59.879  1.00  0.00     0.218 C 
HETATM   18  C   UNL     1     -44.704  53.687 -59.545  1.00  0.00     0.117 C 
HETATM   19  O   UNL     1     -44.325  55.493 -61.045  1.00  0.00    -0.274 OA
HETATM   20  H   UNL     1     -44.200  55.415 -57.857  1.00  0.00     0.169 HD
ENDBRANCH  12  16
ENDBRANCH   9  10
ENDBRANCH   8   9
ENDBRANCH   7   8
ENDBRANCH   6   7
ENDBRANCH   5   6
ENDBRANCH   1   5
BRANCH   2  21
HETATM   21  C   UNL     1     -43.693  56.083 -54.276  1.00  0.00     0.120 A 
HETATM   22  N   UNL     1     -43.465  55.248 -55.332  1.00  0.00    -0.272 N 
HETATM   23  H   UNL     1     -43.891  55.303 -56.253  1.00  0.00     0.189 HD
HETATM   24  N   UNL     1     -42.595  54.260 -55.077  1.00  0.00    -0.174 NA
HETATM   25  C   UNL     1     -42.206  54.470 -53.809  1.00  0.00     0.089 A 
HETATM   26  C   UNL     1     -42.877  55.605 -53.271  1.00  0.00     0.071 A 
BRANCH  25  27
HETATM   27  C   UNL     1     -41.235  53.595 -53.145  1.00  0.00    -0.003 A 
HETATM   28  C   UNL     1     -40.738  52.458 -53.808  1.00  0.00     0.050 A 
HETATM   29  C   UNL     1     -39.826  51.607 -53.181  1.00  0.00     0.069 A 
HETATM   30  C   UNL     1     -39.400  51.896 -51.884  1.00  0.00     0.037 A 
HETATM   31  C   UNL     1     -39.876  53.022 -51.215  1.00  0.00     0.004 A 
HETATM   32  C   UNL     1     -40.792  53.868 -51.843  1.00  0.00     0.014 A 
BRANCH  29  33
HETATM   33  O   UNL     1     -39.283  50.472 -53.720  1.00  0.00    -0.356 OA
HETATM   34  C   UNL     1     -40.022  49.841 -54.759  1.00  0.00     0.210 C 
ENDBRANCH  29  33
ENDBRANCH  25  27
ENDBRANCH   2  21
TORSDOF 10
ENDMDL
MODEL 9
REMARK VINA RESULT:      -6.9      1.916      2.793
REMARK  10 active torsions:
REMARK  status: ('A' for Active; 'I' for Inactive)
REMARK       I    between atoms: C_2  and  N_3 
REMARK    1  A    between atoms: N_3  and  C_4 
REMARK    2  A    between atoms: C_6  and  O_7 
REMARK    3  A    between atoms: O_7  and  C_8 
REMARK    4  A    between atoms: C_8  and  C_9 
REMARK    5  A    between atoms: C_9  and  C_10 
REMARK    6  A    between atoms: C_10  and  C_11 
REMARK    7  A    between atoms: C_11  and  N_12 
REMARK       I    between atoms: N_12  and  C_13 
REMARK    8  A    between atoms: C_13  and  C_14 
REMARK    9  A    between atoms: C_18  and  C_19 
REMARK   10  A    between atoms: C_21  and  O_22 
ROOT
HETATM    1  N   UNL     1     -42.105  58.040 -56.587  1.00  0.00    -0.345 N 
HETATM    2  C   UNL     1     -42.848  56.919 -56.852  1.00  0.00     0.270 C 
HETATM    3  O   UNL     1     -43.688  56.881 -57.745  1.00  0.00    -0.266 OA
HETATM    4  H   UNL     1     -41.443  58.045 -55.826  1.00  0.00     0.163 HD
ENDROOT
BRANCH   1   5
HETATM    5  C   UNL     1     -42.287  59.247 -57.347  1.00  0.00     0.217 C 
BRANCH   5   6
HETATM    6  C   UNL     1     -42.807  60.305 -56.481  1.00  0.00    -0.085 C 
BRANCH   6   7
HETATM    7  C   UNL     1     -43.261  61.250 -55.706  1.00  0.00    -0.078 C 
BRANCH   7   8
HETATM    8  C   UNL     1     -43.791  62.352 -54.801  1.00  0.00     0.269 C 
BRANCH   8   9
HETATM    9  O   UNL     1     -44.716  61.803 -53.866  1.00  0.00    -0.339 OA
BRANCH   9  10
HETATM   10  C   UNL     1     -44.165  61.138 -52.799  1.00  0.00     0.072 A 
HETATM   11  C   UNL     1     -44.378  59.793 -52.472  1.00  0.00     0.066 A 
HETATM   12  C   UNL     1     -43.754  59.218 -51.360  1.00  0.00     0.037 A 
HETATM   13  C   UNL     1     -42.914  60.011 -50.568  1.00  0.00     0.029 A 
HETATM   14  C   UNL     1     -42.700  61.353 -50.886  1.00  0.00     0.005 A 
HETATM   15  C   UNL     1     -43.325  61.913 -51.999  1.00  0.00     0.037 A 
BRANCH  12  16
HETATM   16  N   UNL     1     -43.915  57.867 -50.979  1.00  0.00    -0.327 N 
HETATM   17  C   UNL     1     -43.154  56.783 -51.377  1.00  0.00     0.218 C 
HETATM   18  C   UNL     1     -43.620  55.488 -50.756  1.00  0.00     0.117 C 
HETATM   19  O   UNL     1     -42.212  56.791 -52.163  1.00  0.00    -0.274 OA
HETATM   20  H   UNL     1     -44.679  57.679 -50.342  1.00  0.00     0.169 HD
ENDBRANCH  12  16
ENDBRANCH   9  10
ENDBRANCH   8   9
ENDBRANCH   7   8
ENDBRANCH   6   7
ENDBRANCH   5   6
ENDBRANCH   1   5
BRANCH   2  21
HETATM   21  C   UNL     1     -42.585  55.791 -56.001  1.00  0.00     0.120 A 
HETATM   22  N   UNL     1     -43.560  54.888 -55.688  1.00  0.00    -0.272 N 
HETATM   23  H   UNL     1     -44.525  54.902 -56.005  1.00  0.00     0.189 HD
HETATM   24  N   UNL     1     -43.162  53.910 -54.860  1.00  0.00    -0.174 NA
HETATM   25  C   UNL     1     -41.860  54.159 -54.644  1.00  0.00     0.089 A 
HETATM   26  C   UNL     1     -41.461  55.334 -55.342  1.00  0.00     0.071 A 
BRANCH  25  27
HETATM   27  C   UNL     1     -41.043  53.298 -53.782  1.00  0.00    -0.003 A 
HETATM   28  C   UNL     1     -40.943  53.567 -52.405  1.00  0.00     0.050 A 
HETATM   29  C   UNL     1     -40.155  52.766 -51.576  1.00  0.00     0.069 A 
HETATM   30  C   UNL     1     -39.468  51.683 -52.124  1.00  0.00     0.037 A 
HETATM   31  C   UNL     1     -39.562  51.397 -53.485  1.00  0.00     0.004 A 
HETATM   32  C   UNL     1     -40.346  52.204 -54.312  1.00  0.00     0.014 A 
BRANCH  29  33
HETATM   33  O   UNL     1     -39.975  52.935 -50.230  1.00  0.00    -0.356 OA
HETATM   34  C   UNL     1     -39.962  54.274 -49.749  1.00  0.00     0.210 C 
ENDBRANCH  29  33
ENDBRANCH  25  27
ENDBRANCH   2  21
TORSDOF 10
ENDMDL
MODEL 10
REMARK VINA RESULT:      -6.7      2.572      3.781
REMARK  10 active torsions:
REMARK  status: ('A' for Active; 'I' for Inactive)
REMARK       I    between atoms: C_2  and  N_3 
REMARK    1  A    between atoms: N_3  and  C_4 
REMARK    2  A    between atoms: C_6  and  O_7 
REMARK    3  A    between atoms: O_7  and  C_8 
REMARK    4  A    between atoms: C_8  and  C_9 
REMARK    5  A    between atoms: C_9  and  C_10 
REMARK    6  A    between atoms: C_10  and  C_11 
REMARK    7  A    between atoms: C_11  and  N_12 
REMARK       I    between atoms: N_12  and  C_13 
REMARK    8  A    between atoms: C_13  and  C_14 
REMARK    9  A    between atoms: C_18  and  C_19 
REMARK   10  A    between atoms: C_21  and  O_22 
ROOT
HETATM    1  N   UNL     1     -43.599  58.134 -56.371  1.00  0.00    -0.345 N 
HETATM    2  C   UNL     1     -42.954  57.114 -57.023  1.00  0.00     0.270 C 
HETATM    3  O   UNL     1     -42.684  57.162 -58.218  1.00  0.00    -0.266 OA
HETATM    4  H   UNL     1     -43.831  58.049 -55.394  1.00  0.00     0.163 HD
ENDROOT
BRANCH   1   5
HETATM    5  C   UNL     1     -44.006  59.321 -57.074  1.00  0.00     0.217 C 
BRANCH   5   6
HETATM    6  C   UNL     1     -44.728  60.212 -56.166  1.00  0.00    -0.085 C 
BRANCH   6   7
HETATM    7  C   UNL     1     -45.376  60.998 -55.351  1.00  0.00    -0.078 C 
BRANCH   7   8
HETATM    8  C   UNL     1     -46.130  61.914 -54.400  1.00  0.00     0.269 C 
BRANCH   8   9
HETATM    9  O   UNL     1     -46.331  61.253 -53.154  1.00  0.00    -0.339 OA
BRANCH   9  10
HETATM   10  C   UNL     1     -45.247  61.218 -52.314  1.00  0.00     0.072 A 
HETATM   11  C   UNL     1     -44.489  60.083 -51.998  1.00  0.00     0.066 A 
HETATM   12  C   UNL     1     -43.395  60.168 -51.131  1.00  0.00     0.037 A 
HETATM   13  C   UNL     1     -43.068  61.410 -50.573  1.00  0.00     0.029 A 
HETATM   14  C   UNL     1     -43.820  62.545 -50.879  1.00  0.00     0.005 A 
HETATM   15  C   UNL     1     -44.906  62.446 -51.747  1.00  0.00     0.037 A 
BRANCH  12  16
HETATM   16  N   UNL     1     -42.583  59.067 -50.779  1.00  0.00    -0.327 N 
HETATM   17  C   UNL     1     -41.296  58.797 -51.211  1.00  0.00     0.218 C 
HETATM   18  C   UNL     1     -40.739  57.527 -50.614  1.00  0.00     0.117 C 
HETATM   19  O   UNL     1     -40.631  59.452 -52.006  1.00  0.00    -0.274 OA
HETATM   20  H   UNL     1     -42.997  58.403 -50.138  1.00  0.00     0.169 HD
ENDBRANCH  12  16
ENDBRANCH   9  10
ENDBRANCH   8   9
ENDBRANCH   7   8
ENDBRANCH   6   7
ENDBRANCH   5   6
ENDBRANCH   1   5
BRANCH   2  21
HETATM   21  C   UNL     1     -42.626  55.976 -56.209  1.00  0.00     0.120 A 
HETATM   22  N   UNL     1     -43.336  54.811 -56.289  1.00  0.00    -0.272 N 
HETATM   23  H   UNL     1     -44.125  54.622 -56.900  1.00  0.00     0.189 HD
HETATM   24  N   UNL     1     -42.925  53.855 -55.443  1.00  0.00    -0.174 NA
HETATM   25  C   UNL     1     -41.878  54.398 -54.801  1.00  0.00     0.089 A 
HETATM   26  C   UNL     1     -41.661  55.731 -55.253  1.00  0.00     0.071 A 
BRANCH  25  27
HETATM   27  C   UNL     1     -41.130  53.657 -53.780  1.00  0.00    -0.003 A 
HETATM   28  C   UNL     1     -40.651  52.363 -54.055  1.00  0.00     0.050 A 
HETATM   29  C   UNL     1     -39.952  51.640 -53.087  1.00  0.00     0.069 A 
HETATM   30  C   UNL     1     -39.721  52.214 -51.837  1.00  0.00     0.037 A 
HETATM   31  C   UNL     1     -40.182  53.499 -51.550  1.00  0.00     0.004 A 
HETATM   32  C   UNL     1     -40.886  54.217 -52.519  1.00  0.00     0.014 A 
BRANCH  29  33
HETATM   33  O   UNL     1     -39.448  50.376 -53.235  1.00  0.00    -0.356 OA
HETATM   34  C   UNL     1     -39.678  49.738 -54.486  1.00  0.00     0.210 C 
ENDBRANCH  29  33
ENDBRANCH  25  27
ENDBRANCH   2  21
TORSDOF 10
ENDMDL
