MODEL 1
REMARK VINA RESULT:      -9.1      0.000      0.000
REMARK  7 active torsions:
REMARK  status: ('A' for Active; 'I' for Inactive)
REMARK    1  A    between atoms: C_7  and  C_8 
REMARK    2  A    between atoms: C_8  and  C_9 
REMARK       I    between atoms: C_9  and  N_10 
REMARK    3  A    between atoms: N_10  and  N_11 
REMARK       I    between atoms: N_11  and  C_12 
REMARK    4  A    between atoms: C_12  and  C_13 
REMARK    5  A    between atoms: C_23  and  O_24 
REMARK    6  A    between atoms: O_24  and  C_25 
REMARK    7  A    between atoms: C_25  and  C_26 
ROOT
HETATM    1  C   UNL     1     -45.430  59.252 -51.170  1.00  0.00     0.068 C 
HETATM    2  C   UNL     1     -44.469  58.117 -51.160  1.00  0.00     0.013 A 
HETATM    3  N   UNL     1     -44.848  56.859 -50.764  1.00  0.00    -0.359 N 
HETATM    4  H   UNL     1     -45.776  56.599 -50.459  1.00  0.00     0.166 HD
HETATM    5  C   UNL     1     -43.788  55.988 -50.843  1.00  0.00     0.043 A 
HETATM    6  C   UNL     1     -42.692  56.715 -51.303  1.00  0.00     0.002 A 
HETATM    7  C   UNL     1     -43.123  58.068 -51.492  1.00  0.00    -0.015 A 
HETATM    8  C   UNL     1     -43.718  54.624 -50.545  1.00  0.00     0.033 A 
HETATM    9  C   UNL     1     -42.490  53.975 -50.730  1.00  0.00     0.039 A 
HETATM   10  C   UNL     1     -41.373  54.666 -51.197  1.00  0.00     0.070 A 
HETATM   11  C   UNL     1     -41.467  56.036 -51.477  1.00  0.00     0.051 A 
ENDROOT
BRANCH   7  12
HETATM   12  C   UNL     1     -42.275  59.212 -51.961  1.00  0.00     0.146 C 
BRANCH  12  13
HETATM   13  C   UNL     1     -41.982  59.214 -53.453  1.00  0.00     0.240 C 
HETATM   14  N   UNL     1     -43.020  58.839 -54.279  1.00  0.00    -0.267 N 
HETATM   15  H   UNL     1     -43.855  58.362 -53.937  1.00  0.00     0.190 HD
HETATM   16  O   UNL     1     -40.901  59.612 -53.895  1.00  0.00    -0.272 OA
BRANCH  14  17
HETATM   17  N   UNL     1     -42.786  58.778 -55.653  1.00  0.00    -0.262 N 
HETATM   18  C   UNL     1     -42.656  57.555 -56.275  1.00  0.00     0.288 C 
HETATM   19  O   UNL     1     -42.675  56.481 -55.680  1.00  0.00    -0.264 OA
HETATM   20  H   UNL     1     -42.764  59.650 -56.185  1.00  0.00     0.190 HD
BRANCH  18  21
HETATM   21  C   UNL     1     -42.495  57.641 -57.760  1.00  0.00     0.125 A 
HETATM   22  N   UNL     1     -42.110  58.849 -58.259  1.00  0.00    -0.255 NA
HETATM   23  C   UNL     1     -41.980  58.930 -59.600  1.00  0.00     0.117 A 
HETATM   24  C   UNL     1     -42.216  57.873 -60.465  1.00  0.00     0.019 A 
HETATM   25  C   UNL     1     -42.607  56.650 -59.927  1.00  0.00     0.004 A 
HETATM   26  C   UNL     1     -42.751  56.525 -58.548  1.00  0.00     0.037 A 
ENDBRANCH  18  21
ENDBRANCH  14  17
ENDBRANCH  12  13
ENDBRANCH   7  12
BRANCH  10  27
HETATM   27  O   UNL     1     -40.134  54.130 -51.428  1.00  0.00    -0.347 OA
BRANCH  27  28
HETATM   28  C   UNL     1     -39.881  52.823 -50.909  1.00  0.00     0.214 C 
BRANCH  28  29
HETATM   29  C   UNL     1     -39.841  51.795 -52.020  1.00  0.00    -0.034 A 
HETATM   30  C   UNL     1     -39.570  50.441 -51.773  1.00  0.00     0.009 A 
HETATM   31  C   UNL     1     -39.569  49.513 -52.816  1.00  0.00     0.001 A 
HETATM   32  C   UNL     1     -39.851  49.922 -54.118  1.00  0.00     0.000 A 
HETATM   33  C   UNL     1     -40.138  51.260 -54.377  1.00  0.00     0.001 A 
HETATM   34  C   UNL     1     -40.138  52.190 -53.335  1.00  0.00     0.009 A 
ENDBRANCH  28  29
ENDBRANCH  27  28
ENDBRANCH  10  27
TORSDOF 7
ENDMDL
MODEL 2
REMARK VINA RESULT:      -8.9      1.828      2.436
REMARK  7 active torsions:
REMARK  status: ('A' for Active; 'I' for Inactive)
REMARK    1  A    between atoms: C_7  and  C_8 
REMARK    2  A    between atoms: C_8  and  C_9 
REMARK       I    between atoms: C_9  and  N_10 
REMARK    3  A    between atoms: N_10  and  N_11 
REMARK       I    between atoms: N_11  and  C_12 
REMARK    4  A    between atoms: C_12  and  C_13 
REMARK    5  A    between atoms: C_23  and  O_24 
REMARK    6  A    between atoms: O_24  and  C_25 
REMARK    7  A    between atoms: C_25  and  C_26 
ROOT
HETATM    1  C   UNL     1     -42.277  60.662 -51.239  1.00  0.00     0.068 C 
HETATM    2  C   UNL     1     -42.240  59.213 -51.569  1.00  0.00     0.013 A 
HETATM    3  N   UNL     1     -42.433  58.252 -50.609  1.00  0.00    -0.359 N 
HETATM    4  H   UNL     1     -42.611  58.434 -49.630  1.00  0.00     0.166 HD
HETATM    5  C   UNL     1     -42.354  56.995 -51.159  1.00  0.00     0.043 A 
HETATM    6  C   UNL     1     -42.099  57.157 -52.519  1.00  0.00     0.002 A 
HETATM    7  C   UNL     1     -42.016  58.565 -52.775  1.00  0.00    -0.015 A 
HETATM    8  C   UNL     1     -42.487  55.740 -50.560  1.00  0.00     0.033 A 
HETATM    9  C   UNL     1     -42.366  54.608 -51.377  1.00  0.00     0.039 A 
HETATM   10  C   UNL     1     -42.121  54.729 -52.745  1.00  0.00     0.070 A 
HETATM   11  C   UNL     1     -41.979  56.001 -53.317  1.00  0.00     0.051 A 
ENDROOT
BRANCH   7  12
HETATM   12  C   UNL     1     -41.739  59.211 -54.100  1.00  0.00     0.146 C 
BRANCH  12  13
HETATM   13  C   UNL     1     -42.677  58.789 -55.219  1.00  0.00     0.240 C 
HETATM   14  N   UNL     1     -42.100  58.125 -56.282  1.00  0.00    -0.267 N 
HETATM   15  H   UNL     1     -41.093  58.113 -56.445  1.00  0.00     0.190 HD
HETATM   16  O   UNL     1     -43.897  58.960 -55.135  1.00  0.00    -0.272 OA
BRANCH  14  17
HETATM   17  N   UNL     1     -42.911  57.760 -57.355  1.00  0.00    -0.262 N 
HETATM   18  C   UNL     1     -43.136  56.427 -57.626  1.00  0.00     0.288 C 
HETATM   19  O   UNL     1     -42.610  55.507 -57.006  1.00  0.00    -0.264 OA
HETATM   20  H   UNL     1     -43.369  58.497 -57.896  1.00  0.00     0.190 HD
BRANCH  18  21
HETATM   21  C   UNL     1     -44.094  56.187 -58.750  1.00  0.00     0.125 A 
HETATM   22  N   UNL     1     -45.049  57.138 -58.946  1.00  0.00    -0.255 NA
HETATM   23  C   UNL     1     -45.924  56.913 -59.950  1.00  0.00     0.117 A 
HETATM   24  C   UNL     1     -45.893  55.791 -60.763  1.00  0.00     0.019 A 
HETATM   25  C   UNL     1     -44.905  54.835 -60.541  1.00  0.00     0.004 A 
HETATM   26  C   UNL     1     -43.984  55.033 -59.516  1.00  0.00     0.037 A 
ENDBRANCH  18  21
ENDBRANCH  14  17
ENDBRANCH  12  13
ENDBRANCH   7  12
BRANCH  10  27
HETATM   27  O   UNL     1     -42.000  53.696 -53.635  1.00  0.00    -0.347 OA
BRANCH  27  28
HETATM   28  C   UNL     1     -40.683  53.366 -54.078  1.00  0.00     0.214 C 
BRANCH  28  29
HETATM   29  C   UNL     1     -40.233  52.036 -53.511  1.00  0.00    -0.034 A 
HETATM   30  C   UNL     1     -39.866  51.886 -52.166  1.00  0.00     0.009 A 
HETATM   31  C   UNL     1     -39.485  50.639 -51.667  1.00  0.00     0.001 A 
HETATM   32  C   UNL     1     -39.476  49.523 -52.502  1.00  0.00     0.000 A 
HETATM   33  C   UNL     1     -39.854  49.654 -53.837  1.00  0.00     0.001 A 
HETATM   34  C   UNL     1     -40.235  50.900 -54.337  1.00  0.00     0.009 A 
ENDBRANCH  28  29
ENDBRANCH  27  28
ENDBRANCH  10  27
TORSDOF 7
ENDMDL
MODEL 3
REMARK VINA RESULT:      -8.8      2.382      5.716
REMARK  7 active torsions:
REMARK  status: ('A' for Active; 'I' for Inactive)
REMARK    1  A    between atoms: C_7  and  C_8 
REMARK    2  A    between atoms: C_8  and  C_9 
REMARK       I    between atoms: C_9  and  N_10 
REMARK    3  A    between atoms: N_10  and  N_11 
REMARK       I    between atoms: N_11  and  C_12 
REMARK    4  A    between atoms: C_12  and  C_13 
REMARK    5  A    between atoms: C_23  and  O_24 
REMARK    6  A    between atoms: O_24  and  C_25 
REMARK    7  A    between atoms: C_25  and  C_26 
ROOT
HETATM    1  C   UNL     1     -39.878  50.787 -54.308  1.00  0.00     0.068 C 
HETATM    2  C   UNL     1     -40.166  51.919 -53.389  1.00  0.00     0.013 A 
HETATM    3  N   UNL     1     -39.600  51.993 -52.141  1.00  0.00    -0.359 N 
HETATM    4  H   UNL     1     -38.961  51.315 -51.750  1.00  0.00     0.166 HD
HETATM    5  C   UNL     1     -40.018  53.128 -51.487  1.00  0.00     0.043 A 
HETATM    6  C   UNL     1     -40.884  53.802 -52.345  1.00  0.00     0.002 A 
HETATM    7  C   UNL     1     -40.986  53.027 -53.547  1.00  0.00    -0.015 A 
HETATM    8  C   UNL     1     -39.697  53.602 -50.212  1.00  0.00     0.033 A 
HETATM    9  C   UNL     1     -40.272  54.812 -49.799  1.00  0.00     0.039 A 
HETATM   10  C   UNL     1     -41.136  55.520 -50.634  1.00  0.00     0.070 A 
HETATM   11  C   UNL     1     -41.450  55.015 -51.903  1.00  0.00     0.051 A 
ENDROOT
BRANCH   7  12
HETATM   12  C   UNL     1     -41.822  53.358 -54.747  1.00  0.00     0.146 C 
BRANCH  12  13
HETATM   13  C   UNL     1     -41.472  54.675 -55.420  1.00  0.00     0.240 C 
HETATM   14  N   UNL     1     -42.403  55.173 -56.308  1.00  0.00    -0.267 N 
HETATM   15  H   UNL     1     -43.164  54.608 -56.686  1.00  0.00     0.190 HD
HETATM   16  O   UNL     1     -40.451  55.300 -55.119  1.00  0.00    -0.272 OA
BRANCH  14  17
HETATM   17  N   UNL     1     -42.106  56.354 -56.987  1.00  0.00    -0.262 N 
HETATM   18  C   UNL     1     -42.822  56.699 -58.114  1.00  0.00     0.288 C 
HETATM   19  O   UNL     1     -43.692  55.991 -58.612  1.00  0.00    -0.264 OA
HETATM   20  H   UNL     1     -41.388  56.973 -56.604  1.00  0.00     0.190 HD
BRANCH  18  21
HETATM   21  C   UNL     1     -42.453  58.031 -58.686  1.00  0.00     0.125 A 
HETATM   22  N   UNL     1     -42.462  58.131 -60.044  1.00  0.00    -0.255 NA
HETATM   23  C   UNL     1     -42.114  59.329 -60.561  1.00  0.00     0.117 A 
HETATM   24  C   UNL     1     -41.758  60.427 -59.793  1.00  0.00     0.019 A 
HETATM   25  C   UNL     1     -41.758  60.297 -58.407  1.00  0.00     0.004 A 
HETATM   26  C   UNL     1     -42.113  59.077 -57.836  1.00  0.00     0.037 A 
ENDBRANCH  18  21
ENDBRANCH  14  17
ENDBRANCH  12  13
ENDBRANCH   7  12
BRANCH  10  27
HETATM   27  O   UNL     1     -41.739  56.714 -50.339  1.00  0.00    -0.347 OA
BRANCH  27  28
HETATM   28  C   UNL     1     -40.937  57.892 -50.433  1.00  0.00     0.214 C 
BRANCH  28  29
HETATM   29  C   UNL     1     -41.322  58.719 -51.641  1.00  0.00    -0.034 A 
HETATM   30  C   UNL     1     -40.872  58.406 -52.932  1.00  0.00     0.009 A 
HETATM   31  C   UNL     1     -41.269  59.172 -54.030  1.00  0.00     0.001 A 
HETATM   32  C   UNL     1     -42.131  60.253 -53.854  1.00  0.00     0.000 A 
HETATM   33  C   UNL     1     -42.599  60.566 -52.580  1.00  0.00     0.001 A 
HETATM   34  C   UNL     1     -42.201  59.802 -51.481  1.00  0.00     0.009 A 
ENDBRANCH  28  29
ENDBRANCH  27  28
ENDBRANCH  10  27
TORSDOF 7
ENDMDL
MODEL 4
REMARK VINA RESULT:      -8.6      2.863      6.033
REMARK  7 active torsions:
REMARK  status: ('A' for Active; 'I' for Inactive)
REMARK    1  A    between atoms: C_7  and  C_8 
REMARK    2  A    between atoms: C_8  and  C_9 
REMARK       I    between atoms: C_9  and  N_10 
REMARK    3  A    between atoms: N_10  and  N_11 
REMARK       I    between atoms: N_11  and  C_12 
REMARK    4  A    between atoms: C_12  and  C_13 
REMARK    5  A    between atoms: C_23  and  O_24 
REMARK    6  A    between atoms: O_24  and  C_25 
REMARK    7  A    between atoms: C_25  and  C_26 
ROOT
HETATM    1  C   UNL     1     -39.864  51.390 -53.758  1.00  0.00     0.068 C 
HETATM    2  C   UNL     1     -40.351  52.649 -53.135  1.00  0.00     0.013 A 
HETATM    3  N   UNL     1     -40.551  52.750 -51.782  1.00  0.00    -0.359 N 
HETATM    4  H   UNL     1     -40.391  52.009 -51.112  1.00  0.00     0.166 HD
HETATM    5  C   UNL     1     -41.000  54.006 -51.452  1.00  0.00     0.043 A 
HETATM    6  C   UNL     1     -41.092  54.734 -52.636  1.00  0.00     0.002 A 
HETATM    7  C   UNL     1     -40.692  53.868 -53.705  1.00  0.00    -0.015 A 
HETATM    8  C   UNL     1     -41.327  54.547 -50.205  1.00  0.00     0.033 A 
HETATM    9  C   UNL     1     -41.756  55.881 -50.162  1.00  0.00     0.039 A 
HETATM   10  C   UNL     1     -41.852  56.645 -51.324  1.00  0.00     0.070 A 
HETATM   11  C   UNL     1     -41.529  56.074 -52.563  1.00  0.00     0.051 A 
ENDROOT
BRANCH   7  12
HETATM   12  C   UNL     1     -40.649  54.217 -55.162  1.00  0.00     0.146 C 
BRANCH  12  13
HETATM   13  C   UNL     1     -41.997  54.572 -55.768  1.00  0.00     0.240 C 
HETATM   14  N   UNL     1     -41.984  55.510 -56.780  1.00  0.00    -0.267 N 
HETATM   15  H   UNL     1     -41.181  56.111 -56.966  1.00  0.00     0.190 HD
HETATM   16  O   UNL     1     -43.030  53.988 -55.426  1.00  0.00    -0.272 OA
BRANCH  14  17
HETATM   17  N   UNL     1     -43.201  55.904 -57.334  1.00  0.00    -0.262 N 
HETATM   18  C   UNL     1     -43.330  56.013 -58.703  1.00  0.00     0.288 C 
HETATM   19  O   UNL     1     -42.406  55.839 -59.491  1.00  0.00    -0.264 OA
HETATM   20  H   UNL     1     -43.997  56.058 -56.712  1.00  0.00     0.190 HD
BRANCH  18  21
HETATM   21  C   UNL     1     -44.713  56.360 -59.158  1.00  0.00     0.125 A 
HETATM   22  N   UNL     1     -45.249  55.563 -60.125  1.00  0.00    -0.255 NA
HETATM   23  C   UNL     1     -46.491  55.885 -60.547  1.00  0.00     0.117 A 
HETATM   24  C   UNL     1     -47.219  56.959 -60.058  1.00  0.00     0.019 A 
HETATM   25  C   UNL     1     -46.646  57.755 -59.070  1.00  0.00     0.004 A 
HETATM   26  C   UNL     1     -45.368  57.454 -58.607  1.00  0.00     0.037 A 
ENDBRANCH  18  21
ENDBRANCH  14  17
ENDBRANCH  12  13
ENDBRANCH   7  12
BRANCH  10  27
HETATM   27  O   UNL     1     -42.243  57.955 -51.395  1.00  0.00    -0.347 OA
BRANCH  27  28
HETATM   28  C   UNL     1     -43.646  58.220 -51.379  1.00  0.00     0.214 C 
BRANCH  28  29
HETATM   29  C   UNL     1     -44.155  58.545 -52.768  1.00  0.00    -0.034 A 
HETATM   30  C   UNL     1     -44.643  57.556 -53.634  1.00  0.00     0.009 A 
HETATM   31  C   UNL     1     -45.132  57.893 -54.897  1.00  0.00     0.001 A 
HETATM   32  C   UNL     1     -45.152  59.225 -55.307  1.00  0.00     0.000 A 
HETATM   33  C   UNL     1     -44.687  60.221 -54.452  1.00  0.00     0.001 A 
HETATM   34  C   UNL     1     -44.196  59.885 -53.189  1.00  0.00     0.009 A 
ENDBRANCH  28  29
ENDBRANCH  27  28
ENDBRANCH  10  27
TORSDOF 7
ENDMDL
MODEL 5
REMARK VINA RESULT:      -8.6      2.606      5.992
REMARK  7 active torsions:
REMARK  status: ('A' for Active; 'I' for Inactive)
REMARK    1  A    between atoms: C_7  and  C_8 
REMARK    2  A    between atoms: C_8  and  C_9 
REMARK       I    between atoms: C_9  and  N_10 
REMARK    3  A    between atoms: N_10  and  N_11 
REMARK       I    between atoms: N_11  and  C_12 
REMARK    4  A    between atoms: C_12  and  C_13 
REMARK    5  A    between atoms: C_23  and  O_24 
REMARK    6  A    between atoms: O_24  and  C_25 
REMARK    7  A    between atoms: C_25  and  C_26 
ROOT
HETATM    1  C   UNL     1     -39.666  50.959 -53.816  1.00  0.00     0.068 C 
HETATM    2  C   UNL     1     -40.051  52.152 -53.018  1.00  0.00     0.013 A 
HETATM    3  N   UNL     1     -40.171  52.095 -51.653  1.00  0.00    -0.359 N 
HETATM    4  H   UNL     1     -40.013  51.271 -51.088  1.00  0.00     0.166 HD
HETATM    5  C   UNL     1     -40.534  53.320 -51.147  1.00  0.00     0.043 A 
HETATM    6  C   UNL     1     -40.654  54.192 -52.228  1.00  0.00     0.002 A 
HETATM    7  C   UNL     1     -40.358  53.446 -53.415  1.00  0.00    -0.015 A 
HETATM    8  C   UNL     1     -40.763  53.718 -49.827  1.00  0.00     0.033 A 
HETATM    9  C   UNL     1     -41.119  55.054 -49.598  1.00  0.00     0.039 A 
HETATM   10  C   UNL     1     -41.239  55.959 -50.652  1.00  0.00     0.070 A 
HETATM   11  C   UNL     1     -41.015  55.530 -51.968  1.00  0.00     0.051 A 
ENDROOT
BRANCH   7  12
HETATM   12  C   UNL     1     -40.378  53.969 -54.820  1.00  0.00     0.146 C 
BRANCH  12  13
HETATM   13  C   UNL     1     -41.749  54.402 -55.316  1.00  0.00     0.240 C 
HETATM   14  N   UNL     1     -41.780  55.512 -56.134  1.00  0.00    -0.267 N 
HETATM   15  H   UNL     1     -40.993  56.155 -56.223  1.00  0.00     0.190 HD
HETATM   16  O   UNL     1     -42.761  53.741 -55.065  1.00  0.00    -0.272 OA
BRANCH  14  17
HETATM   17  N   UNL     1     -43.019  55.976 -56.575  1.00  0.00    -0.262 N 
HETATM   18  C   UNL     1     -43.098  57.150 -57.292  1.00  0.00     0.288 C 
HETATM   19  O   UNL     1     -42.133  57.871 -57.529  1.00  0.00    -0.264 OA
HETATM   20  H   UNL     1     -43.848  55.404 -56.398  1.00  0.00     0.190 HD
BRANCH  18  21
HETATM   21  C   UNL     1     -44.476  57.478 -57.774  1.00  0.00     0.125 A 
HETATM   22  N   UNL     1     -44.798  57.050 -59.026  1.00  0.00    -0.255 NA
HETATM   23  C   UNL     1     -46.036  57.360 -59.467  1.00  0.00     0.117 A 
HETATM   24  C   UNL     1     -46.964  58.075 -58.725  1.00  0.00     0.019 A 
HETATM   25  C   UNL     1     -46.608  58.499 -57.447  1.00  0.00     0.004 A 
HETATM   26  C   UNL     1     -45.340  58.198 -56.957  1.00  0.00     0.037 A 
ENDBRANCH  18  21
ENDBRANCH  14  17
ENDBRANCH  12  13
ENDBRANCH   7  12
BRANCH  10  27
HETATM   27  O   UNL     1     -41.565  57.284 -50.541  1.00  0.00    -0.347 OA
BRANCH  27  28
HETATM   28  C   UNL     1     -40.664  58.229 -51.122  1.00  0.00     0.214 C 
BRANCH  28  29
HETATM   29  C   UNL     1     -41.372  59.107 -52.132  1.00  0.00    -0.034 A 
HETATM   30  C   UNL     1     -42.199  60.172 -51.743  1.00  0.00     0.009 A 
HETATM   31  C   UNL     1     -42.814  60.981 -52.700  1.00  0.00     0.001 A 
HETATM   32  C   UNL     1     -42.602  60.747 -54.057  1.00  0.00     0.000 A 
HETATM   33  C   UNL     1     -41.770  59.704 -54.458  1.00  0.00     0.001 A 
HETATM   34  C   UNL     1     -41.156  58.892 -53.503  1.00  0.00     0.009 A 
ENDBRANCH  28  29
ENDBRANCH  27  28
ENDBRANCH  10  27
TORSDOF 7
ENDMDL
MODEL 6
REMARK VINA RESULT:      -8.2      2.541      7.503
REMARK  7 active torsions:
REMARK  status: ('A' for Active; 'I' for Inactive)
REMARK    1  A    between atoms: C_7  and  C_8 
REMARK    2  A    between atoms: C_8  and  C_9 
REMARK       I    between atoms: C_9  and  N_10 
REMARK    3  A    between atoms: N_10  and  N_11 
REMARK       I    between atoms: N_11  and  C_12 
REMARK    4  A    between atoms: C_12  and  C_13 
REMARK    5  A    between atoms: C_23  and  O_24 
REMARK    6  A    between atoms: O_24  and  C_25 
REMARK    7  A    between atoms: C_25  and  C_26 
ROOT
HETATM    1  C   UNL     1     -40.601  58.882 -50.388  1.00  0.00     0.068 C 
HETATM    2  C   UNL     1     -41.353  58.762 -51.665  1.00  0.00     0.013 A 
HETATM    3  N   UNL     1     -41.012  59.498 -52.772  1.00  0.00    -0.359 N 
HETATM    4  H   UNL     1     -40.248  60.159 -52.819  1.00  0.00     0.166 HD
HETATM    5  C   UNL     1     -41.852  59.211 -53.821  1.00  0.00     0.043 A 
HETATM    6  C   UNL     1     -42.764  58.260 -53.369  1.00  0.00     0.002 A 
HETATM    7  C   UNL     1     -42.454  57.986 -51.997  1.00  0.00    -0.015 A 
HETATM    8  C   UNL     1     -41.871  59.717 -55.123  1.00  0.00     0.033 A 
HETATM    9  C   UNL     1     -42.850  59.231 -56.001  1.00  0.00     0.039 A 
HETATM   10  C   UNL     1     -43.775  58.273 -55.588  1.00  0.00     0.070 A 
HETATM   11  C   UNL     1     -43.740  57.791 -54.273  1.00  0.00     0.051 A 
ENDROOT
BRANCH   7  12
HETATM   12  C   UNL     1     -43.184  57.036 -51.095  1.00  0.00     0.146 C 
BRANCH  12  13
HETATM   13  C   UNL     1     -42.855  55.569 -51.319  1.00  0.00     0.240 C 
HETATM   14  N   UNL     1     -41.516  55.252 -51.419  1.00  0.00    -0.267 N 
HETATM   15  H   UNL     1     -40.792  55.953 -51.573  1.00  0.00     0.190 HD
HETATM   16  O   UNL     1     -43.738  54.706 -51.326  1.00  0.00    -0.272 OA
BRANCH  14  17
HETATM   17  N   UNL     1     -41.166  53.926 -51.673  1.00  0.00    -0.262 N 
HETATM   18  C   UNL     1     -40.633  53.578 -52.896  1.00  0.00     0.288 C 
HETATM   19  O   UNL     1     -40.492  54.364 -53.827  1.00  0.00    -0.264 OA
HETATM   20  H   UNL     1     -41.267  53.239 -50.923  1.00  0.00     0.190 HD
BRANCH  18  21
HETATM   21  C   UNL     1     -40.225  52.142 -52.996  1.00  0.00     0.125 A 
HETATM   22  N   UNL     1     -39.820  51.545 -51.840  1.00  0.00    -0.255 NA
HETATM   23  C   UNL     1     -39.436  50.254 -51.933  1.00  0.00     0.117 A 
HETATM   24  C   UNL     1     -39.434  49.532 -53.117  1.00  0.00     0.019 A 
HETATM   25  C   UNL     1     -39.854  50.167 -54.283  1.00  0.00     0.004 A 
HETATM   26  C   UNL     1     -40.259  51.498 -54.227  1.00  0.00     0.037 A 
ENDBRANCH  18  21
ENDBRANCH  14  17
ENDBRANCH  12  13
ENDBRANCH   7  12
BRANCH  10  27
HETATM   27  O   UNL     1     -44.760  57.720 -56.363  1.00  0.00    -0.347 OA
BRANCH  27  28
HETATM   28  C   UNL     1     -44.922  58.240 -57.683  1.00  0.00     0.214 C 
BRANCH  28  29
HETATM   29  C   UNL     1     -44.953  57.127 -58.708  1.00  0.00    -0.034 A 
HETATM   30  C   UNL     1     -46.036  56.949 -59.583  1.00  0.00     0.009 A 
HETATM   31  C   UNL     1     -46.021  55.930 -60.537  1.00  0.00     0.001 A 
HETATM   32  C   UNL     1     -44.920  55.082 -60.638  1.00  0.00     0.000 A 
HETATM   33  C   UNL     1     -43.830  55.255 -59.787  1.00  0.00     0.001 A 
HETATM   34  C   UNL     1     -43.844  56.274 -58.832  1.00  0.00     0.009 A 
ENDBRANCH  28  29
ENDBRANCH  27  28
ENDBRANCH  10  27
TORSDOF 7
ENDMDL
MODEL 7
REMARK VINA RESULT:      -8.1      2.271      3.110
REMARK  7 active torsions:
REMARK  status: ('A' for Active; 'I' for Inactive)
REMARK    1  A    between atoms: C_7  and  C_8 
REMARK    2  A    between atoms: C_8  and  C_9 
REMARK       I    between atoms: C_9  and  N_10 
REMARK    3  A    between atoms: N_10  and  N_11 
REMARK       I    between atoms: N_11  and  C_12 
REMARK    4  A    between atoms: C_12  and  C_13 
REMARK    5  A    between atoms: C_23  and  O_24 
REMARK    6  A    between atoms: O_24  and  C_25 
REMARK    7  A    between atoms: C_25  and  C_26 
ROOT
HETATM    1  C   UNL     1     -45.401  59.726 -52.289  1.00  0.00     0.068 C 
HETATM    2  C   UNL     1     -44.573  58.523 -52.563  1.00  0.00     0.013 A 
HETATM    3  N   UNL     1     -43.631  58.080 -51.669  1.00  0.00    -0.359 N 
HETATM    4  H   UNL     1     -43.424  58.512 -50.778  1.00  0.00     0.166 HD
HETATM    5  C   UNL     1     -43.002  56.955 -52.146  1.00  0.00     0.043 A 
HETATM    6  C   UNL     1     -43.559  56.670 -53.391  1.00  0.00     0.002 A 
HETATM    7  C   UNL     1     -44.547  57.672 -53.659  1.00  0.00    -0.015 A 
HETATM    8  C   UNL     1     -41.991  56.178 -51.574  1.00  0.00     0.033 A 
HETATM    9  C   UNL     1     -41.537  55.063 -52.292  1.00  0.00     0.039 A 
HETATM   10  C   UNL     1     -42.076  54.739 -53.536  1.00  0.00     0.070 A 
HETATM   11  C   UNL     1     -43.080  55.543 -54.092  1.00  0.00     0.051 A 
ENDROOT
BRANCH   7  12
HETATM   12  C   UNL     1     -45.392  57.777 -54.893  1.00  0.00     0.146 C 
BRANCH  12  13
HETATM   13  C   UNL     1     -44.888  58.774 -55.924  1.00  0.00     0.240 C 
HETATM   14  N   UNL     1     -43.870  58.340 -56.747  1.00  0.00    -0.267 N 
HETATM   15  H   UNL     1     -43.316  57.506 -56.547  1.00  0.00     0.190 HD
HETATM   16  O   UNL     1     -45.422  59.878 -56.065  1.00  0.00    -0.272 OA
BRANCH  14  17
HETATM   17  N   UNL     1     -43.341  59.234 -57.676  1.00  0.00    -0.262 N 
HETATM   18  C   UNL     1     -42.178  59.916 -57.389  1.00  0.00     0.288 C 
HETATM   19  O   UNL     1     -41.585  59.834 -56.317  1.00  0.00    -0.264 OA
HETATM   20  H   UNL     1     -43.804  59.332 -58.582  1.00  0.00     0.190 HD
BRANCH  18  21
HETATM   21  C   UNL     1     -41.682  60.774 -58.510  1.00  0.00     0.125 A 
HETATM   22  N   UNL     1     -41.989  60.360 -59.771  1.00  0.00    -0.255 NA
HETATM   23  C   UNL     1     -41.528  61.125 -60.784  1.00  0.00     0.117 A 
HETATM   24  C   UNL     1     -40.777  62.276 -60.601  1.00  0.00     0.019 A 
HETATM   25  C   UNL     1     -40.478  62.676 -59.302  1.00  0.00     0.004 A 
HETATM   26  C   UNL     1     -40.938  61.914 -58.231  1.00  0.00     0.037 A 
ENDBRANCH  18  21
ENDBRANCH  14  17
ENDBRANCH  12  13
ENDBRANCH   7  12
BRANCH  10  27
HETATM   27  O   UNL     1     -41.719  53.670 -54.314  1.00  0.00    -0.347 OA
BRANCH  27  28
HETATM   28  C   UNL     1     -40.329  53.351 -54.387  1.00  0.00     0.214 C 
BRANCH  28  29
HETATM   29  C   UNL     1     -40.028  52.052 -53.670  1.00  0.00    -0.034 A 
HETATM   30  C   UNL     1     -39.773  52.004 -52.292  1.00  0.00     0.009 A 
HETATM   31  C   UNL     1     -39.528  50.786 -51.655  1.00  0.00     0.001 A 
HETATM   32  C   UNL     1     -39.547  49.598 -52.384  1.00  0.00     0.000 A 
HETATM   33  C   UNL     1     -39.815  49.628 -53.751  1.00  0.00     0.001 A 
HETATM   34  C   UNL     1     -40.059  50.846 -54.389  1.00  0.00     0.009 A 
ENDBRANCH  28  29
ENDBRANCH  27  28
ENDBRANCH  10  27
TORSDOF 7
ENDMDL
MODEL 8
REMARK VINA RESULT:      -7.9      1.775      2.372
REMARK  7 active torsions:
REMARK  status: ('A' for Active; 'I' for Inactive)
REMARK    1  A    between atoms: C_7  and  C_8 
REMARK    2  A    between atoms: C_8  and  C_9 
REMARK       I    between atoms: C_9  and  N_10 
REMARK    3  A    between atoms: N_10  and  N_11 
REMARK       I    between atoms: N_11  and  C_12 
REMARK    4  A    between atoms: C_12  and  C_13 
REMARK    5  A    between atoms: C_23  and  O_24 
REMARK    6  A    between atoms: O_24  and  C_25 
REMARK    7  A    between atoms: C_25  and  C_26 
ROOT
HETATM    1  C   UNL     1     -44.845  58.343 -52.395  1.00  0.00     0.068 C 
HETATM    2  C   UNL     1     -43.779  57.393 -51.982  1.00  0.00     0.013 A 
HETATM    3  N   UNL     1     -43.463  57.198 -50.661  1.00  0.00    -0.359 N 
HETATM    4  H   UNL     1     -43.909  57.662 -49.880  1.00  0.00     0.166 HD
HETATM    5  C   UNL     1     -42.453  56.275 -50.536  1.00  0.00     0.043 A 
HETATM    6  C   UNL     1     -42.108  55.867 -51.822  1.00  0.00     0.002 A 
HETATM    7  C   UNL     1     -42.942  56.586 -52.739  1.00  0.00    -0.015 A 
HETATM    8  C   UNL     1     -41.824  55.777 -49.391  1.00  0.00     0.033 A 
HETATM    9  C   UNL     1     -40.814  54.821 -49.562  1.00  0.00     0.039 A 
HETATM   10  C   UNL     1     -40.447  54.380 -50.833  1.00  0.00     0.070 A 
HETATM   11  C   UNL     1     -41.085  54.906 -51.965  1.00  0.00     0.051 A 
ENDROOT
BRANCH   7  12
HETATM   12  C   UNL     1     -42.913  56.482 -54.234  1.00  0.00     0.146 C 
BRANCH  12  13
HETATM   13  C   UNL     1     -42.325  57.691 -54.943  1.00  0.00     0.240 C 
HETATM   14  N   UNL     1     -43.012  58.144 -56.050  1.00  0.00    -0.267 N 
HETATM   15  H   UNL     1     -43.727  57.590 -56.522  1.00  0.00     0.190 HD
HETATM   16  O   UNL     1     -41.336  58.280 -54.497  1.00  0.00    -0.272 OA
BRANCH  14  17
HETATM   17  N   UNL     1     -42.486  59.221 -56.762  1.00  0.00    -0.262 N 
HETATM   18  C   UNL     1     -41.999  59.030 -58.037  1.00  0.00     0.288 C 
HETATM   19  O   UNL     1     -41.940  57.935 -58.589  1.00  0.00    -0.264 OA
HETATM   20  H   UNL     1     -42.516  60.151 -56.339  1.00  0.00     0.190 HD
BRANCH  18  21
HETATM   21  C   UNL     1     -41.547  60.287 -58.712  1.00  0.00     0.125 A 
HETATM   22  N   UNL     1     -40.871  61.181 -57.937  1.00  0.00    -0.255 NA
HETATM   23  C   UNL     1     -40.477  62.322 -58.541  1.00  0.00     0.117 A 
HETATM   24  C   UNL     1     -40.725  62.616 -59.874  1.00  0.00     0.019 A 
HETATM   25  C   UNL     1     -41.416  61.683 -60.642  1.00  0.00     0.004 A 
HETATM   26  C   UNL     1     -41.838  60.494 -60.055  1.00  0.00     0.037 A 
ENDBRANCH  18  21
ENDBRANCH  14  17
ENDBRANCH  12  13
ENDBRANCH   7  12
BRANCH  10  27
HETATM   27  O   UNL     1     -39.488  53.443 -51.113  1.00  0.00    -0.347 OA
BRANCH  27  28
HETATM   28  C   UNL     1     -39.822  52.075 -50.873  1.00  0.00     0.214 C 
BRANCH  28  29
HETATM   29  C   UNL     1     -39.743  51.263 -52.148  1.00  0.00    -0.034 A 
HETATM   30  C   UNL     1     -39.489  49.884 -52.139  1.00  0.00     0.009 A 
HETATM   31  C   UNL     1     -39.452  49.158 -53.331  1.00  0.00     0.001 A 
HETATM   32  C   UNL     1     -39.681  49.798 -54.548  1.00  0.00     0.000 A 
HETATM   33  C   UNL     1     -39.951  51.165 -54.572  1.00  0.00     0.001 A 
HETATM   34  C   UNL     1     -39.987  51.892 -53.381  1.00  0.00     0.009 A 
ENDBRANCH  28  29
ENDBRANCH  27  28
ENDBRANCH  10  27
TORSDOF 7
ENDMDL
MODEL 9
REMARK VINA RESULT:      -7.9      2.606      4.336
REMARK  7 active torsions:
REMARK  status: ('A' for Active; 'I' for Inactive)
REMARK    1  A    between atoms: C_7  and  C_8 
REMARK    2  A    between atoms: C_8  and  C_9 
REMARK       I    between atoms: C_9  and  N_10 
REMARK    3  A    between atoms: N_10  and  N_11 
REMARK       I    between atoms: N_11  and  C_12 
REMARK    4  A    between atoms: C_12  and  C_13 
REMARK    5  A    between atoms: C_23  and  O_24 
REMARK    6  A    between atoms: O_24  and  C_25 
REMARK    7  A    between atoms: C_25  and  C_26 
ROOT
HETATM    1  C   UNL     1     -45.705  58.435 -56.585  1.00  0.00     0.068 C 
HETATM    2  C   UNL     1     -44.624  57.707 -55.871  1.00  0.00     0.013 A 
HETATM    3  N   UNL     1     -44.425  57.859 -54.522  1.00  0.00    -0.359 N 
HETATM    4  H   UNL     1     -44.973  58.453 -53.915  1.00  0.00     0.166 HD
HETATM    5  C   UNL     1     -43.372  57.084 -54.098  1.00  0.00     0.043 A 
HETATM    6  C   UNL     1     -42.878  56.415 -55.216  1.00  0.00     0.002 A 
HETATM    7  C   UNL     1     -43.666  56.821 -56.342  1.00  0.00    -0.015 A 
HETATM    8  C   UNL     1     -42.825  56.928 -52.821  1.00  0.00     0.033 A 
HETATM    9  C   UNL     1     -41.742  56.051 -52.675  1.00  0.00     0.039 A 
HETATM   10  C   UNL     1     -41.226  55.356 -53.768  1.00  0.00     0.070 A 
HETATM   11  C   UNL     1     -41.785  55.541 -55.040  1.00  0.00     0.051 A 
ENDROOT
BRANCH   7  12
HETATM   12  C   UNL     1     -43.486  56.368 -57.760  1.00  0.00     0.146 C 
BRANCH  12  13
HETATM   13  C   UNL     1     -42.763  57.362 -58.655  1.00  0.00     0.240 C 
HETATM   14  N   UNL     1     -42.332  58.526 -58.053  1.00  0.00    -0.267 N 
HETATM   15  H   UNL     1     -42.665  58.831 -57.138  1.00  0.00     0.190 HD
HETATM   16  O   UNL     1     -42.506  57.097 -59.833  1.00  0.00    -0.272 OA
BRANCH  14  17
HETATM   17  N   UNL     1     -41.706  59.489 -58.844  1.00  0.00    -0.262 N 
HETATM   18  C   UNL     1     -41.811  60.823 -58.513  1.00  0.00     0.288 C 
HETATM   19  O   UNL     1     -42.483  61.243 -57.576  1.00  0.00    -0.264 OA
HETATM   20  H   UNL     1     -41.135  59.180 -59.633  1.00  0.00     0.190 HD
BRANCH  18  21
HETATM   21  C   UNL     1     -41.019  61.734 -59.398  1.00  0.00     0.125 A 
HETATM   22  N   UNL     1     -41.355  61.739 -60.718  1.00  0.00    -0.255 NA
HETATM   23  C   UNL     1     -40.630  62.549 -61.519  1.00  0.00     0.117 A 
HETATM   24  C   UNL     1     -39.589  63.348 -61.071  1.00  0.00     0.019 A 
HETATM   25  C   UNL     1     -39.268  63.323 -59.716  1.00  0.00     0.004 A 
HETATM   26  C   UNL     1     -39.994  62.502 -58.858  1.00  0.00     0.037 A 
ENDBRANCH  18  21
ENDBRANCH  14  17
ENDBRANCH  12  13
ENDBRANCH   7  12
BRANCH  10  27
HETATM   27  O   UNL     1     -40.184  54.467 -53.737  1.00  0.00    -0.347 OA
BRANCH  27  28
HETATM   28  C   UNL     1     -40.288  53.309 -54.567  1.00  0.00     0.214 C 
BRANCH  28  29
HETATM   29  C   UNL     1     -40.055  52.044 -53.770  1.00  0.00    -0.034 A 
HETATM   30  C   UNL     1     -40.019  50.778 -54.374  1.00  0.00     0.009 A 
HETATM   31  C   UNL     1     -39.773  49.633 -53.614  1.00  0.00     0.001 A 
HETATM   32  C   UNL     1     -39.549  49.738 -52.243  1.00  0.00     0.000 A 
HETATM   33  C   UNL     1     -39.565  50.989 -51.631  1.00  0.00     0.001 A 
HETATM   34  C   UNL     1     -39.812  52.135 -52.389  1.00  0.00     0.009 A 
ENDBRANCH  28  29
ENDBRANCH  27  28
ENDBRANCH  10  27
TORSDOF 7
ENDMDL
MODEL 10
REMARK VINA RESULT:      -7.9      2.028      2.917
REMARK  7 active torsions:
REMARK  status: ('A' for Active; 'I' for Inactive)
REMARK    1  A    between atoms: C_7  and  C_8 
REMARK    2  A    between atoms: C_8  and  C_9 
REMARK       I    between atoms: C_9  and  N_10 
REMARK    3  A    between atoms: N_10  and  N_11 
REMARK       I    between atoms: N_11  and  C_12 
REMARK    4  A    between atoms: C_12  and  C_13 
REMARK    5  A    between atoms: C_23  and  O_24 
REMARK    6  A    between atoms: O_24  and  C_25 
REMARK    7  A    between atoms: C_25  and  C_26 
ROOT
HETATM    1  C   UNL     1     -44.621  62.418 -50.487  1.00  0.00     0.068 C 
HETATM    2  C   UNL     1     -43.825  61.202 -50.799  1.00  0.00     0.013 A 
HETATM    3  N   UNL     1     -42.615  60.962 -50.199  1.00  0.00    -0.359 N 
HETATM    4  H   UNL     1     -42.173  61.564 -49.517  1.00  0.00     0.166 HD
HETATM    5  C   UNL     1     -42.078  59.780 -50.649  1.00  0.00     0.043 A 
HETATM    6  C   UNL     1     -42.975  59.246 -51.572  1.00  0.00     0.002 A 
HETATM    7  C   UNL     1     -44.078  60.156 -51.674  1.00  0.00    -0.015 A 
HETATM    8  C   UNL     1     -40.877  59.150 -50.311  1.00  0.00     0.033 A 
HETATM    9  C   UNL     1     -40.582  57.927 -50.929  1.00  0.00     0.039 A 
HETATM   10  C   UNL     1     -41.460  57.356 -51.850  1.00  0.00     0.070 A 
HETATM   11  C   UNL     1     -42.652  58.015 -52.180  1.00  0.00     0.051 A 
ENDROOT
BRANCH   7  12
HETATM   12  C   UNL     1     -45.276  60.001 -52.562  1.00  0.00     0.146 C 
BRANCH  12  13
HETATM   13  C   UNL     1     -44.953  59.791 -54.033  1.00  0.00     0.240 C 
HETATM   14  N   UNL     1     -45.373  58.600 -54.586  1.00  0.00    -0.267 N 
HETATM   15  H   UNL     1     -45.666  57.801 -54.023  1.00  0.00     0.190 HD
HETATM   16  O   UNL     1     -44.420  60.678 -54.706  1.00  0.00    -0.272 OA
BRANCH  14  17
HETATM   17  N   UNL     1     -45.057  58.341 -55.920  1.00  0.00    -0.262 N 
HETATM   18  C   UNL     1     -44.113  57.386 -56.230  1.00  0.00     0.288 C 
HETATM   19  O   UNL     1     -43.468  56.766 -55.390  1.00  0.00    -0.264 OA
HETATM   20  H   UNL     1     -45.573  58.835 -56.651  1.00  0.00     0.190 HD
BRANCH  18  21
HETATM   21  C   UNL     1     -43.941  57.154 -57.698  1.00  0.00     0.125 A 
HETATM   22  N   UNL     1     -44.705  57.919 -58.526  1.00  0.00    -0.255 NA
HETATM   23  C   UNL     1     -44.561  57.699 -59.851  1.00  0.00     0.117 A 
HETATM   24  C   UNL     1     -43.699  56.755 -60.387  1.00  0.00     0.019 A 
HETATM   25  C   UNL     1     -42.929  55.987 -59.517  1.00  0.00     0.004 A 
HETATM   26  C   UNL     1     -43.048  56.187 -58.145  1.00  0.00     0.037 A 
ENDBRANCH  18  21
ENDBRANCH  14  17
ENDBRANCH  12  13
ENDBRANCH   7  12
BRANCH  10  27
HETATM   27  O   UNL     1     -41.280  56.163 -52.500  1.00  0.00    -0.347 OA
BRANCH  27  28
HETATM   28  C   UNL     1     -41.737  54.983 -51.837  1.00  0.00     0.214 C 
BRANCH  28  29
HETATM   29  C   UNL     1     -41.019  53.755 -52.354  1.00  0.00    -0.034 A 
HETATM   30  C   UNL     1     -41.119  53.339 -53.689  1.00  0.00     0.009 A 
HETATM   31  C   UNL     1     -40.420  52.218 -54.141  1.00  0.00     0.001 A 
HETATM   32  C   UNL     1     -39.602  51.504 -53.267  1.00  0.00     0.000 A 
HETATM   33  C   UNL     1     -39.479  51.915 -51.942  1.00  0.00     0.001 A 
HETATM   34  C   UNL     1     -40.178  53.035 -51.489  1.00  0.00     0.009 A 
ENDBRANCH  28  29
ENDBRANCH  27  28
ENDBRANCH  10  27
TORSDOF 7
ENDMDL
