MODEL 1
REMARK VINA RESULT:      -7.6      0.000      0.000
REMARK  4 active torsions:
REMARK  status: ('A' for Active; 'I' for Inactive)
REMARK    1  A    between atoms: N_8  and  C_10 
REMARK    2  A    between atoms: C_10  and  C_11 
REMARK    3  A    between atoms: C_14  and  C_15 
REMARK    4  A    between atoms: C_22  and  C_23 
ROOT
HETATM    1  C   UNL     1     -39.689  59.294 -50.508  1.00  0.00     0.269 C 
HETATM    2  N   UNL     1     -40.607  58.356 -51.264  1.00  0.00    -0.073 N 
HETATM    3  H   UNL     1     -39.987  57.652 -51.685  1.00  0.00     0.279 HD
HETATM    4  C   UNL     1     -41.345  59.074 -52.361  1.00  0.00     0.244 C 
HETATM    5  C   UNL     1     -42.198  58.095 -53.211  1.00  0.00    -0.013 C 
HETATM    6  C   UNL     1     -43.096  58.946 -54.158  1.00  0.00     0.039 C 
HETATM    7  C   UNL     1     -43.862  58.129 -55.199  1.00  0.00     0.236 C 
HETATM    8  N   UNL     1     -42.921  57.269 -55.997  1.00  0.00    -0.064 N 
HETATM    9  H   UNL     1     -43.538  56.648 -56.551  1.00  0.00     0.280 HD
HETATM   10  C   UNL     1     -42.056  56.384 -55.150  1.00  0.00     0.236 C 
HETATM   11  C   UNL     1     -41.291  57.216 -54.118  1.00  0.00     0.039 C 
HETATM   12  C   UNL     1     -43.102  57.265 -52.252  1.00  0.00     0.022 C 
HETATM   13  C   UNL     1     -42.386  56.589 -51.052  1.00  0.00     0.045 C 
HETATM   14  C   UNL     1     -41.543  57.640 -50.305  1.00  0.00     0.243 C 
ENDROOT
BRANCH  13  15
HETATM   15  C   UNL     1     -41.686  55.286 -51.427  1.00  0.00    -0.052 A 
HETATM   16  C   UNL     1     -40.566  54.773 -50.753  1.00  0.00     0.007 A 
HETATM   17  C   UNL     1     -39.972  53.571 -51.151  1.00  0.00     0.001 A 
HETATM   18  C   UNL     1     -40.500  52.843 -52.211  1.00  0.00     0.000 A 
HETATM   19  C   UNL     1     -41.638  53.304 -52.862  1.00  0.00     0.001 A 
HETATM   20  C   UNL     1     -42.230  54.504 -52.467  1.00  0.00     0.007 A 
ENDBRANCH  13  15
BRANCH   8  21
HETATM   21  C   UNL     1     -42.166  58.009 -57.112  1.00  0.00     0.317 C 
BRANCH  21  22
HETATM   22  C   UNL     1     -42.490  57.502 -58.475  1.00  0.00     0.181 A 
HETATM   23  N   UNL     1     -41.928  57.987 -59.582  1.00  0.00    -0.109 NA
HETATM   24  O   UNL     1     -42.564  57.264 -60.596  1.00  0.00    -0.196 OA
HETATM   25  C   UNL     1     -43.471  56.437 -59.986  1.00  0.00     0.177 A 
HETATM   26  N   UNL     1     -43.481  56.574 -58.671  1.00  0.00    -0.207 NA
BRANCH  25  27
HETATM   27  C   UNL     1     -44.371  55.492 -60.765  1.00  0.00     0.065 A 
HETATM   28  C   UNL     1     -45.115  54.408 -60.011  1.00  0.00     0.013 A 
HETATM   29  C   UNL     1     -45.870  55.571 -60.554  1.00  0.00     0.013 A 
ENDBRANCH  25  27
ENDBRANCH  21  22
ENDBRANCH   8  21
TORSDOF 4
ENDMDL
MODEL 2
REMARK VINA RESULT:      -7.4      1.998      3.001
REMARK  4 active torsions:
REMARK  status: ('A' for Active; 'I' for Inactive)
REMARK    1  A    between atoms: N_8  and  C_10 
REMARK    2  A    between atoms: C_10  and  C_11 
REMARK    3  A    between atoms: C_14  and  C_15 
REMARK    4  A    between atoms: C_22  and  C_23 
ROOT
HETATM    1  C   UNL     1     -40.982  56.905 -49.886  1.00  0.00     0.269 C 
HETATM    2  N   UNL     1     -41.472  56.160 -51.111  1.00  0.00    -0.073 N 
HETATM    3  H   UNL     1     -40.621  55.839 -51.590  1.00  0.00     0.279 HD
HETATM    4  C   UNL     1     -42.239  57.066 -52.035  1.00  0.00     0.244 C 
HETATM    5  C   UNL     1     -42.643  56.336 -53.345  1.00  0.00    -0.013 C 
HETATM    6  C   UNL     1     -43.620  57.266 -54.124  1.00  0.00     0.039 C 
HETATM    7  C   UNL     1     -43.965  56.775 -55.531  1.00  0.00     0.236 C 
HETATM    8  N   UNL     1     -42.714  56.534 -56.331  1.00  0.00    -0.064 N 
HETATM    9  H   UNL     1     -43.040  56.061 -57.192  1.00  0.00     0.280 HD
HETATM   10  C   UNL     1     -41.745  55.607 -55.662  1.00  0.00     0.236 C 
HETATM   11  C   UNL     1     -41.404  56.115 -54.257  1.00  0.00     0.039 C 
HETATM   12  C   UNL     1     -43.378  55.015 -52.969  1.00  0.00     0.022 C 
HETATM   13  C   UNL     1     -42.657  54.101 -51.941  1.00  0.00     0.045 C 
HETATM   14  C   UNL     1     -42.271  54.934 -50.703  1.00  0.00     0.243 C 
ENDROOT
BRANCH  13  15
HETATM   15  C   UNL     1     -41.559  53.245 -52.565  1.00  0.00    -0.052 A 
HETATM   16  C   UNL     1     -41.555  52.828 -53.906  1.00  0.00     0.007 A 
HETATM   17  C   UNL     1     -40.515  52.042 -54.414  1.00  0.00     0.001 A 
HETATM   18  C   UNL     1     -39.446  51.681 -53.602  1.00  0.00     0.000 A 
HETATM   19  C   UNL     1     -39.402  52.123 -52.285  1.00  0.00     0.001 A 
HETATM   20  C   UNL     1     -40.440  52.905 -51.778  1.00  0.00     0.007 A 
ENDBRANCH  13  15
BRANCH   8  21
HETATM   21  C   UNL     1     -42.073  57.804 -56.915  1.00  0.00     0.317 C 
BRANCH  21  22
HETATM   22  C   UNL     1     -42.440  58.043 -58.339  1.00  0.00     0.181 A 
HETATM   23  N   UNL     1     -42.508  57.066 -59.243  1.00  0.00    -0.109 NA
HETATM   24  O   UNL     1     -42.824  57.752 -60.420  1.00  0.00    -0.196 OA
HETATM   25  C   UNL     1     -42.879  59.084 -60.101  1.00  0.00     0.177 A 
HETATM   26  N   UNL     1     -42.617  59.313 -58.825  1.00  0.00    -0.207 NA
BRANCH  25  27
HETATM   27  C   UNL     1     -43.189  60.160 -61.128  1.00  0.00     0.065 A 
HETATM   28  C   UNL     1     -42.683  61.568 -60.883  1.00  0.00     0.013 A 
HETATM   29  C   UNL     1     -42.051  60.737 -61.946  1.00  0.00     0.013 A 
ENDBRANCH  25  27
ENDBRANCH  21  22
ENDBRANCH   8  21
TORSDOF 4
ENDMDL
MODEL 3
REMARK VINA RESULT:      -7.3      4.174      8.113
REMARK  4 active torsions:
REMARK  status: ('A' for Active; 'I' for Inactive)
REMARK    1  A    between atoms: N_8  and  C_10 
REMARK    2  A    between atoms: C_10  and  C_11 
REMARK    3  A    between atoms: C_14  and  C_15 
REMARK    4  A    between atoms: C_22  and  C_23 
ROOT
HETATM    1  C   UNL     1     -45.679  57.252 -58.750  1.00  0.00     0.269 C 
HETATM    2  N   UNL     1     -44.742  57.486 -57.584  1.00  0.00    -0.073 N 
HETATM    3  H   UNL     1     -44.964  56.746 -56.906  1.00  0.00     0.279 HD
HETATM    4  C   UNL     1     -44.987  58.825 -56.943  1.00  0.00     0.244 C 
HETATM    5  C   UNL     1     -44.110  59.021 -55.677  1.00  0.00    -0.013 C 
HETATM    6  C   UNL     1     -44.257  60.504 -55.223  1.00  0.00     0.039 C 
HETATM    7  C   UNL     1     -43.603  60.816 -53.876  1.00  0.00     0.236 C 
HETATM    8  N   UNL     1     -44.113  59.884 -52.810  1.00  0.00    -0.064 N 
HETATM    9  H   UNL     1     -43.506  60.065 -51.991  1.00  0.00     0.280 HD
HETATM   10  C   UNL     1     -43.959  58.435 -53.159  1.00  0.00     0.236 C 
HETATM   11  C   UNL     1     -44.624  58.137 -54.506  1.00  0.00     0.039 C 
HETATM   12  C   UNL     1     -42.625  58.743 -56.056  1.00  0.00     0.022 C 
HETATM   13  C   UNL     1     -42.350  57.412 -56.807  1.00  0.00     0.045 C 
HETATM   14  C   UNL     1     -43.297  57.306 -58.017  1.00  0.00     0.243 C 
ENDROOT
BRANCH  13  15
HETATM   15  C   UNL     1     -42.279  56.203 -55.879  1.00  0.00    -0.052 A 
HETATM   16  C   UNL     1     -42.980  55.005 -56.096  1.00  0.00     0.007 A 
HETATM   17  C   UNL     1     -42.871  53.934 -55.203  1.00  0.00     0.001 A 
HETATM   18  C   UNL     1     -42.040  54.027 -54.092  1.00  0.00     0.000 A 
HETATM   19  C   UNL     1     -41.298  55.183 -53.882  1.00  0.00     0.001 A 
HETATM   20  C   UNL     1     -41.408  56.253 -54.772  1.00  0.00     0.007 A 
ENDBRANCH  13  15
BRANCH   8  21
HETATM   21  C   UNL     1     -45.494  60.255 -52.243  1.00  0.00     0.317 C 
BRANCH  21  22
HETATM   22  C   UNL     1     -45.592  60.059 -50.770  1.00  0.00     0.181 A 
HETATM   23  N   UNL     1     -46.138  58.976 -50.217  1.00  0.00    -0.109 NA
HETATM   24  O   UNL     1     -46.062  59.253 -48.849  1.00  0.00    -0.196 OA
HETATM   25  C   UNL     1     -45.503  60.499 -48.725  1.00  0.00     0.177 A 
HETATM   26  N   UNL     1     -45.224  61.049 -49.894  1.00  0.00    -0.207 NA
BRANCH  25  27
HETATM   27  C   UNL     1     -45.263  61.159 -47.377  1.00  0.00     0.065 A 
HETATM   28  C   UNL     1     -44.992  62.649 -47.335  1.00  0.00     0.013 A 
HETATM   29  C   UNL     1     -46.299  62.129 -46.845  1.00  0.00     0.013 A 
ENDBRANCH  25  27
ENDBRANCH  21  22
ENDBRANCH   8  21
TORSDOF 4
ENDMDL
MODEL 4
REMARK VINA RESULT:      -7.3      4.102      7.723
REMARK  4 active torsions:
REMARK  status: ('A' for Active; 'I' for Inactive)
REMARK    1  A    between atoms: N_8  and  C_10 
REMARK    2  A    between atoms: C_10  and  C_11 
REMARK    3  A    between atoms: C_14  and  C_15 
REMARK    4  A    between atoms: C_22  and  C_23 
ROOT
HETATM    1  C   UNL     1     -43.592  53.983 -55.832  1.00  0.00     0.269 C 
HETATM    2  N   UNL     1     -42.886  54.845 -54.806  1.00  0.00    -0.073 N 
HETATM    3  H   UNL     1     -43.237  54.523 -53.895  1.00  0.00     0.279 HD
HETATM    4  C   UNL     1     -43.235  56.299 -54.976  1.00  0.00     0.244 C 
HETATM    5  C   UNL     1     -42.607  57.171 -53.856  1.00  0.00    -0.013 C 
HETATM    6  C   UNL     1     -42.822  58.666 -54.242  1.00  0.00     0.039 C 
HETATM    7  C   UNL     1     -42.428  59.659 -53.148  1.00  0.00     0.236 C 
HETATM    8  N   UNL     1     -43.135  59.338 -51.860  1.00  0.00    -0.064 N 
HETATM    9  H   UNL     1     -42.689  59.953 -51.156  1.00  0.00     0.280 HD
HETATM   10  C   UNL     1     -42.932  57.926 -51.401  1.00  0.00     0.236 C 
HETATM   11  C   UNL     1     -43.337  56.944 -52.504  1.00  0.00     0.039 C 
HETATM   12  C   UNL     1     -41.080  56.871 -53.793  1.00  0.00     0.022 C 
HETATM   13  C   UNL     1     -40.681  55.372 -53.715  1.00  0.00     0.045 C 
HETATM   14  C   UNL     1     -41.388  54.599 -54.844  1.00  0.00     0.243 C 
ENDROOT
BRANCH  13  15
HETATM   15  C   UNL     1     -40.795  54.793 -52.308  1.00  0.00    -0.052 A 
HETATM   16  C   UNL     1     -41.006  53.432 -52.033  1.00  0.00     0.007 A 
HETATM   17  C   UNL     1     -41.102  52.968 -50.717  1.00  0.00     0.001 A 
HETATM   18  C   UNL     1     -40.963  53.848 -49.649  1.00  0.00     0.000 A 
HETATM   19  C   UNL     1     -40.704  55.191 -49.894  1.00  0.00     0.001 A 
HETATM   20  C   UNL     1     -40.610  55.655 -51.207  1.00  0.00     0.007 A 
ENDBRANCH  13  15
BRANCH   8  21
HETATM   21  C   UNL     1     -44.594  59.821 -51.793  1.00  0.00     0.317 C 
BRANCH  21  22
HETATM   22  C   UNL     1     -45.112  59.925 -50.400  1.00  0.00     0.181 A 
HETATM   23  N   UNL     1     -45.978  59.054 -49.883  1.00  0.00    -0.109 NA
HETATM   24  O   UNL     1     -46.215  59.572 -48.606  1.00  0.00    -0.196 OA
HETATM   25  C   UNL     1     -45.484  60.728 -48.504  1.00  0.00     0.177 A 
HETATM   26  N   UNL     1     -44.808  61.001 -49.607  1.00  0.00    -0.207 NA
BRANCH  25  27
HETATM   27  C   UNL     1     -45.488  61.592 -47.253  1.00  0.00     0.065 A 
HETATM   28  C   UNL     1     -46.365  61.181 -46.087  1.00  0.00     0.013 A 
HETATM   29  C   UNL     1     -44.887  61.033 -45.979  1.00  0.00     0.013 A 
ENDBRANCH  25  27
ENDBRANCH  21  22
ENDBRANCH   8  21
TORSDOF 4
ENDMDL
MODEL 5
REMARK VINA RESULT:      -7.3      3.460      6.934
REMARK  4 active torsions:
REMARK  status: ('A' for Active; 'I' for Inactive)
REMARK    1  A    between atoms: N_8  and  C_10 
REMARK    2  A    between atoms: C_10  and  C_11 
REMARK    3  A    between atoms: C_14  and  C_15 
REMARK    4  A    between atoms: C_22  and  C_23 
ROOT
HETATM    1  C   UNL     1     -46.416  60.719 -52.089  1.00  0.00     0.269 C 
HETATM    2  N   UNL     1     -45.224  60.086 -52.778  1.00  0.00    -0.073 N 
HETATM    3  H   UNL     1     -45.610  59.301 -53.317  1.00  0.00     0.279 HD
HETATM    4  C   UNL     1     -44.233  59.552 -51.780  1.00  0.00     0.244 C 
HETATM    5  C   UNL     1     -43.068  58.800 -52.478  1.00  0.00    -0.013 C 
HETATM    6  C   UNL     1     -41.988  58.491 -51.399  1.00  0.00     0.039 C 
HETATM    7  C   UNL     1     -40.856  57.585 -51.886  1.00  0.00     0.236 C 
HETATM    8  N   UNL     1     -41.407  56.309 -52.461  1.00  0.00    -0.064 N 
HETATM    9  H   UNL     1     -40.592  55.845 -52.900  1.00  0.00     0.280 HD
HETATM   10  C   UNL     1     -42.421  56.530 -53.543  1.00  0.00     0.236 C 
HETATM   11  C   UNL     1     -43.551  57.433 -53.039  1.00  0.00     0.039 C 
HETATM   12  C   UNL     1     -42.459  59.734 -53.566  1.00  0.00     0.022 C 
HETATM   13  C   UNL     1     -43.467  60.381 -54.554  1.00  0.00     0.045 C 
HETATM   14  C   UNL     1     -44.594  61.063 -53.756  1.00  0.00     0.243 C 
ENDROOT
BRANCH  13  15
HETATM   15  C   UNL     1     -43.890  59.441 -55.680  1.00  0.00    -0.052 A 
HETATM   16  C   UNL     1     -45.226  59.200 -56.040  1.00  0.00     0.007 A 
HETATM   17  C   UNL     1     -45.545  58.324 -57.083  1.00  0.00     0.001 A 
HETATM   18  C   UNL     1     -44.537  57.694 -57.805  1.00  0.00     0.000 A 
HETATM   19  C   UNL     1     -43.207  57.955 -57.500  1.00  0.00     0.001 A 
HETATM   20  C   UNL     1     -42.888  58.828 -56.458  1.00  0.00     0.007 A 
ENDBRANCH  13  15
BRANCH   8  21
HETATM   21  C   UNL     1     -41.818  55.260 -51.415  1.00  0.00     0.317 C 
BRANCH  21  22
HETATM   22  C   UNL     1     -41.161  53.939 -51.622  1.00  0.00     0.181 A 
HETATM   23  N   UNL     1     -40.858  53.115 -50.620  1.00  0.00    -0.109 NA
HETATM   24  O   UNL     1     -40.221  52.054 -51.271  1.00  0.00    -0.196 OA
HETATM   25  C   UNL     1     -40.181  52.371 -52.604  1.00  0.00     0.177 A 
HETATM   26  N   UNL     1     -40.727  53.548 -52.863  1.00  0.00    -0.207 NA
BRANCH  25  27
HETATM   27  C   UNL     1     -39.553  51.460 -53.645  1.00  0.00     0.065 A 
HETATM   28  C   UNL     1     -39.483  49.972 -53.363  1.00  0.00     0.013 A 
HETATM   29  C   UNL     1     -40.439  50.479 -54.386  1.00  0.00     0.013 A 
ENDBRANCH  25  27
ENDBRANCH  21  22
ENDBRANCH   8  21
TORSDOF 4
ENDMDL
MODEL 6
REMARK VINA RESULT:      -7.3     17.275     20.278
REMARK  4 active torsions:
REMARK  status: ('A' for Active; 'I' for Inactive)
REMARK    1  A    between atoms: N_8  and  C_10 
REMARK    2  A    between atoms: C_10  and  C_11 
REMARK    3  A    between atoms: C_14  and  C_15 
REMARK    4  A    between atoms: C_22  and  C_23 
ROOT
HETATM    1  C   UNL     1     -36.386  40.801 -52.237  1.00  0.00     0.269 C 
HETATM    2  N   UNL     1     -35.863  40.893 -53.656  1.00  0.00    -0.073 N 
HETATM    3  H   UNL     1     -36.429  40.225 -54.195  1.00  0.00     0.279 HD
HETATM    4  C   UNL     1     -34.417  40.485 -53.736  1.00  0.00     0.244 C 
HETATM    5  C   UNL     1     -33.911  40.465 -55.203  1.00  0.00    -0.013 C 
HETATM    6  C   UNL     1     -32.366  40.264 -55.169  1.00  0.00     0.039 C 
HETATM    7  C   UNL     1     -31.733  40.032 -56.542  1.00  0.00     0.236 C 
HETATM    8  N   UNL     1     -32.400  38.883 -57.247  1.00  0.00    -0.064 N 
HETATM    9  H   UNL     1     -32.019  38.909 -58.210  1.00  0.00     0.280 HD
HETATM   10  C   UNL     1     -33.887  39.033 -57.360  1.00  0.00     0.236 C 
HETATM   11  C   UNL     1     -34.507  39.257 -55.978  1.00  0.00     0.039 C 
HETATM   12  C   UNL     1     -34.236  41.841 -55.857  1.00  0.00     0.022 C 
HETATM   13  C   UNL     1     -35.700  42.339 -55.708  1.00  0.00     0.045 C 
HETATM   14  C   UNL     1     -36.108  42.280 -54.224  1.00  0.00     0.243 C 
ENDROOT
BRANCH  13  15
HETATM   15  C   UNL     1     -36.656  41.700 -56.711  1.00  0.00    -0.052 A 
HETATM   16  C   UNL     1     -37.800  40.969 -56.350  1.00  0.00     0.007 A 
HETATM   17  C   UNL     1     -38.634  40.408 -57.323  1.00  0.00     0.001 A 
HETATM   18  C   UNL     1     -38.360  40.589 -58.674  1.00  0.00     0.000 A 
HETATM   19  C   UNL     1     -37.262  41.350 -59.057  1.00  0.00     0.001 A 
HETATM   20  C   UNL     1     -36.428  41.908 -58.087  1.00  0.00     0.007 A 
ENDBRANCH  13  15
BRANCH   8  21
HETATM   21  C   UNL     1     -31.938  37.492 -56.783  1.00  0.00     0.317 C 
BRANCH  21  22
HETATM   22  C   UNL     1     -30.476  37.270 -56.965  1.00  0.00     0.181 A 
HETATM   23  N   UNL     1     -29.652  37.008 -55.951  1.00  0.00    -0.109 NA
HETATM   24  O   UNL     1     -28.403  36.934 -56.577  1.00  0.00    -0.196 OA
HETATM   25  C   UNL     1     -28.609  37.196 -57.906  1.00  0.00     0.177 A 
HETATM   26  N   UNL     1     -29.877  37.441 -58.187  1.00  0.00    -0.207 NA
BRANCH  25  27
HETATM   27  C   UNL     1     -27.478  37.217 -58.921  1.00  0.00     0.065 A 
HETATM   28  C   UNL     1     -27.691  37.944 -60.234  1.00  0.00     0.013 A 
HETATM   29  C   UNL     1     -26.781  38.532 -59.211  1.00  0.00     0.013 A 
ENDBRANCH  25  27
ENDBRANCH  21  22
ENDBRANCH   8  21
TORSDOF 4
ENDMDL
MODEL 7
REMARK VINA RESULT:      -7.2      1.726      2.118
REMARK  4 active torsions:
REMARK  status: ('A' for Active; 'I' for Inactive)
REMARK    1  A    between atoms: N_8  and  C_10 
REMARK    2  A    between atoms: C_10  and  C_11 
REMARK    3  A    between atoms: C_14  and  C_15 
REMARK    4  A    between atoms: C_22  and  C_23 
ROOT
HETATM    1  C   UNL     1     -40.879  57.587 -50.272  1.00  0.00     0.269 C 
HETATM    2  N   UNL     1     -41.414  56.698 -51.375  1.00  0.00    -0.073 N 
HETATM    3  H   UNL     1     -40.582  56.313 -51.839  1.00  0.00     0.279 HD
HETATM    4  C   UNL     1     -42.211  57.486 -52.379  1.00  0.00     0.244 C 
HETATM    5  C   UNL     1     -42.663  56.602 -53.571  1.00  0.00    -0.013 C 
HETATM    6  C   UNL     1     -43.664  57.434 -54.427  1.00  0.00     0.039 C 
HETATM    7  C   UNL     1     -44.060  56.773 -55.748  1.00  0.00     0.236 C 
HETATM    8  N   UNL     1     -42.840  56.424 -56.555  1.00  0.00    -0.064 N 
HETATM    9  H   UNL     1     -43.198  55.849 -57.338  1.00  0.00     0.280 HD
HETATM   10  C   UNL     1     -41.850  55.581 -55.808  1.00  0.00     0.236 C 
HETATM   11  C   UNL     1     -41.458  56.258 -54.492  1.00  0.00     0.039 C 
HETATM   12  C   UNL     1     -43.388  55.344 -53.007  1.00  0.00     0.022 C 
HETATM   13  C   UNL     1     -42.634  54.561 -51.898  1.00  0.00     0.045 C 
HETATM   14  C   UNL     1     -42.202  55.539 -50.789  1.00  0.00     0.243 C 
ENDROOT
BRANCH  13  15
HETATM   15  C   UNL     1     -41.562  53.625 -52.448  1.00  0.00    -0.052 A 
HETATM   16  C   UNL     1     -40.430  53.215 -51.723  1.00  0.00     0.007 A 
HETATM   17  C   UNL     1     -39.484  52.355 -52.289  1.00  0.00     0.001 A 
HETATM   18  C   UNL     1     -39.661  51.865 -53.578  1.00  0.00     0.000 A 
HETATM   19  C   UNL     1     -40.797  52.215 -54.297  1.00  0.00     0.001 A 
HETATM   20  C   UNL     1     -41.741  53.075 -53.733  1.00  0.00     0.007 A 
ENDBRANCH  13  15
BRANCH   8  21
HETATM   21  C   UNL     1     -42.216  57.606 -57.315  1.00  0.00     0.317 C 
BRANCH  21  22
HETATM   22  C   UNL     1     -43.198  58.341 -58.161  1.00  0.00     0.181 A 
HETATM   23  N   UNL     1     -43.365  59.661 -58.094  1.00  0.00    -0.109 NA
HETATM   24  O   UNL     1     -44.403  59.889 -59.003  1.00  0.00    -0.196 OA
HETATM   25  C   UNL     1     -44.774  58.666 -59.499  1.00  0.00     0.177 A 
HETATM   26  N   UNL     1     -44.072  57.673 -58.979  1.00  0.00    -0.207 NA
BRANCH  25  27
HETATM   27  C   UNL     1     -45.889  58.499 -60.517  1.00  0.00     0.065 A 
HETATM   28  C   UNL     1     -46.736  57.243 -60.470  1.00  0.00     0.013 A 
HETATM   29  C   UNL     1     -47.327  58.540 -60.038  1.00  0.00     0.013 A 
ENDBRANCH  25  27
ENDBRANCH  21  22
ENDBRANCH   8  21
TORSDOF 4
ENDMDL
MODEL 8
REMARK VINA RESULT:      -7.1      2.808      7.948
REMARK  4 active torsions:
REMARK  status: ('A' for Active; 'I' for Inactive)
REMARK    1  A    between atoms: N_8  and  C_10 
REMARK    2  A    between atoms: C_10  and  C_11 
REMARK    3  A    between atoms: C_14  and  C_15 
REMARK    4  A    between atoms: C_22  and  C_23 
ROOT
HETATM    1  C   UNL     1     -45.058  61.395 -58.533  1.00  0.00     0.269 C 
HETATM    2  N   UNL     1     -44.357  60.076 -58.284  1.00  0.00    -0.073 N 
HETATM    3  H   UNL     1     -45.099  59.365 -58.318  1.00  0.00     0.279 HD
HETATM    4  C   UNL     1     -43.714  60.044 -56.924  1.00  0.00     0.244 C 
HETATM    5  C   UNL     1     -43.095  58.654 -56.618  1.00  0.00    -0.013 C 
HETATM    6  C   UNL     1     -42.260  58.784 -55.309  1.00  0.00     0.039 C 
HETATM    7  C   UNL     1     -41.736  57.455 -54.763  1.00  0.00     0.236 C 
HETATM    8  N   UNL     1     -42.864  56.477 -54.576  1.00  0.00    -0.064 N 
HETATM    9  H   UNL     1     -42.398  55.577 -54.363  1.00  0.00     0.280 HD
HETATM   10  C   UNL     1     -43.683  56.264 -55.812  1.00  0.00     0.236 C 
HETATM   11  C   UNL     1     -44.206  57.603 -56.342  1.00  0.00     0.039 C 
HETATM   12  C   UNL     1     -42.151  58.263 -57.794  1.00  0.00     0.022 C 
HETATM   13  C   UNL     1     -42.754  58.378 -59.220  1.00  0.00     0.045 C 
HETATM   14  C   UNL     1     -43.371  59.778 -59.400  1.00  0.00     0.243 C 
ENDROOT
BRANCH  13  15
HETATM   15  C   UNL     1     -43.628  57.186 -59.600  1.00  0.00    -0.052 A 
HETATM   16  C   UNL     1     -43.245  55.845 -59.431  1.00  0.00     0.007 A 
HETATM   17  C   UNL     1     -44.096  54.799 -59.803  1.00  0.00     0.001 A 
HETATM   18  C   UNL     1     -45.357  55.070 -60.324  1.00  0.00     0.000 A 
HETATM   19  C   UNL     1     -45.778  56.388 -60.455  1.00  0.00     0.001 A 
HETATM   20  C   UNL     1     -44.928  57.432 -60.086  1.00  0.00     0.007 A 
ENDBRANCH  13  15
BRANCH   8  21
HETATM   21  C   UNL     1     -43.691  56.692 -53.298  1.00  0.00     0.317 C 
BRANCH  21  22
HETATM   22  C   UNL     1     -42.983  56.257 -52.062  1.00  0.00     0.181 A 
HETATM   23  N   UNL     1     -42.783  57.063 -51.020  1.00  0.00    -0.109 NA
HETATM   24  O   UNL     1     -42.047  56.260 -50.142  1.00  0.00    -0.196 OA
HETATM   25  C   UNL     1     -41.854  55.057 -50.771  1.00  0.00     0.177 A 
HETATM   26  N   UNL     1     -42.392  55.022 -51.978  1.00  0.00    -0.207 NA
BRANCH  25  27
HETATM   27  C   UNL     1     -41.082  53.914 -50.132  1.00  0.00     0.065 A 
HETATM   28  C   UNL     1     -39.999  53.227 -50.940  1.00  0.00     0.013 A 
HETATM   29  C   UNL     1     -39.615  54.116 -49.808  1.00  0.00     0.013 A 
ENDBRANCH  25  27
ENDBRANCH  21  22
ENDBRANCH   8  21
TORSDOF 4
ENDMDL
MODEL 9
REMARK VINA RESULT:      -7.0      3.516      6.983
REMARK  4 active torsions:
REMARK  status: ('A' for Active; 'I' for Inactive)
REMARK    1  A    between atoms: N_8  and  C_10 
REMARK    2  A    between atoms: C_10  and  C_11 
REMARK    3  A    between atoms: C_14  and  C_15 
REMARK    4  A    between atoms: C_22  and  C_23 
ROOT
HETATM    1  C   UNL     1     -41.782  61.883 -58.020  1.00  0.00     0.269 C 
HETATM    2  N   UNL     1     -42.504  60.914 -57.106  1.00  0.00    -0.073 N 
HETATM    3  H   UNL     1     -42.204  61.166 -56.156  1.00  0.00     0.279 HD
HETATM    4  C   UNL     1     -42.100  59.492 -57.384  1.00  0.00     0.244 C 
HETATM    5  C   UNL     1     -42.747  58.507 -56.374  1.00  0.00    -0.013 C 
HETATM    6  C   UNL     1     -42.465  57.059 -56.875  1.00  0.00     0.039 C 
HETATM    7  C   UNL     1     -42.874  55.963 -55.890  1.00  0.00     0.236 C 
HETATM    8  N   UNL     1     -42.235  56.190 -54.548  1.00  0.00    -0.064 N 
HETATM    9  H   UNL     1     -42.691  55.504 -53.920  1.00  0.00     0.280 HD
HETATM   10  C   UNL     1     -42.505  57.551 -53.979  1.00  0.00     0.236 C 
HETATM   11  C   UNL     1     -42.085  58.637 -54.974  1.00  0.00     0.039 C 
HETATM   12  C   UNL     1     -44.285  58.756 -56.356  1.00  0.00     0.022 C 
HETATM   13  C   UNL     1     -44.736  60.229 -56.169  1.00  0.00     0.045 C 
HETATM   14  C   UNL     1     -44.007  61.119 -57.193  1.00  0.00     0.243 C 
ENDROOT
BRANCH  13  15
HETATM   15  C   UNL     1     -44.703  60.687 -54.713  1.00  0.00    -0.052 A 
HETATM   16  C   UNL     1     -44.114  61.885 -54.279  1.00  0.00     0.007 A 
HETATM   17  C   UNL     1     -44.118  62.243 -52.927  1.00  0.00     0.001 A 
HETATM   18  C   UNL     1     -44.735  61.427 -51.985  1.00  0.00     0.000 A 
HETATM   19  C   UNL     1     -45.368  60.260 -52.396  1.00  0.00     0.001 A 
HETATM   20  C   UNL     1     -45.362  59.902 -53.745  1.00  0.00     0.007 A 
ENDBRANCH  13  15
BRANCH   8  21
HETATM   21  C   UNL     1     -40.765  55.747 -54.455  1.00  0.00     0.317 C 
BRANCH  21  22
HETATM   22  C   UNL     1     -40.603  54.375 -53.897  1.00  0.00     0.181 A 
HETATM   23  N   UNL     1     -40.959  54.052 -52.654  1.00  0.00    -0.109 NA
HETATM   24  O   UNL     1     -40.577  52.710 -52.560  1.00  0.00    -0.196 OA
HETATM   25  C   UNL     1     -39.997  52.377 -53.757  1.00  0.00     0.177 A 
HETATM   26  N   UNL     1     -39.964  53.390 -54.606  1.00  0.00    -0.207 NA
BRANCH  25  27
HETATM   27  C   UNL     1     -39.441  50.991 -54.041  1.00  0.00     0.065 A 
HETATM   28  C   UNL     1     -39.787  49.860 -53.093  1.00  0.00     0.013 A 
HETATM   29  C   UNL     1     -40.400  49.890 -54.450  1.00  0.00     0.013 A 
ENDBRANCH  25  27
ENDBRANCH  21  22
ENDBRANCH   8  21
TORSDOF 4
ENDMDL
MODEL 10
REMARK VINA RESULT:      -6.9     16.284     18.495
REMARK  4 active torsions:
REMARK  status: ('A' for Active; 'I' for Inactive)
REMARK    1  A    between atoms: N_8  and  C_10 
REMARK    2  A    between atoms: C_10  and  C_11 
REMARK    3  A    between atoms: C_14  and  C_15 
REMARK    4  A    between atoms: C_22  and  C_23 
ROOT
HETATM    1  C   UNL     1     -32.230  36.658 -56.060  1.00  0.00     0.269 C 
HETATM    2  N   UNL     1     -32.660  37.962 -55.420  1.00  0.00    -0.073 N 
HETATM    3  H   UNL     1     -33.339  37.696 -54.695  1.00  0.00     0.279 HD
HETATM    4  C   UNL     1     -33.337  38.865 -56.415  1.00  0.00     0.244 C 
HETATM    5  C   UNL     1     -33.882  40.152 -55.739  1.00  0.00    -0.013 C 
HETATM    6  C   UNL     1     -34.349  41.119 -56.867  1.00  0.00     0.039 C 
HETATM    7  C   UNL     1     -35.089  42.359 -56.364  1.00  0.00     0.236 C 
HETATM    8  N   UNL     1     -36.249  41.967 -55.490  1.00  0.00    -0.064 N 
HETATM    9  H   UNL     1     -36.579  42.858 -55.077  1.00  0.00     0.280 HD
HETATM   10  C   UNL     1     -35.864  41.073 -54.350  1.00  0.00     0.236 C 
HETATM   11  C   UNL     1     -35.130  39.833 -54.870  1.00  0.00     0.039 C 
HETATM   12  C   UNL     1     -32.724  40.817 -54.937  1.00  0.00     0.022 C 
HETATM   13  C   UNL     1     -31.940  39.888 -53.971  1.00  0.00     0.045 C 
HETATM   14  C   UNL     1     -31.481  38.632 -54.735  1.00  0.00     0.243 C 
ENDROOT
BRANCH  13  15
HETATM   15  C   UNL     1     -32.655  39.663 -52.641  1.00  0.00    -0.052 A 
HETATM   16  C   UNL     1     -32.876  38.399 -52.073  1.00  0.00     0.007 A 
HETATM   17  C   UNL     1     -33.541  38.264 -50.849  1.00  0.00     0.001 A 
HETATM   18  C   UNL     1     -33.973  39.389 -50.156  1.00  0.00     0.000 A 
HETATM   19  C   UNL     1     -33.722  40.654 -50.674  1.00  0.00     0.001 A 
HETATM   20  C   UNL     1     -33.060  40.789 -51.896  1.00  0.00     0.007 A 
ENDBRANCH  13  15
BRANCH   8  21
HETATM   21  C   UNL     1     -37.502  41.512 -56.255  1.00  0.00     0.317 C 
BRANCH  21  22
HETATM   22  C   UNL     1     -37.268  41.351 -57.717  1.00  0.00     0.181 A 
HETATM   23  N   UNL     1     -37.259  42.378 -58.567  1.00  0.00    -0.109 NA
HETATM   24  O   UNL     1     -37.064  41.756 -59.804  1.00  0.00    -0.196 OA
HETATM   25  C   UNL     1     -37.009  40.407 -59.567  1.00  0.00     0.177 A 
HETATM   26  N   UNL     1     -37.163  40.108 -58.288  1.00  0.00    -0.207 NA
BRANCH  25  27
HETATM   27  C   UNL     1     -36.814  39.387 -60.677  1.00  0.00     0.065 A 
HETATM   28  C   UNL     1     -37.540  38.060 -60.583  1.00  0.00     0.013 A 
HETATM   29  C   UNL     1     -37.984  39.067 -61.587  1.00  0.00     0.013 A 
ENDBRANCH  25  27
ENDBRANCH  21  22
ENDBRANCH   8  21
TORSDOF 4
ENDMDL
