MODEL 1
REMARK VINA RESULT:      -8.0      0.000      0.000
REMARK  10 active torsions:
REMARK  status: ('A' for Active; 'I' for Inactive)
REMARK    1  A    between atoms: C_6  and  C_7 
REMARK    2  A    between atoms: C_7  and  C_8 
REMARK       I    between atoms: C_8  and  N_9 
REMARK    3  A    between atoms: N_9  and  C_10 
REMARK    4  A    between atoms: C_10  and  C_11 
REMARK    5  A    between atoms: C_11  and  N_12 
REMARK    6  A    between atoms: C_17  and  C_18 
REMARK    7  A    between atoms: C_27  and  C_28 
REMARK    8  A    between atoms: C_28  and  O_29 
REMARK    9  A    between atoms: O_29  and  C_30 
REMARK   10  A    between atoms: C_30  and  C_31 
ROOT
HETATM    1  C   UNL     1     -44.024  54.252 -50.339  1.00  0.00     0.071 C 
HETATM    2  C   UNL     1     -43.744  55.590 -50.987  1.00  0.00     0.048 C 
HETATM    3  N   UNL     1     -44.815  56.467 -50.895  1.00  0.00    -0.229 NA
HETATM    4  C   UNL     1     -44.554  57.720 -51.047  1.00  0.00     0.170 C 
HETATM    5  N   UNL     1     -43.226  58.276 -51.636  1.00  0.00    -0.318 N 
HETATM    6  C   UNL     1     -43.137  59.556 -51.503  1.00  0.00     0.011 C 
HETATM    7  C   UNL     1     -42.449  57.233 -52.338  1.00  0.00     0.168 C 
HETATM    8  S   UNL     1     -45.621  59.005 -50.595  1.00  0.00    -0.086 SA
HETATM    9  C   UNL     1     -44.247  60.200 -50.705  1.00  0.00     0.135 C 
HETATM   10  C   UNL     1     -42.545  55.993 -51.473  1.00  0.00     0.069 C 
ENDROOT
BRANCH   6  11
HETATM   11  C   UNL     1     -42.018  60.342 -52.111  1.00  0.00     0.156 C 
BRANCH  11  12
HETATM   12  C   UNL     1     -42.000  60.384 -53.624  1.00  0.00     0.223 C 
HETATM   13  N   UNL     1     -43.110  60.980 -54.170  1.00  0.00    -0.359 N 
HETATM   14  H   UNL     1     -43.859  61.253 -53.537  1.00  0.00     0.162 HD
HETATM   15  O   UNL     1     -41.087  59.906 -54.287  1.00  0.00    -0.273 OA
BRANCH  13  16
HETATM   16  C   UNL     1     -43.510  60.913 -55.577  1.00  0.00     0.150 C 
BRANCH  16  17
HETATM   17  C   UNL     1     -42.771  61.832 -56.568  1.00  0.00     0.253 C 
BRANCH  17  18
HETATM   18  N   UNL     1     -41.569  61.181 -57.220  1.00  0.00    -0.077 N 
HETATM   19  H   UNL     1     -40.824  61.123 -56.497  1.00  0.00     0.279 HD
HETATM   20  C   UNL     1     -41.811  59.776 -57.704  1.00  0.00     0.269 C 
HETATM   21  C   UNL     1     -41.039  62.041 -58.335  1.00  0.00     0.269 C 
ENDBRANCH  17  18
ENDBRANCH  16  17
ENDBRANCH  13  16
ENDBRANCH  11  12
ENDBRANCH   6  11
BRANCH   7  22
HETATM   22  C   UNL     1     -42.938  57.016 -53.792  1.00  0.00    -0.009 A 
HETATM   23  C   UNL     1     -42.115  56.399 -54.764  1.00  0.00     0.042 A 
HETATM   24 CL   UNL     1     -40.497  55.900 -54.434  1.00  0.00    -0.084 Cl
HETATM   25  C   UNL     1     -42.566  56.180 -56.073  1.00  0.00     0.024 A 
HETATM   26  C   UNL     1     -43.834  56.593 -56.463  1.00  0.00     0.002 A 
HETATM   27  C   UNL     1     -44.655  57.233 -55.546  1.00  0.00     0.001 A 
HETATM   28  C   UNL     1     -44.216  57.442 -54.233  1.00  0.00     0.011 A 
ENDBRANCH   7  22
BRANCH  10  29
HETATM   29  C   UNL     1     -41.235  55.557 -50.891  1.00  0.00     0.294 C 
HETATM   30  O   UNL     1     -40.928  55.827 -49.739  1.00  0.00    -0.259 OA
BRANCH  29  31
HETATM   31  O   UNL     1     -40.679  54.586 -51.644  1.00  0.00    -0.313 OA
BRANCH  31  32
HETATM   32  C   UNL     1     -40.237  53.402 -50.960  1.00  0.00     0.217 C 
BRANCH  32  33
HETATM   33  C   UNL     1     -40.032  52.263 -51.941  1.00  0.00    -0.034 A 
HETATM   34  C   UNL     1     -39.638  50.979 -51.525  1.00  0.00     0.009 A 
HETATM   35  C   UNL     1     -39.504  49.933 -52.442  1.00  0.00     0.001 A 
HETATM   36  C   UNL     1     -39.800  50.147 -53.785  1.00  0.00     0.000 A 
HETATM   37  C   UNL     1     -40.233  51.402 -54.207  1.00  0.00     0.001 A 
HETATM   38  C   UNL     1     -40.338  52.456 -53.295  1.00  0.00     0.009 A 
ENDBRANCH  32  33
ENDBRANCH  31  32
ENDBRANCH  29  31
ENDBRANCH  10  29
TORSDOF 10
ENDMDL
MODEL 2
REMARK VINA RESULT:      -7.3      2.902      5.583
REMARK  10 active torsions:
REMARK  status: ('A' for Active; 'I' for Inactive)
REMARK    1  A    between atoms: C_6  and  C_7 
REMARK    2  A    between atoms: C_7  and  C_8 
REMARK       I    between atoms: C_8  and  N_9 
REMARK    3  A    between atoms: N_9  and  C_10 
REMARK    4  A    between atoms: C_10  and  C_11 
REMARK    5  A    between atoms: C_11  and  N_12 
REMARK    6  A    between atoms: C_17  and  C_18 
REMARK    7  A    between atoms: C_27  and  C_28 
REMARK    8  A    between atoms: C_28  and  O_29 
REMARK    9  A    between atoms: O_29  and  C_30 
REMARK   10  A    between atoms: C_30  and  C_31 
ROOT
HETATM    1  C   UNL     1     -41.718  55.524 -55.909  1.00  0.00     0.071 C 
HETATM    2  C   UNL     1     -42.278  56.408 -54.816  1.00  0.00     0.048 C 
HETATM    3  N   UNL     1     -42.610  57.676 -55.268  1.00  0.00    -0.229 NA
HETATM    4  C   UNL     1     -43.439  58.351 -54.546  1.00  0.00     0.170 C 
HETATM    5  N   UNL     1     -43.824  57.990 -53.083  1.00  0.00    -0.318 N 
HETATM    6  C   UNL     1     -44.810  58.704 -52.654  1.00  0.00     0.011 C 
HETATM    7  C   UNL     1     -42.882  57.025 -52.481  1.00  0.00     0.168 C 
HETATM    8  S   UNL     1     -44.291  59.756 -55.088  1.00  0.00    -0.086 SA
HETATM    9  C   UNL     1     -45.445  59.612 -53.682  1.00  0.00     0.135 C 
HETATM   10  C   UNL     1     -42.589  56.003 -53.561  1.00  0.00     0.069 C 
ENDROOT
BRANCH   6  11
HETATM   11  C   UNL     1     -45.276  58.642 -51.233  1.00  0.00     0.156 C 
BRANCH  11  12
HETATM   12  C   UNL     1     -45.502  59.981 -50.564  1.00  0.00     0.223 C 
HETATM   13  N   UNL     1     -44.544  60.299 -49.633  1.00  0.00    -0.359 N 
HETATM   14  H   UNL     1     -43.842  59.595 -49.419  1.00  0.00     0.162 HD
HETATM   15  O   UNL     1     -46.466  60.693 -50.822  1.00  0.00    -0.273 OA
BRANCH  13  16
HETATM   16  C   UNL     1     -44.645  61.366 -48.636  1.00  0.00     0.150 C 
BRANCH  16  17
HETATM   17  C   UNL     1     -45.721  61.217 -47.544  1.00  0.00     0.253 C 
BRANCH  17  18
HETATM   18  N   UNL     1     -45.330  60.266 -46.432  1.00  0.00    -0.077 N 
HETATM   19  H   UNL     1     -44.649  59.590 -46.834  1.00  0.00     0.279 HD
HETATM   20  C   UNL     1     -44.646  60.924 -45.264  1.00  0.00     0.269 C 
HETATM   21  C   UNL     1     -46.521  59.472 -45.969  1.00  0.00     0.269 C 
ENDBRANCH  17  18
ENDBRANCH  16  17
ENDBRANCH  13  16
ENDBRANCH  11  12
ENDBRANCH   6  11
BRANCH   7  22
HETATM   22  C   UNL     1     -41.614  57.715 -51.917  1.00  0.00    -0.009 A 
HETATM   23  C   UNL     1     -41.012  57.283 -50.712  1.00  0.00     0.042 A 
HETATM   24 CL   UNL     1     -41.663  56.010 -49.749  1.00  0.00    -0.084 Cl
HETATM   25  C   UNL     1     -39.850  57.891 -50.215  1.00  0.00     0.024 A 
HETATM   26  C   UNL     1     -39.272  58.963 -50.884  1.00  0.00     0.002 A 
HETATM   27  C   UNL     1     -39.856  59.436 -52.049  1.00  0.00     0.001 A 
HETATM   28  C   UNL     1     -41.007  58.824 -52.559  1.00  0.00     0.011 A 
ENDBRANCH   7  22
BRANCH  10  29
HETATM   29  C   UNL     1     -43.079  54.624 -53.240  1.00  0.00     0.294 C 
HETATM   30  O   UNL     1     -43.934  54.077 -53.921  1.00  0.00    -0.259 OA
BRANCH  29  31
HETATM   31  O   UNL     1     -42.229  54.002 -52.398  1.00  0.00    -0.313 OA
BRANCH  31  32
HETATM   32  C   UNL     1     -40.842  53.978 -52.770  1.00  0.00     0.217 C 
BRANCH  32  33
HETATM   33  C   UNL     1     -40.358  52.550 -52.943  1.00  0.00    -0.034 A 
HETATM   34  C   UNL     1     -39.861  51.792 -51.868  1.00  0.00     0.009 A 
HETATM   35  C   UNL     1     -39.467  50.463 -52.044  1.00  0.00     0.001 A 
HETATM   36  C   UNL     1     -39.604  49.859 -53.290  1.00  0.00     0.000 A 
HETATM   37  C   UNL     1     -40.136  50.582 -54.355  1.00  0.00     0.001 A 
HETATM   38  C   UNL     1     -40.500  51.922 -54.188  1.00  0.00     0.009 A 
ENDBRANCH  32  33
ENDBRANCH  31  32
ENDBRANCH  29  31
ENDBRANCH  10  29
TORSDOF 10
ENDMDL
MODEL 3
REMARK VINA RESULT:      -7.2      3.245      5.049
REMARK  10 active torsions:
REMARK  status: ('A' for Active; 'I' for Inactive)
REMARK    1  A    between atoms: C_6  and  C_7 
REMARK    2  A    between atoms: C_7  and  C_8 
REMARK       I    between atoms: C_8  and  N_9 
REMARK    3  A    between atoms: N_9  and  C_10 
REMARK    4  A    between atoms: C_10  and  C_11 
REMARK    5  A    between atoms: C_11  and  N_12 
REMARK    6  A    between atoms: C_17  and  C_18 
REMARK    7  A    between atoms: C_27  and  C_28 
REMARK    8  A    between atoms: C_28  and  O_29 
REMARK    9  A    between atoms: O_29  and  C_30 
REMARK   10  A    between atoms: C_30  and  C_31 
ROOT
HETATM    1  C   UNL     1     -39.908  58.815 -52.280  1.00  0.00     0.071 C 
HETATM    2  C   UNL     1     -41.239  58.955 -52.985  1.00  0.00     0.048 C 
HETATM    3  N   UNL     1     -41.184  59.814 -54.073  1.00  0.00    -0.229 NA
HETATM    4  C   UNL     1     -42.119  59.697 -54.952  1.00  0.00     0.170 C 
HETATM    5  N   UNL     1     -43.444  58.915 -54.727  1.00  0.00    -0.318 N 
HETATM    6  C   UNL     1     -44.120  58.787 -55.819  1.00  0.00     0.011 C 
HETATM    7  C   UNL     1     -43.688  58.632 -53.298  1.00  0.00     0.168 C 
HETATM    8  S   UNL     1     -42.051  60.362 -56.548  1.00  0.00    -0.086 SA
HETATM    9  C   UNL     1     -43.432  59.289 -57.067  1.00  0.00     0.135 C 
HETATM   10  C   UNL     1     -42.348  58.222 -52.723  1.00  0.00     0.069 C 
ENDROOT
BRANCH   6  11
HETATM   11  C   UNL     1     -45.494  58.193 -55.837  1.00  0.00     0.156 C 
BRANCH  11  12
HETATM   12  C   UNL     1     -46.271  58.392 -57.121  1.00  0.00     0.223 C 
HETATM   13  N   UNL     1     -46.226  57.310 -57.965  1.00  0.00    -0.359 N 
HETATM   14  H   UNL     1     -45.625  56.531 -57.702  1.00  0.00     0.162 HD
HETATM   15  O   UNL     1     -46.861  59.435 -57.380  1.00  0.00    -0.273 OA
BRANCH  13  16
HETATM   16  C   UNL     1     -46.627  57.308 -59.372  1.00  0.00     0.150 C 
BRANCH  16  17
HETATM   17  C   UNL     1     -45.587  57.780 -60.406  1.00  0.00     0.253 C 
BRANCH  17  18
HETATM   18  N   UNL     1     -44.628  56.693 -60.843  1.00  0.00    -0.077 N 
HETATM   19  H   UNL     1     -44.325  56.924 -61.810  1.00  0.00     0.279 HD
HETATM   20  C   UNL     1     -43.378  56.597 -60.011  1.00  0.00     0.269 C 
HETATM   21  C   UNL     1     -45.326  55.361 -60.904  1.00  0.00     0.269 C 
ENDBRANCH  17  18
ENDBRANCH  16  17
ENDBRANCH  13  16
ENDBRANCH  11  12
ENDBRANCH   6  11
BRANCH   7  22
HETATM   22  C   UNL     1     -44.338  59.833 -52.565  1.00  0.00    -0.009 A 
HETATM   23  C   UNL     1     -45.131  59.651 -51.407  1.00  0.00     0.042 A 
HETATM   24 CL   UNL     1     -45.488  58.093 -50.758  1.00  0.00    -0.084 Cl
HETATM   25  C   UNL     1     -45.698  60.739 -50.729  1.00  0.00     0.024 A 
HETATM   26  C   UNL     1     -45.519  62.035 -51.198  1.00  0.00     0.002 A 
HETATM   27  C   UNL     1     -44.777  62.248 -52.350  1.00  0.00     0.001 A 
HETATM   28  C   UNL     1     -44.196  61.167 -53.023  1.00  0.00     0.011 A 
ENDBRANCH   7  22
BRANCH  10  29
HETATM   29  C   UNL     1     -42.301  56.800 -52.251  1.00  0.00     0.294 C 
HETATM   30  O   UNL     1     -42.538  56.507 -51.087  1.00  0.00    -0.259 OA
BRANCH  29  31
HETATM   31  O   UNL     1     -42.336  55.950 -53.296  1.00  0.00    -0.313 OA
BRANCH  31  32
HETATM   32  C   UNL     1     -42.818  54.621 -53.042  1.00  0.00     0.217 C 
BRANCH  32  33
HETATM   33  C   UNL     1     -41.674  53.624 -53.057  1.00  0.00    -0.034 A 
HETATM   34  C   UNL     1     -40.922  53.331 -51.906  1.00  0.00     0.009 A 
HETATM   35  C   UNL     1     -39.905  52.373 -51.933  1.00  0.00     0.001 A 
HETATM   36  C   UNL     1     -39.653  51.664 -53.104  1.00  0.00     0.000 A 
HETATM   37  C   UNL     1     -40.418  51.911 -54.241  1.00  0.00     0.001 A 
HETATM   38  C   UNL     1     -41.415  52.892 -54.223  1.00  0.00     0.009 A 
ENDBRANCH  32  33
ENDBRANCH  31  32
ENDBRANCH  29  31
ENDBRANCH  10  29
TORSDOF 10
ENDMDL
MODEL 4
REMARK VINA RESULT:      -7.0      3.334      6.343
REMARK  10 active torsions:
REMARK  status: ('A' for Active; 'I' for Inactive)
REMARK    1  A    between atoms: C_6  and  C_7 
REMARK    2  A    between atoms: C_7  and  C_8 
REMARK       I    between atoms: C_8  and  N_9 
REMARK    3  A    between atoms: N_9  and  C_10 
REMARK    4  A    between atoms: C_10  and  C_11 
REMARK    5  A    between atoms: C_11  and  N_12 
REMARK    6  A    between atoms: C_17  and  C_18 
REMARK    7  A    between atoms: C_27  and  C_28 
REMARK    8  A    between atoms: C_28  and  O_29 
REMARK    9  A    between atoms: O_29  and  C_30 
REMARK   10  A    between atoms: C_30  and  C_31 
ROOT
HETATM    1  C   UNL     1     -41.464  55.171 -49.112  1.00  0.00     0.071 C 
HETATM    2  C   UNL     1     -41.681  55.159 -50.609  1.00  0.00     0.048 C 
HETATM    3  N   UNL     1     -40.641  54.552 -51.298  1.00  0.00    -0.229 NA
HETATM    4  C   UNL     1     -40.899  54.141 -52.492  1.00  0.00     0.170 C 
HETATM    5  N   UNL     1     -42.153  54.557 -53.313  1.00  0.00    -0.318 N 
HETATM    6  C   UNL     1     -42.275  53.861 -54.393  1.00  0.00     0.011 C 
HETATM    7  C   UNL     1     -42.823  55.743 -52.742  1.00  0.00     0.168 C 
HETATM    8  S   UNL     1     -39.914  53.029 -53.379  1.00  0.00    -0.086 SA
HETATM    9  C   UNL     1     -41.281  52.735 -54.551  1.00  0.00     0.135 C 
HETATM   10  C   UNL     1     -42.817  55.540 -51.241  1.00  0.00     0.069 C 
ENDROOT
BRANCH   6  11
HETATM   11  C   UNL     1     -43.323  54.165 -55.419  1.00  0.00     0.156 C 
BRANCH  11  12
HETATM   12  C   UNL     1     -42.891  55.094 -56.534  1.00  0.00     0.223 C 
HETATM   13  N   UNL     1     -43.719  55.060 -57.629  1.00  0.00    -0.359 N 
HETATM   14  H   UNL     1     -44.472  54.376 -57.630  1.00  0.00     0.162 HD
HETATM   15  O   UNL     1     -41.882  55.787 -56.461  1.00  0.00    -0.273 OA
BRANCH  13  16
HETATM   16  C   UNL     1     -43.411  55.615 -58.948  1.00  0.00     0.150 C 
BRANCH  16  17
HETATM   17  C   UNL     1     -44.320  56.742 -59.473  1.00  0.00     0.253 C 
BRANCH  17  18
HETATM   18  N   UNL     1     -45.792  56.509 -59.205  1.00  0.00    -0.077 N 
HETATM   19  H   UNL     1     -45.857  55.759 -58.488  1.00  0.00     0.279 HD
HETATM   20  C   UNL     1     -46.518  57.703 -58.647  1.00  0.00     0.269 C 
HETATM   21  C   UNL     1     -46.483  56.000 -60.441  1.00  0.00     0.269 C 
ENDBRANCH  17  18
ENDBRANCH  16  17
ENDBRANCH  13  16
ENDBRANCH  11  12
ENDBRANCH   6  11
BRANCH   7  22
HETATM   22  C   UNL     1     -42.157  57.068 -53.194  1.00  0.00    -0.009 A 
HETATM   23  C   UNL     1     -42.803  57.951 -54.091  1.00  0.00     0.042 A 
HETATM   24 CL   UNL     1     -44.338  57.604 -54.797  1.00  0.00    -0.084 Cl
HETATM   25  C   UNL     1     -42.212  59.162 -54.480  1.00  0.00     0.024 A 
HETATM   26  C   UNL     1     -40.952  59.515 -54.013  1.00  0.00     0.002 A 
HETATM   27  C   UNL     1     -40.275  58.657 -53.160  1.00  0.00     0.001 A 
HETATM   28  C   UNL     1     -40.865  57.454 -52.756  1.00  0.00     0.011 A 
ENDBRANCH   7  22
BRANCH  10  29
HETATM   29  C   UNL     1     -44.182  55.379 -50.645  1.00  0.00     0.294 C 
HETATM   30  O   UNL     1     -44.599  54.284 -50.294  1.00  0.00    -0.259 OA
BRANCH  29  31
HETATM   31  O   UNL     1     -44.669  56.570 -50.243  1.00  0.00    -0.313 OA
BRANCH  31  32
HETATM   32  C   UNL     1     -45.319  57.380 -51.235  1.00  0.00     0.217 C 
BRANCH  32  33
HETATM   33  C   UNL     1     -44.697  58.763 -51.290  1.00  0.00    -0.034 A 
HETATM   34  C   UNL     1     -43.465  59.054 -50.678  1.00  0.00     0.009 A 
HETATM   35  C   UNL     1     -42.890  60.323 -50.784  1.00  0.00     0.001 A 
HETATM   36  C   UNL     1     -43.519  61.308 -51.538  1.00  0.00     0.000 A 
HETATM   37  C   UNL     1     -44.718  61.023 -52.187  1.00  0.00     0.001 A 
HETATM   38  C   UNL     1     -45.310  59.764 -52.055  1.00  0.00     0.009 A 
ENDBRANCH  32  33
ENDBRANCH  31  32
ENDBRANCH  29  31
ENDBRANCH  10  29
TORSDOF 10
ENDMDL
MODEL 5
REMARK VINA RESULT:      -7.0      3.123      6.219
REMARK  10 active torsions:
REMARK  status: ('A' for Active; 'I' for Inactive)
REMARK    1  A    between atoms: C_6  and  C_7 
REMARK    2  A    between atoms: C_7  and  C_8 
REMARK       I    between atoms: C_8  and  N_9 
REMARK    3  A    between atoms: N_9  and  C_10 
REMARK    4  A    between atoms: C_10  and  C_11 
REMARK    5  A    between atoms: C_11  and  N_12 
REMARK    6  A    between atoms: C_17  and  C_18 
REMARK    7  A    between atoms: C_27  and  C_28 
REMARK    8  A    between atoms: C_28  and  O_29 
REMARK    9  A    between atoms: O_29  and  C_30 
REMARK   10  A    between atoms: C_30  and  C_31 
ROOT
HETATM    1  C   UNL     1     -42.026  59.419 -56.994  1.00  0.00     0.071 C 
HETATM    2  C   UNL     1     -42.688  59.580 -55.643  1.00  0.00     0.048 C 
HETATM    3  N   UNL     1     -42.598  60.874 -55.151  1.00  0.00    -0.229 NA
HETATM    4  C   UNL     1     -43.442  61.207 -54.236  1.00  0.00     0.170 C 
HETATM    5  N   UNL     1     -44.312  60.196 -53.433  1.00  0.00    -0.318 N 
HETATM    6  C   UNL     1     -45.208  60.792 -52.721  1.00  0.00     0.011 C 
HETATM    7  C   UNL     1     -43.815  58.811 -53.561  1.00  0.00     0.168 C 
HETATM    8  S   UNL     1     -43.781  62.835 -53.762  1.00  0.00    -0.086 SA
HETATM    9  C   UNL     1     -45.304  62.286 -52.921  1.00  0.00     0.135 C 
HETATM   10  C   UNL     1     -43.436  58.639 -55.017  1.00  0.00     0.069 C 
ENDROOT
BRANCH   6  11
HETATM   11  C   UNL     1     -46.077  60.047 -51.755  1.00  0.00     0.156 C 
BRANCH  11  12
HETATM   12  C   UNL     1     -45.715  60.212 -50.294  1.00  0.00     0.223 C 
HETATM   13  N   UNL     1     -44.991  61.348 -50.032  1.00  0.00    -0.359 N 
HETATM   14  H   UNL     1     -44.698  61.915 -50.825  1.00  0.00     0.162 HD
HETATM   15  O   UNL     1     -46.025  59.388 -49.442  1.00  0.00    -0.273 OA
BRANCH  13  16
HETATM   16  C   UNL     1     -44.263  61.629 -48.794  1.00  0.00     0.150 C 
BRANCH  16  17
HETATM   17  C   UNL     1     -44.795  62.765 -47.900  1.00  0.00     0.253 C 
BRANCH  17  18
HETATM   18  N   UNL     1     -45.542  62.276 -46.677  1.00  0.00    -0.077 N 
HETATM   19  H   UNL     1     -45.549  63.056 -45.991  1.00  0.00     0.279 HD
HETATM   20  C   UNL     1     -46.981  61.915 -46.933  1.00  0.00     0.269 C 
HETATM   21  C   UNL     1     -44.815  61.127 -46.034  1.00  0.00     0.269 C 
ENDBRANCH  17  18
ENDBRANCH  16  17
ENDBRANCH  13  16
ENDBRANCH  11  12
ENDBRANCH   6  11
BRANCH   7  22
HETATM   22  C   UNL     1     -42.657  58.510 -52.576  1.00  0.00    -0.009 A 
HETATM   23  C   UNL     1     -42.840  57.663 -51.458  1.00  0.00     0.042 A 
HETATM   24 CL   UNL     1     -44.361  56.952 -51.066  1.00  0.00    -0.084 Cl
HETATM   25  C   UNL     1     -41.785  57.369 -50.581  1.00  0.00     0.024 A 
HETATM   26  C   UNL     1     -40.529  57.933 -50.772  1.00  0.00     0.002 A 
HETATM   27  C   UNL     1     -40.324  58.796 -51.837  1.00  0.00     0.001 A 
HETATM   28  C   UNL     1     -41.368  59.082 -52.725  1.00  0.00     0.011 A 
ENDBRANCH   7  22
BRANCH  10  29
HETATM   29  C   UNL     1     -44.276  57.637 -55.748  1.00  0.00     0.294 C 
HETATM   30  O   UNL     1     -44.722  57.871 -56.862  1.00  0.00    -0.259 OA
BRANCH  29  31
HETATM   31  O   UNL     1     -44.145  56.414 -55.197  1.00  0.00    -0.313 OA
BRANCH  31  32
HETATM   32  C   UNL     1     -42.920  55.709 -55.453  1.00  0.00     0.217 C 
BRANCH  32  33
HETATM   33  C   UNL     1     -42.413  55.039 -54.190  1.00  0.00    -0.034 A 
HETATM   34  C   UNL     1     -41.063  55.101 -53.799  1.00  0.00     0.009 A 
HETATM   35  C   UNL     1     -40.630  54.518 -52.606  1.00  0.00     0.001 A 
HETATM   36  C   UNL     1     -41.549  53.898 -51.765  1.00  0.00     0.000 A 
HETATM   37  C   UNL     1     -42.896  53.865 -52.115  1.00  0.00     0.001 A 
HETATM   38  C   UNL     1     -43.325  54.421 -53.324  1.00  0.00     0.009 A 
ENDBRANCH  32  33
ENDBRANCH  31  32
ENDBRANCH  29  31
ENDBRANCH  10  29
TORSDOF 10
ENDMDL
MODEL 6
REMARK VINA RESULT:      -6.9      3.285      5.197
REMARK  10 active torsions:
REMARK  status: ('A' for Active; 'I' for Inactive)
REMARK    1  A    between atoms: C_6  and  C_7 
REMARK    2  A    between atoms: C_7  and  C_8 
REMARK       I    between atoms: C_8  and  N_9 
REMARK    3  A    between atoms: N_9  and  C_10 
REMARK    4  A    between atoms: C_10  and  C_11 
REMARK    5  A    between atoms: C_11  and  N_12 
REMARK    6  A    between atoms: C_17  and  C_18 
REMARK    7  A    between atoms: C_27  and  C_28 
REMARK    8  A    between atoms: C_28  and  O_29 
REMARK    9  A    between atoms: O_29  and  C_30 
REMARK   10  A    between atoms: C_30  and  C_31 
ROOT
HETATM    1  C   UNL     1     -44.752  56.958 -53.839  1.00  0.00     0.071 C 
HETATM    2  C   UNL     1     -44.420  57.669 -55.133  1.00  0.00     0.048 C 
HETATM    3  N   UNL     1     -45.084  58.879 -55.267  1.00  0.00    -0.229 NA
HETATM    4  C   UNL     1     -44.587  59.724 -56.105  1.00  0.00     0.170 C 
HETATM    5  N   UNL     1     -43.523  59.369 -57.184  1.00  0.00    -0.318 N 
HETATM    6  C   UNL     1     -43.052  60.422 -57.760  1.00  0.00     0.011 C 
HETATM    7  C   UNL     1     -43.411  57.911 -57.396  1.00  0.00     0.168 C 
HETATM    8  S   UNL     1     -44.990  61.405 -56.156  1.00  0.00    -0.086 SA
HETATM    9  C   UNL     1     -43.520  61.739 -57.184  1.00  0.00     0.135 C 
HETATM   10  C   UNL     1     -43.468  57.286 -56.017  1.00  0.00     0.069 C 
ENDROOT
BRANCH   6  11
HETATM   11  C   UNL     1     -42.117  60.337 -58.927  1.00  0.00     0.156 C 
BRANCH  11  12
HETATM   12  C   UNL     1     -41.239  61.551 -59.146  1.00  0.00     0.223 C 
HETATM   13  N   UNL     1     -41.589  62.291 -60.248  1.00  0.00    -0.359 N 
HETATM   14  H   UNL     1     -42.325  61.925 -60.848  1.00  0.00     0.162 HD
HETATM   15  O   UNL     1     -40.294  61.822 -58.414  1.00  0.00    -0.273 OA
BRANCH  13  16
HETATM   16  C   UNL     1     -40.770  63.332 -60.872  1.00  0.00     0.150 C 
BRANCH  16  17
HETATM   17  C   UNL     1     -39.478  62.886 -61.583  1.00  0.00     0.253 C 
BRANCH  17  18
HETATM   18  N   UNL     1     -39.616  62.785 -63.087  1.00  0.00    -0.077 N 
HETATM   19  H   UNL     1     -39.529  61.779 -63.335  1.00  0.00     0.279 HD
HETATM   20  C   UNL     1     -40.946  63.247 -63.620  1.00  0.00     0.269 C 
HETATM   21  C   UNL     1     -38.490  63.509 -63.774  1.00  0.00     0.269 C 
ENDBRANCH  17  18
ENDBRANCH  16  17
ENDBRANCH  13  16
ENDBRANCH  11  12
ENDBRANCH   6  11
BRANCH   7  22
HETATM   22  C   UNL     1     -44.494  57.375 -58.367  1.00  0.00    -0.009 A 
HETATM   23  C   UNL     1     -44.187  56.409 -59.354  1.00  0.00     0.042 A 
HETATM   24 CL   UNL     1     -42.592  55.800 -59.598  1.00  0.00    -0.084 Cl
HETATM   25  C   UNL     1     -45.171  55.904 -60.216  1.00  0.00     0.024 A 
HETATM   26  C   UNL     1     -46.480  56.367 -60.143  1.00  0.00     0.002 A 
HETATM   27  C   UNL     1     -46.808  57.339 -59.211  1.00  0.00     0.001 A 
HETATM   28  C   UNL     1     -45.834  57.837 -58.337  1.00  0.00     0.011 A 
ENDBRANCH   7  22
BRANCH  10  29
HETATM   29  C   UNL     1     -42.202  56.594 -55.613  1.00  0.00     0.294 C 
HETATM   30  O   UNL     1     -41.500  57.027 -54.710  1.00  0.00    -0.259 OA
BRANCH  29  31
HETATM   31  O   UNL     1     -42.172  55.336 -56.096  1.00  0.00    -0.313 OA
BRANCH  31  32
HETATM   32  C   UNL     1     -42.889  54.335 -55.356  1.00  0.00     0.217 C 
BRANCH  32  33
HETATM   33  C   UNL     1     -42.014  53.746 -54.265  1.00  0.00    -0.034 A 
HETATM   34  C   UNL     1     -40.883  52.962 -54.554  1.00  0.00     0.009 A 
HETATM   35  C   UNL     1     -40.065  52.472 -53.533  1.00  0.00     0.001 A 
HETATM   36  C   UNL     1     -40.344  52.793 -52.208  1.00  0.00     0.000 A 
HETATM   37  C   UNL     1     -41.435  53.604 -51.907  1.00  0.00     0.001 A 
HETATM   38  C   UNL     1     -42.272  54.069 -52.926  1.00  0.00     0.009 A 
ENDBRANCH  32  33
ENDBRANCH  31  32
ENDBRANCH  29  31
ENDBRANCH  10  29
TORSDOF 10
ENDMDL
MODEL 7
REMARK VINA RESULT:      -6.9      3.694      5.214
REMARK  10 active torsions:
REMARK  status: ('A' for Active; 'I' for Inactive)
REMARK    1  A    between atoms: C_6  and  C_7 
REMARK    2  A    between atoms: C_7  and  C_8 
REMARK       I    between atoms: C_8  and  N_9 
REMARK    3  A    between atoms: N_9  and  C_10 
REMARK    4  A    between atoms: C_10  and  C_11 
REMARK    5  A    between atoms: C_11  and  N_12 
REMARK    6  A    between atoms: C_17  and  C_18 
REMARK    7  A    between atoms: C_27  and  C_28 
REMARK    8  A    between atoms: C_28  and  O_29 
REMARK    9  A    between atoms: O_29  and  C_30 
REMARK   10  A    between atoms: C_30  and  C_31 
ROOT
HETATM    1  C   UNL     1     -44.551  57.030 -53.570  1.00  0.00     0.071 C 
HETATM    2  C   UNL     1     -44.197  57.707 -54.875  1.00  0.00     0.048 C 
HETATM    3  N   UNL     1     -44.768  58.965 -55.001  1.00  0.00    -0.229 NA
HETATM    4  C   UNL     1     -44.228  59.765 -55.855  1.00  0.00     0.170 C 
HETATM    5  N   UNL     1     -43.222  59.325 -56.957  1.00  0.00    -0.318 N 
HETATM    6  C   UNL     1     -42.685  60.336 -57.551  1.00  0.00     0.011 C 
HETATM    7  C   UNL     1     -43.228  57.862 -57.163  1.00  0.00     0.168 C 
HETATM    8  S   UNL     1     -44.502  61.472 -55.907  1.00  0.00    -0.086 SA
HETATM    9  C   UNL     1     -43.036  61.687 -56.972  1.00  0.00     0.135 C 
HETATM   10  C   UNL     1     -43.298  57.249 -55.780  1.00  0.00     0.069 C 
ENDROOT
BRANCH   6  11
HETATM   11  C   UNL     1     -41.788  60.175 -58.740  1.00  0.00     0.156 C 
BRANCH  11  12
HETATM   12  C   UNL     1     -42.464  59.681 -60.001  1.00  0.00     0.223 C 
HETATM   13  N   UNL     1     -43.718  60.206 -60.194  1.00  0.00    -0.359 N 
HETATM   14  H   UNL     1     -44.104  60.791 -59.456  1.00  0.00     0.162 HD
HETATM   15  O   UNL     1     -41.939  58.872 -60.757  1.00  0.00    -0.273 OA
BRANCH  13  16
HETATM   16  C   UNL     1     -44.713  59.710 -61.147  1.00  0.00     0.150 C 
BRANCH  16  17
HETATM   17  C   UNL     1     -45.993  60.546 -61.335  1.00  0.00     0.253 C 
BRANCH  17  18
HETATM   18  N   UNL     1     -47.042  59.866 -62.190  1.00  0.00    -0.077 N 
HETATM   19  H   UNL     1     -46.643  58.957 -62.497  1.00  0.00     0.279 HD
HETATM   20  C   UNL     1     -48.323  59.552 -61.467  1.00  0.00     0.269 C 
HETATM   21  C   UNL     1     -47.318  60.670 -63.432  1.00  0.00     0.269 C 
ENDBRANCH  17  18
ENDBRANCH  16  17
ENDBRANCH  13  16
ENDBRANCH  11  12
ENDBRANCH   6  11
BRANCH   7  22
HETATM   22  C   UNL     1     -44.371  57.407 -58.105  1.00  0.00    -0.009 A 
HETATM   23  C   UNL     1     -44.153  56.448 -59.123  1.00  0.00     0.042 A 
HETATM   24 CL   UNL     1     -42.603  55.761 -59.438  1.00  0.00    -0.084 Cl
HETATM   25  C   UNL     1     -45.193  56.017 -59.958  1.00  0.00     0.024 A 
HETATM   26  C   UNL     1     -46.471  56.547 -59.827  1.00  0.00     0.002 A 
HETATM   27  C   UNL     1     -46.713  57.514 -58.864  1.00  0.00     0.001 A 
HETATM   28  C   UNL     1     -45.683  57.938 -58.017  1.00  0.00     0.011 A 
ENDBRANCH   7  22
BRANCH  10  29
HETATM   29  C   UNL     1     -42.080  56.463 -55.402  1.00  0.00     0.294 C 
HETATM   30  O   UNL     1     -41.311  56.857 -54.537  1.00  0.00    -0.259 OA
BRANCH  29  31
HETATM   31  O   UNL     1     -42.173  55.195 -55.851  1.00  0.00    -0.313 OA
BRANCH  31  32
HETATM   32  C   UNL     1     -42.812  54.242 -54.987  1.00  0.00     0.217 C 
BRANCH  32  33
HETATM   33  C   UNL     1     -41.812  53.648 -54.012  1.00  0.00    -0.034 A 
HETATM   34  C   UNL     1     -41.852  53.930 -52.635  1.00  0.00     0.009 A 
HETATM   35  C   UNL     1     -40.950  53.333 -51.750  1.00  0.00     0.001 A 
HETATM   36  C   UNL     1     -40.020  52.413 -52.225  1.00  0.00     0.000 A 
HETATM   37  C   UNL     1     -39.996  52.089 -53.580  1.00  0.00     0.001 A 
HETATM   38  C   UNL     1     -40.877  52.710 -54.470  1.00  0.00     0.009 A 
ENDBRANCH  32  33
ENDBRANCH  31  32
ENDBRANCH  29  31
ENDBRANCH  10  29
TORSDOF 10
ENDMDL
MODEL 8
REMARK VINA RESULT:      -6.7      3.031      6.136
REMARK  10 active torsions:
REMARK  status: ('A' for Active; 'I' for Inactive)
REMARK    1  A    between atoms: C_6  and  C_7 
REMARK    2  A    between atoms: C_7  and  C_8 
REMARK       I    between atoms: C_8  and  N_9 
REMARK    3  A    between atoms: N_9  and  C_10 
REMARK    4  A    between atoms: C_10  and  C_11 
REMARK    5  A    between atoms: C_11  and  N_12 
REMARK    6  A    between atoms: C_17  and  C_18 
REMARK    7  A    between atoms: C_27  and  C_28 
REMARK    8  A    between atoms: C_28  and  O_29 
REMARK    9  A    between atoms: O_29  and  C_30 
REMARK   10  A    between atoms: C_30  and  C_31 
ROOT
HETATM    1  C   UNL     1     -46.837  57.241 -59.131  1.00  0.00     0.071 C 
HETATM    2  C   UNL     1     -45.763  58.128 -58.542  1.00  0.00     0.048 C 
HETATM    3  N   UNL     1     -46.266  59.314 -58.028  1.00  0.00    -0.229 NA
HETATM    4  C   UNL     1     -45.527  59.937 -57.175  1.00  0.00     0.170 C 
HETATM    5  N   UNL     1     -44.019  59.639 -56.937  1.00  0.00    -0.318 N 
HETATM    6  C   UNL     1     -43.562  60.262 -55.903  1.00  0.00     0.011 C 
HETATM    7  C   UNL     1     -43.431  58.835 -58.028  1.00  0.00     0.168 C 
HETATM    8  S   UNL     1     -46.089  61.190 -56.123  1.00  0.00    -0.086 SA
HETATM    9  C   UNL     1     -44.594  61.013 -55.094  1.00  0.00     0.135 C 
HETATM   10  C   UNL     1     -44.465  57.781 -58.369  1.00  0.00     0.069 C 
ENDROOT
BRANCH   6  11
HETATM   11  C   UNL     1     -42.108  60.247 -55.546  1.00  0.00     0.156 C 
BRANCH  11  12
HETATM   12  C   UNL     1     -41.742  59.396 -54.349  1.00  0.00     0.223 C 
HETATM   13  N   UNL     1     -42.719  58.498 -53.993  1.00  0.00    -0.359 N 
HETATM   14  H   UNL     1     -43.604  58.543 -54.491  1.00  0.00     0.162 HD
HETATM   15  O   UNL     1     -40.680  59.522 -53.750  1.00  0.00    -0.273 OA
BRANCH  13  16
HETATM   16  C   UNL     1     -42.777  57.758 -52.732  1.00  0.00     0.150 C 
BRANCH  16  17
HETATM   17  C   UNL     1     -43.273  58.516 -51.486  1.00  0.00     0.253 C 
BRANCH  17  18
HETATM   18  N   UNL     1     -42.182  58.806 -50.477  1.00  0.00    -0.077 N 
HETATM   19  H   UNL     1     -42.580  58.622 -49.535  1.00  0.00     0.279 HD
HETATM   20  C   UNL     1     -40.966  57.930 -50.610  1.00  0.00     0.269 C 
HETATM   21  C   UNL     1     -41.794  60.260 -50.518  1.00  0.00     0.269 C 
ENDBRANCH  17  18
ENDBRANCH  16  17
ENDBRANCH  13  16
ENDBRANCH  11  12
ENDBRANCH   6  11
BRANCH   7  22
HETATM   22  C   UNL     1     -43.010  59.708 -59.238  1.00  0.00    -0.009 A 
HETATM   23  C   UNL     1     -42.195  59.191 -60.273  1.00  0.00     0.042 A 
HETATM   24 CL   UNL     1     -41.558  57.589 -60.246  1.00  0.00    -0.084 Cl
HETATM   25  C   UNL     1     -41.835  59.972 -61.380  1.00  0.00     0.024 A 
HETATM   26  C   UNL     1     -42.249  61.296 -61.476  1.00  0.00     0.002 A 
HETATM   27  C   UNL     1     -43.019  61.845 -60.463  1.00  0.00     0.001 A 
HETATM   28  C   UNL     1     -43.394  61.067 -59.362  1.00  0.00     0.011 A 
ENDBRANCH   7  22
BRANCH  10  29
HETATM   29  C   UNL     1     -44.021  56.380 -58.074  1.00  0.00     0.294 C 
HETATM   30  O   UNL     1     -43.905  55.548 -58.963  1.00  0.00    -0.259 OA
BRANCH  29  31
HETATM   31  O   UNL     1     -43.454  56.308 -56.853  1.00  0.00    -0.313 OA
BRANCH  31  32
HETATM   32  C   UNL     1     -42.170  55.671 -56.766  1.00  0.00     0.217 C 
BRANCH  32  33
HETATM   33  C   UNL     1     -42.011  54.965 -55.432  1.00  0.00    -0.034 A 
HETATM   34  C   UNL     1     -40.750  54.630 -54.907  1.00  0.00     0.009 A 
HETATM   35  C   UNL     1     -40.629  54.024 -53.654  1.00  0.00     0.001 A 
HETATM   36  C   UNL     1     -41.765  53.781 -52.889  1.00  0.00     0.000 A 
HETATM   37  C   UNL     1     -43.018  54.147 -53.375  1.00  0.00     0.001 A 
HETATM   38  C   UNL     1     -43.143  54.724 -54.642  1.00  0.00     0.009 A 
ENDBRANCH  32  33
ENDBRANCH  31  32
ENDBRANCH  29  31
ENDBRANCH  10  29
TORSDOF 10
ENDMDL
MODEL 9
REMARK VINA RESULT:      -6.4      3.628      5.472
REMARK  10 active torsions:
REMARK  status: ('A' for Active; 'I' for Inactive)
REMARK    1  A    between atoms: C_6  and  C_7 
REMARK    2  A    between atoms: C_7  and  C_8 
REMARK       I    between atoms: C_8  and  N_9 
REMARK    3  A    between atoms: N_9  and  C_10 
REMARK    4  A    between atoms: C_10  and  C_11 
REMARK    5  A    between atoms: C_11  and  N_12 
REMARK    6  A    between atoms: C_17  and  C_18 
REMARK    7  A    between atoms: C_27  and  C_28 
REMARK    8  A    between atoms: C_28  and  O_29 
REMARK    9  A    between atoms: O_29  and  C_30 
REMARK   10  A    between atoms: C_30  and  C_31 
ROOT
HETATM    1  C   UNL     1     -44.694  56.991 -53.906  1.00  0.00     0.071 C 
HETATM    2  C   UNL     1     -44.222  57.483 -55.257  1.00  0.00     0.048 C 
HETATM    3  N   UNL     1     -44.256  58.865 -55.368  1.00  0.00    -0.229 NA
HETATM    4  C   UNL     1     -43.524  59.391 -56.289  1.00  0.00     0.170 C 
HETATM    5  N   UNL     1     -42.883  58.596 -57.463  1.00  0.00    -0.318 N 
HETATM    6  C   UNL     1     -42.045  59.315 -58.131  1.00  0.00     0.011 C 
HETATM    7  C   UNL     1     -43.489  57.259 -57.625  1.00  0.00     0.168 C 
HETATM    8  S   UNL     1     -43.100  61.066 -56.366  1.00  0.00    -0.086 SA
HETATM    9  C   UNL     1     -41.775  60.689 -57.562  1.00  0.00     0.135 C 
HETATM   10  C   UNL     1     -43.669  56.712 -56.224  1.00  0.00     0.069 C 
ENDROOT
BRANCH   6  11
HETATM   11  C   UNL     1     -41.401  58.820 -59.389  1.00  0.00     0.156 C 
BRANCH  11  12
HETATM   12  C   UNL     1     -42.109  59.197 -60.673  1.00  0.00     0.223 C 
HETATM   13  N   UNL     1     -41.554  60.280 -61.309  1.00  0.00    -0.359 N 
HETATM   14  H   UNL     1     -40.798  60.769 -60.835  1.00  0.00     0.162 HD
HETATM   15  O   UNL     1     -43.097  58.598 -61.082  1.00  0.00    -0.273 OA
BRANCH  13  16
HETATM   16  C   UNL     1     -42.175  61.044 -62.392  1.00  0.00     0.150 C 
BRANCH  16  17
HETATM   17  C   UNL     1     -42.852  62.377 -62.022  1.00  0.00     0.253 C 
BRANCH  17  18
HETATM   18  N   UNL     1     -44.335  62.410 -62.328  1.00  0.00    -0.077 N 
HETATM   19  H   UNL     1     -44.508  63.255 -62.907  1.00  0.00     0.279 HD
HETATM   20  C   UNL     1     -44.831  61.233 -63.123  1.00  0.00     0.269 C 
HETATM   21  C   UNL     1     -45.135  62.568 -61.063  1.00  0.00     0.269 C 
ENDBRANCH  17  18
ENDBRANCH  16  17
ENDBRANCH  13  16
ENDBRANCH  11  12
ENDBRANCH   6  11
BRANCH   7  22
HETATM   22  C   UNL     1     -44.801  57.306 -58.449  1.00  0.00    -0.009 A 
HETATM   23  C   UNL     1     -45.164  56.251 -59.319  1.00  0.00     0.042 A 
HETATM   24 CL   UNL     1     -44.162  54.873 -59.583  1.00  0.00    -0.084 Cl
HETATM   25  C   UNL     1     -46.364  56.281 -60.045  1.00  0.00     0.024 A 
HETATM   26  C   UNL     1     -47.221  57.371 -59.949  1.00  0.00     0.002 A 
HETATM   27  C   UNL     1     -46.879  58.438 -59.132  1.00  0.00     0.001 A 
HETATM   28  C   UNL     1     -45.690  58.408 -58.394  1.00  0.00     0.011 A 
ENDBRANCH   7  22
BRANCH  10  29
HETATM   29  C   UNL     1     -42.834  55.503 -55.933  1.00  0.00     0.294 C 
HETATM   30  O   UNL     1     -43.240  54.375 -56.176  1.00  0.00    -0.259 OA
BRANCH  29  31
HETATM   31  O   UNL     1     -41.544  55.848 -55.746  1.00  0.00    -0.313 OA
BRANCH  31  32
HETATM   32  C   UNL     1     -41.076  55.914 -54.389  1.00  0.00     0.217 C 
BRANCH  32  33
HETATM   33  C   UNL     1     -40.729  54.530 -53.874  1.00  0.00    -0.034 A 
HETATM   34  C   UNL     1     -40.237  53.519 -54.717  1.00  0.00     0.009 A 
HETATM   35  C   UNL     1     -39.878  52.267 -54.210  1.00  0.00     0.001 A 
HETATM   36  C   UNL     1     -39.969  52.022 -52.843  1.00  0.00     0.000 A 
HETATM   37  C   UNL     1     -40.413  53.027 -51.988  1.00  0.00     0.001 A 
HETATM   38  C   UNL     1     -40.802  54.269 -52.499  1.00  0.00     0.009 A 
ENDBRANCH  32  33
ENDBRANCH  31  32
ENDBRANCH  29  31
ENDBRANCH  10  29
TORSDOF 10
ENDMDL
MODEL 10
REMARK VINA RESULT:      -6.4      3.018      4.844
REMARK  10 active torsions:
REMARK  status: ('A' for Active; 'I' for Inactive)
REMARK    1  A    between atoms: C_6  and  C_7 
REMARK    2  A    between atoms: C_7  and  C_8 
REMARK       I    between atoms: C_8  and  N_9 
REMARK    3  A    between atoms: N_9  and  C_10 
REMARK    4  A    between atoms: C_10  and  C_11 
REMARK    5  A    between atoms: C_11  and  N_12 
REMARK    6  A    between atoms: C_17  and  C_18 
REMARK    7  A    between atoms: C_27  and  C_28 
REMARK    8  A    between atoms: C_28  and  O_29 
REMARK    9  A    between atoms: O_29  and  C_30 
REMARK   10  A    between atoms: C_30  and  C_31 
ROOT
HETATM    1  C   UNL     1     -40.742  56.208 -50.132  1.00  0.00     0.071 C 
HETATM    2  C   UNL     1     -41.681  56.966 -51.044  1.00  0.00     0.048 C 
HETATM    3  N   UNL     1     -41.018  57.639 -52.059  1.00  0.00    -0.229 NA
HETATM    4  C   UNL     1     -41.718  57.971 -53.089  1.00  0.00     0.170 C 
HETATM    5  N   UNL     1     -43.273  57.965 -53.133  1.00  0.00    -0.318 N 
HETATM    6  C   UNL     1     -43.722  58.149 -54.329  1.00  0.00     0.011 C 
HETATM    7  C   UNL     1     -43.868  57.898 -51.782  1.00  0.00     0.168 C 
HETATM    8  S   UNL     1     -41.053  58.450 -54.612  1.00  0.00    -0.086 SA
HETATM    9  C   UNL     1     -42.671  58.191 -55.414  1.00  0.00     0.135 C 
HETATM   10  C   UNL     1     -43.033  56.896 -51.011  1.00  0.00     0.069 C 
ENDROOT
BRANCH   6  11
HETATM   11  C   UNL     1     -45.183  58.321 -54.610  1.00  0.00     0.156 C 
BRANCH  11  12
HETATM   12  C   UNL     1     -45.520  58.878 -55.977  1.00  0.00     0.223 C 
HETATM   13  N   UNL     1     -45.707  57.911 -56.934  1.00  0.00    -0.359 N 
HETATM   14  H   UNL     1     -45.525  56.945 -56.671  1.00  0.00     0.162 HD
HETATM   15  O   UNL     1     -45.592  60.081 -56.199  1.00  0.00    -0.273 OA
BRANCH  13  16
HETATM   16  C   UNL     1     -45.756  58.139 -58.379  1.00  0.00     0.150 C 
BRANCH  16  17
HETATM   17  C   UNL     1     -46.098  56.934 -59.276  1.00  0.00     0.253 C 
BRANCH  17  18
HETATM   18  N   UNL     1     -45.013  55.879 -59.314  1.00  0.00    -0.077 N 
HETATM   19  H   UNL     1     -45.005  55.415 -58.384  1.00  0.00     0.279 HD
HETATM   20  C   UNL     1     -45.237  54.796 -60.335  1.00  0.00     0.269 C 
HETATM   21  C   UNL     1     -43.662  56.513 -59.504  1.00  0.00     0.269 C 
ENDBRANCH  17  18
ENDBRANCH  16  17
ENDBRANCH  13  16
ENDBRANCH  11  12
ENDBRANCH   6  11
BRANCH   7  22
HETATM   22  C   UNL     1     -43.948  59.291 -51.107  1.00  0.00    -0.009 A 
HETATM   23  C   UNL     1     -45.189  59.860 -50.733  1.00  0.00     0.042 A 
HETATM   24 CL   UNL     1     -46.700  59.091 -51.049  1.00  0.00    -0.084 Cl
HETATM   25  C   UNL     1     -45.261  61.108 -50.099  1.00  0.00     0.024 A 
HETATM   26  C   UNL     1     -44.107  61.840 -49.846  1.00  0.00     0.002 A 
HETATM   27  C   UNL     1     -42.877  61.329 -50.231  1.00  0.00     0.001 A 
HETATM   28  C   UNL     1     -42.796  60.076 -50.851  1.00  0.00     0.011 A 
ENDBRANCH   7  22
BRANCH  10  29
HETATM   29  C   UNL     1     -43.784  55.661 -50.614  1.00  0.00     0.294 C 
HETATM   30  O   UNL     1     -44.947  55.715 -50.240  1.00  0.00    -0.259 OA
BRANCH  29  31
HETATM   31  O   UNL     1     -43.155  54.557 -51.065  1.00  0.00    -0.313 OA
BRANCH  31  32
HETATM   32  C   UNL     1     -43.539  54.069 -52.361  1.00  0.00     0.217 C 
BRANCH  32  33
HETATM   33  C   UNL     1     -42.342  54.027 -53.293  1.00  0.00    -0.034 A 
HETATM   34  C   UNL     1     -41.185  53.287 -52.993  1.00  0.00     0.009 A 
HETATM   35  C   UNL     1     -40.117  53.224 -53.891  1.00  0.00     0.001 A 
HETATM   36  C   UNL     1     -40.206  53.869 -55.121  1.00  0.00     0.000 A 
HETATM   37  C   UNL     1     -41.363  54.571 -55.452  1.00  0.00     0.001 A 
HETATM   38  C   UNL     1     -42.420  54.660 -54.541  1.00  0.00     0.009 A 
ENDBRANCH  32  33
ENDBRANCH  31  32
ENDBRANCH  29  31
ENDBRANCH  10  29
TORSDOF 10
ENDMDL
