MODEL 1
REMARK VINA RESULT:      -8.5      0.000      0.000
REMARK  8 active torsions:
REMARK  status: ('A' for Active; 'I' for Inactive)
REMARK    1  A    between atoms: C_3  and  C_4 
REMARK       I    between atoms: C_4  and  N_5 
REMARK    2  A    between atoms: N_5  and  C_6 
REMARK    3  A    between atoms: C_8  and  C_9 
REMARK    4  A    between atoms: C_9  and  C_10 
REMARK    5  A    between atoms: C_10  and  N_11 
REMARK    6  A    between atoms: C_21  and  O_22 
REMARK    7  A    between atoms: O_22  and  C_23 
REMARK    8  A    between atoms: C_23  and  C_24 
ROOT
HETATM    1  C   UNL     1     -40.743  53.514 -54.465  1.00  0.00     0.259 C 
HETATM    2  N   UNL     1     -42.099  53.788 -54.516  1.00  0.00    -0.323 N 
HETATM    3  O   UNL     1     -39.865  54.223 -54.948  1.00  0.00    -0.267 OA
HETATM    4  H   UNL     1     -42.704  53.085 -54.107  1.00  0.00     0.169 HD
ENDROOT
BRANCH   2   5
HETATM    5  C   UNL     1     -42.719  54.941 -55.050  1.00  0.00     0.035 A 
HETATM    6  C   UNL     1     -42.485  55.248 -56.401  1.00  0.00     0.036 A 
HETATM    7  C   UNL     1     -43.088  56.364 -57.020  1.00  0.00    -0.054 A 
HETATM    8  C   UNL     1     -43.954  57.159 -56.256  1.00  0.00     0.007 A 
HETATM    9  C   UNL     1     -44.179  56.870 -54.913  1.00  0.00     0.003 A 
HETATM   10  C   UNL     1     -43.563  55.772 -54.316  1.00  0.00     0.029 A 
BRANCH   7  11
HETATM   11  C   UNL     1     -42.846  56.613 -58.494  1.00  0.00     0.066 C 
BRANCH  11  12
HETATM   12  C   UNL     1     -43.491  55.584 -59.433  1.00  0.00     0.239 C 
BRANCH  12  13
HETATM   13  N   UNL     1     -44.493  56.229 -60.371  1.00  0.00    -0.071 N 
HETATM   14  H   UNL     1     -44.007  56.447 -61.251  1.00  0.00     0.279 HD
HETATM   15  C   UNL     1     -45.038  57.539 -59.820  1.00  0.00     0.235 C 
HETATM   16  C   UNL     1     -46.443  57.196 -59.373  1.00  0.00     0.029 C 
HETATM   17  C   UNL     1     -46.906  56.242 -60.454  1.00  0.00     0.029 C 
HETATM   18  C   UNL     1     -45.699  55.351 -60.684  1.00  0.00     0.235 C 
ENDBRANCH  12  13
ENDBRANCH  11  12
ENDBRANCH   7  11
ENDBRANCH   2   5
BRANCH   1  19
HETATM   19  C   UNL     1     -40.318  52.256 -53.757  1.00  0.00     0.065 A 
HETATM   20  C   UNL     1     -40.372  51.071 -54.518  1.00  0.00     0.020 A 
HETATM   21  C   UNL     1     -40.001  49.841 -53.976  1.00  0.00     0.001 A 
HETATM   22  C   UNL     1     -39.579  49.772 -52.655  1.00  0.00     0.003 A 
HETATM   23  C   UNL     1     -39.521  50.933 -51.884  1.00  0.00     0.038 A 
HETATM   24  C   UNL     1     -39.858  52.183 -52.429  1.00  0.00     0.084 A 
BRANCH  24  25
HETATM   25  O   UNL     1     -39.839  53.312 -51.649  1.00  0.00    -0.348 OA
BRANCH  25  26
HETATM   26  C   UNL     1     -40.378  53.154 -50.328  1.00  0.00     0.207 C 
BRANCH  26  27
HETATM   27  C   UNL     1     -41.594  54.074 -50.140  1.00  0.00     0.145 C 
HETATM   28  O   UNL     1     -41.931  54.661 -51.411  1.00  0.00    -0.384 OA
HETATM   29  C   UNL     1     -41.656  56.071 -51.359  1.00  0.00     0.168 C 
HETATM   30  C   UNL     1     -40.842  56.315 -50.108  1.00  0.00     0.029 C 
HETATM   31  C   UNL     1     -41.357  55.237 -49.187  1.00  0.00     0.036 C 
ENDBRANCH  26  27
ENDBRANCH  25  26
ENDBRANCH  24  25
ENDBRANCH   1  19
TORSDOF 8
ENDMDL
MODEL 2
REMARK VINA RESULT:      -8.4      2.165      3.983
REMARK  8 active torsions:
REMARK  status: ('A' for Active; 'I' for Inactive)
REMARK    1  A    between atoms: C_3  and  C_4 
REMARK       I    between atoms: C_4  and  N_5 
REMARK    2  A    between atoms: N_5  and  C_6 
REMARK    3  A    between atoms: C_8  and  C_9 
REMARK    4  A    between atoms: C_9  and  C_10 
REMARK    5  A    between atoms: C_10  and  N_11 
REMARK    6  A    between atoms: C_21  and  O_22 
REMARK    7  A    between atoms: O_22  and  C_23 
REMARK    8  A    between atoms: C_23  and  C_24 
ROOT
HETATM    1  C   UNL     1     -40.707  53.393 -54.502  1.00  0.00     0.259 C 
HETATM    2  N   UNL     1     -42.052  53.719 -54.491  1.00  0.00    -0.323 N 
HETATM    3  O   UNL     1     -39.836  54.027 -55.091  1.00  0.00    -0.267 OA
HETATM    4  H   UNL     1     -42.655  53.074 -53.993  1.00  0.00     0.169 HD
ENDROOT
BRANCH   2   5
HETATM    5  C   UNL     1     -42.662  54.854 -55.072  1.00  0.00     0.035 A 
HETATM    6  C   UNL     1     -43.383  55.717 -54.230  1.00  0.00     0.036 A 
HETATM    7  C   UNL     1     -43.999  56.887 -54.724  1.00  0.00    -0.054 A 
HETATM    8  C   UNL     1     -43.856  57.188 -56.085  1.00  0.00     0.007 A 
HETATM    9  C   UNL     1     -43.155  56.331 -56.929  1.00  0.00     0.003 A 
HETATM   10  C   UNL     1     -42.567  55.172 -56.426  1.00  0.00     0.029 A 
BRANCH   7  11
HETATM   11  C   UNL     1     -44.714  57.810 -53.760  1.00  0.00     0.066 C 
BRANCH  11  12
HETATM   12  C   UNL     1     -44.725  59.288 -54.175  1.00  0.00     0.239 C 
BRANCH  12  13
HETATM   13  N   UNL     1     -43.626  60.074 -53.485  1.00  0.00    -0.071 N 
HETATM   14  H   UNL     1     -44.006  60.996 -53.234  1.00  0.00     0.279 HD
HETATM   15  C   UNL     1     -42.429  60.312 -54.396  1.00  0.00     0.235 C 
HETATM   16  C   UNL     1     -41.375  59.359 -53.877  1.00  0.00     0.029 C 
HETATM   17  C   UNL     1     -41.579  59.428 -52.379  1.00  0.00     0.029 C 
HETATM   18  C   UNL     1     -43.089  59.407 -52.224  1.00  0.00     0.235 C 
ENDBRANCH  12  13
ENDBRANCH  11  12
ENDBRANCH   7  11
ENDBRANCH   2   5
BRANCH   1  19
HETATM   19  C   UNL     1     -40.284  52.173 -53.729  1.00  0.00     0.065 A 
HETATM   20  C   UNL     1     -40.313  50.953 -54.434  1.00  0.00     0.020 A 
HETATM   21  C   UNL     1     -39.941  49.753 -53.827  1.00  0.00     0.001 A 
HETATM   22  C   UNL     1     -39.545  49.750 -52.497  1.00  0.00     0.003 A 
HETATM   23  C   UNL     1     -39.512  50.947 -51.780  1.00  0.00     0.038 A 
HETATM   24  C   UNL     1     -39.850  52.167 -52.390  1.00  0.00     0.084 A 
BRANCH  24  25
HETATM   25  O   UNL     1     -39.857  53.332 -51.664  1.00  0.00    -0.348 OA
BRANCH  25  26
HETATM   26  C   UNL     1     -40.218  53.191 -50.282  1.00  0.00     0.207 C 
BRANCH  26  27
HETATM   27  C   UNL     1     -41.500  53.985 -49.988  1.00  0.00     0.145 C 
HETATM   28  O   UNL     1     -42.017  54.504 -51.227  1.00  0.00    -0.384 OA
HETATM   29  C   UNL     1     -41.886  55.936 -51.221  1.00  0.00     0.168 C 
HETATM   30  C   UNL     1     -40.986  56.291 -50.060  1.00  0.00     0.029 C 
HETATM   31  C   UNL     1     -41.294  55.188 -49.078  1.00  0.00     0.036 C 
ENDBRANCH  26  27
ENDBRANCH  25  26
ENDBRANCH  24  25
ENDBRANCH   1  19
TORSDOF 8
ENDMDL
MODEL 3
REMARK VINA RESULT:      -8.1      2.958      4.585
REMARK  8 active torsions:
REMARK  status: ('A' for Active; 'I' for Inactive)
REMARK    1  A    between atoms: C_3  and  C_4 
REMARK       I    between atoms: C_4  and  N_5 
REMARK    2  A    between atoms: N_5  and  C_6 
REMARK    3  A    between atoms: C_8  and  C_9 
REMARK    4  A    between atoms: C_9  and  C_10 
REMARK    5  A    between atoms: C_10  and  N_11 
REMARK    6  A    between atoms: C_21  and  O_22 
REMARK    7  A    between atoms: O_22  and  C_23 
REMARK    8  A    between atoms: C_23  and  C_24 
ROOT
HETATM    1  C   UNL     1     -41.288  53.562 -53.427  1.00  0.00     0.259 C 
HETATM    2  N   UNL     1     -40.746  54.508 -54.281  1.00  0.00    -0.323 N 
HETATM    3  O   UNL     1     -42.282  53.735 -52.729  1.00  0.00    -0.267 OA
HETATM    4  H   UNL     1     -39.897  54.231 -54.761  1.00  0.00     0.169 HD
ENDROOT
BRANCH   2   5
HETATM    5  C   UNL     1     -41.259  55.794 -54.568  1.00  0.00     0.035 A 
HETATM    6  C   UNL     1     -41.081  56.803 -53.607  1.00  0.00     0.036 A 
HETATM    7  C   UNL     1     -41.536  58.120 -53.826  1.00  0.00    -0.054 A 
HETATM    8  C   UNL     1     -42.158  58.413 -55.048  1.00  0.00     0.007 A 
HETATM    9  C   UNL     1     -42.352  57.415 -55.999  1.00  0.00     0.003 A 
HETATM   10  C   UNL     1     -41.908  56.117 -55.759  1.00  0.00     0.029 A 
BRANCH   7  11
HETATM   11  C   UNL     1     -41.265  59.181 -52.780  1.00  0.00     0.066 C 
BRANCH  11  12
HETATM   12  C   UNL     1     -41.657  58.787 -51.349  1.00  0.00     0.239 C 
BRANCH  12  13
HETATM   13  N   UNL     1     -43.112  59.102 -51.058  1.00  0.00    -0.071 N 
HETATM   14  H   UNL     1     -43.172  59.457 -50.093  1.00  0.00     0.279 HD
HETATM   15  C   UNL     1     -43.997  57.867 -51.139  1.00  0.00     0.235 C 
HETATM   16  C   UNL     1     -44.749  58.036 -52.442  1.00  0.00     0.029 C 
HETATM   17  C   UNL     1     -45.025  59.524 -52.470  1.00  0.00     0.029 C 
HETATM   18  C   UNL     1     -43.719  60.137 -51.997  1.00  0.00     0.235 C 
ENDBRANCH  12  13
ENDBRANCH  11  12
ENDBRANCH   7  11
ENDBRANCH   2   5
BRANCH   1  19
HETATM   19  C   UNL     1     -40.607  52.222 -53.359  1.00  0.00     0.065 A 
HETATM   20  C   UNL     1     -40.805  51.371 -54.465  1.00  0.00     0.020 A 
HETATM   21  C   UNL     1     -40.226  50.104 -54.521  1.00  0.00     0.001 A 
HETATM   22  C   UNL     1     -39.444  49.659 -53.463  1.00  0.00     0.003 A 
HETATM   23  C   UNL     1     -39.238  50.484 -52.358  1.00  0.00     0.038 A 
HETATM   24  C   UNL     1     -39.788  51.776 -52.305  1.00  0.00     0.084 A 
BRANCH  24  25
HETATM   25  O   UNL     1     -39.615  52.563 -51.194  1.00  0.00    -0.348 OA
BRANCH  25  26
HETATM   26  C   UNL     1     -40.510  52.292 -50.105  1.00  0.00     0.207 C 
BRANCH  26  27
HETATM   27  C   UNL     1     -40.465  53.440 -49.085  1.00  0.00     0.145 C 
HETATM   28  O   UNL     1     -41.779  54.019 -48.982  1.00  0.00    -0.384 OA
HETATM   29  C   UNL     1     -41.743  55.349 -49.527  1.00  0.00     0.168 C 
HETATM   30  C   UNL     1     -40.429  55.489 -50.263  1.00  0.00     0.029 C 
HETATM   31  C   UNL     1     -39.528  54.578 -49.466  1.00  0.00     0.036 C 
ENDBRANCH  26  27
ENDBRANCH  25  26
ENDBRANCH  24  25
ENDBRANCH   1  19
TORSDOF 8
ENDMDL
MODEL 4
REMARK VINA RESULT:      -8.0      1.737      2.402
REMARK  8 active torsions:
REMARK  status: ('A' for Active; 'I' for Inactive)
REMARK    1  A    between atoms: C_3  and  C_4 
REMARK       I    between atoms: C_4  and  N_5 
REMARK    2  A    between atoms: N_5  and  C_6 
REMARK    3  A    between atoms: C_8  and  C_9 
REMARK    4  A    between atoms: C_9  and  C_10 
REMARK    5  A    between atoms: C_10  and  N_11 
REMARK    6  A    between atoms: C_21  and  O_22 
REMARK    7  A    between atoms: O_22  and  C_23 
REMARK    8  A    between atoms: C_23  and  C_24 
ROOT
HETATM    1  C   UNL     1     -42.605  54.436 -54.544  1.00  0.00     0.259 C 
HETATM    2  N   UNL     1     -42.648  55.816 -54.448  1.00  0.00    -0.323 N 
HETATM    3  O   UNL     1     -43.304  53.763 -55.295  1.00  0.00    -0.267 OA
HETATM    4  H   UNL     1     -42.037  56.227 -53.751  1.00  0.00     0.169 HD
ENDROOT
BRANCH   2   5
HETATM    5  C   UNL     1     -43.427  56.704 -55.226  1.00  0.00     0.035 A 
HETATM    6  C   UNL     1     -42.982  57.005 -56.524  1.00  0.00     0.036 A 
HETATM    7  C   UNL     1     -43.714  57.859 -57.376  1.00  0.00    -0.054 A 
HETATM    8  C   UNL     1     -44.922  58.390 -56.905  1.00  0.00     0.007 A 
HETATM    9  C   UNL     1     -45.362  58.109 -55.614  1.00  0.00     0.003 A 
HETATM   10  C   UNL     1     -44.618  57.276 -54.782  1.00  0.00     0.029 A 
BRANCH   7  11
HETATM   11  C   UNL     1     -43.217  58.101 -58.786  1.00  0.00     0.066 C 
BRANCH  11  12
HETATM   12  C   UNL     1     -44.186  58.885 -59.682  1.00  0.00     0.239 C 
BRANCH  12  13
HETATM   13  N   UNL     1     -44.940  57.972 -60.630  1.00  0.00    -0.071 N 
HETATM   14  H   UNL     1     -44.763  58.296 -61.590  1.00  0.00     0.279 HD
HETATM   15  C   UNL     1     -46.445  58.026 -60.406  1.00  0.00     0.235 C 
HETATM   16  C   UNL     1     -46.762  56.723 -59.706  1.00  0.00     0.029 C 
HETATM   17  C   UNL     1     -45.843  55.744 -60.406  1.00  0.00     0.029 C 
HETATM   18  C   UNL     1     -44.536  56.506 -60.526  1.00  0.00     0.235 C 
ENDBRANCH  12  13
ENDBRANCH  11  12
ENDBRANCH   7  11
ENDBRANCH   2   5
BRANCH   1  19
HETATM   19  C   UNL     1     -41.621  53.712 -53.666  1.00  0.00     0.065 A 
HETATM   20  C   UNL     1     -40.939  52.631 -54.261  1.00  0.00     0.020 A 
HETATM   21  C   UNL     1     -40.001  51.883 -53.551  1.00  0.00     0.001 A 
HETATM   22  C   UNL     1     -39.734  52.196 -52.225  1.00  0.00     0.003 A 
HETATM   23  C   UNL     1     -40.400  53.259 -51.616  1.00  0.00     0.038 A 
HETATM   24  C   UNL     1     -41.322  54.042 -52.331  1.00  0.00     0.084 A 
BRANCH  24  25
HETATM   25  O   UNL     1     -42.004  55.059 -51.710  1.00  0.00    -0.348 OA
BRANCH  25  26
HETATM   26  C   UNL     1     -41.185  56.012 -51.015  1.00  0.00     0.207 C 
BRANCH  26  27
HETATM   27  C   UNL     1     -41.672  57.439 -51.307  1.00  0.00     0.145 C 
HETATM   28  O   UNL     1     -41.277  57.799 -52.644  1.00  0.00    -0.384 OA
HETATM   29  C   UNL     1     -40.283  58.834 -52.571  1.00  0.00     0.168 C 
HETATM   30  C   UNL     1     -39.831  58.912 -51.131  1.00  0.00     0.029 C 
HETATM   31  C   UNL     1     -41.080  58.501 -50.390  1.00  0.00     0.036 C 
ENDBRANCH  26  27
ENDBRANCH  25  26
ENDBRANCH  24  25
ENDBRANCH   1  19
TORSDOF 8
ENDMDL
MODEL 5
REMARK VINA RESULT:      -7.9      1.241      1.877
REMARK  8 active torsions:
REMARK  status: ('A' for Active; 'I' for Inactive)
REMARK    1  A    between atoms: C_3  and  C_4 
REMARK       I    between atoms: C_4  and  N_5 
REMARK    2  A    between atoms: N_5  and  C_6 
REMARK    3  A    between atoms: C_8  and  C_9 
REMARK    4  A    between atoms: C_9  and  C_10 
REMARK    5  A    between atoms: C_10  and  N_11 
REMARK    6  A    between atoms: C_21  and  O_22 
REMARK    7  A    between atoms: O_22  and  C_23 
REMARK    8  A    between atoms: C_23  and  C_24 
ROOT
HETATM    1  C   UNL     1     -40.632  53.508 -54.637  1.00  0.00     0.259 C 
HETATM    2  N   UNL     1     -41.928  53.988 -54.560  1.00  0.00    -0.323 N 
HETATM    3  O   UNL     1     -39.764  53.946 -55.386  1.00  0.00    -0.267 OA
HETATM    4  H   UNL     1     -42.542  53.495 -53.922  1.00  0.00     0.169 HD
ENDROOT
BRANCH   2   5
HETATM    5  C   UNL     1     -42.471  55.096 -55.251  1.00  0.00     0.035 A 
HETATM    6  C   UNL     1     -42.689  54.967 -56.633  1.00  0.00     0.036 A 
HETATM    7  C   UNL     1     -43.254  56.014 -57.392  1.00  0.00    -0.054 A 
HETATM    8  C   UNL     1     -43.620  57.193 -56.728  1.00  0.00     0.007 A 
HETATM    9  C   UNL     1     -43.394  57.334 -55.362  1.00  0.00     0.003 A 
HETATM   10  C   UNL     1     -42.821  56.295 -54.631  1.00  0.00     0.029 A 
BRANCH   7  11
HETATM   11  C   UNL     1     -43.521  55.798 -58.867  1.00  0.00     0.066 C 
BRANCH  11  12
HETATM   12  C   UNL     1     -44.547  56.761 -59.482  1.00  0.00     0.239 C 
BRANCH  12  13
HETATM   13  N   UNL     1     -43.917  57.662 -60.527  1.00  0.00    -0.071 N 
HETATM   14  H   UNL     1     -44.117  57.259 -61.453  1.00  0.00     0.279 HD
HETATM   15  C   UNL     1     -42.403  57.736 -60.386  1.00  0.00     0.235 C 
HETATM   16  C   UNL     1     -42.154  59.105 -59.791  1.00  0.00     0.029 C 
HETATM   17  C   UNL     1     -43.182  59.962 -60.499  1.00  0.00     0.029 C 
HETATM   18  C   UNL     1     -44.430  59.096 -60.496  1.00  0.00     0.235 C 
ENDBRANCH  12  13
ENDBRANCH  11  12
ENDBRANCH   7  11
ENDBRANCH   2   5
BRANCH   1  19
HETATM   19  C   UNL     1     -40.263  52.367 -53.728  1.00  0.00     0.065 A 
HETATM   20  C   UNL     1     -40.190  51.094 -54.331  1.00  0.00     0.020 A 
HETATM   21  C   UNL     1     -39.856  49.958 -53.595  1.00  0.00     0.001 A 
HETATM   22  C   UNL     1     -39.598  50.072 -52.236  1.00  0.00     0.003 A 
HETATM   23  C   UNL     1     -39.667  51.321 -51.619  1.00  0.00     0.038 A 
HETATM   24  C   UNL     1     -39.969  52.478 -52.356  1.00  0.00     0.084 A 
BRANCH  24  25
HETATM   25  O   UNL     1     -40.077  53.696 -51.732  1.00  0.00    -0.348 OA
BRANCH  25  26
HETATM   26  C   UNL     1     -39.945  53.665 -50.303  1.00  0.00     0.207 C 
BRANCH  26  27
HETATM   27  C   UNL     1     -40.746  54.815 -49.674  1.00  0.00     0.145 C 
HETATM   28  O   UNL     1     -42.023  54.309 -49.241  1.00  0.00    -0.384 OA
HETATM   29  C   UNL     1     -43.053  54.885 -50.062  1.00  0.00     0.168 C 
HETATM   30  C   UNL     1     -42.365  55.545 -51.235  1.00  0.00     0.029 C 
HETATM   31  C   UNL     1     -41.048  55.962 -50.629  1.00  0.00     0.036 C 
ENDBRANCH  26  27
ENDBRANCH  25  26
ENDBRANCH  24  25
ENDBRANCH   1  19
TORSDOF 8
ENDMDL
MODEL 6
REMARK VINA RESULT:      -7.9      2.559      7.602
REMARK  8 active torsions:
REMARK  status: ('A' for Active; 'I' for Inactive)
REMARK    1  A    between atoms: C_3  and  C_4 
REMARK       I    between atoms: C_4  and  N_5 
REMARK    2  A    between atoms: N_5  and  C_6 
REMARK    3  A    between atoms: C_8  and  C_9 
REMARK    4  A    between atoms: C_9  and  C_10 
REMARK    5  A    between atoms: C_10  and  N_11 
REMARK    6  A    between atoms: C_21  and  O_22 
REMARK    7  A    between atoms: O_22  and  C_23 
REMARK    8  A    between atoms: C_23  and  C_24 
ROOT
HETATM    1  C   UNL     1     -42.729  55.055 -56.599  1.00  0.00     0.259 C 
HETATM    2  N   UNL     1     -41.553  55.279 -55.905  1.00  0.00    -0.323 N 
HETATM    3  O   UNL     1     -43.578  54.224 -56.291  1.00  0.00    -0.267 OA
HETATM    4  H   UNL     1     -40.931  55.972 -56.306  1.00  0.00     0.169 HD
ENDROOT
BRANCH   2   5
HETATM    5  C   UNL     1     -41.144  54.669 -54.696  1.00  0.00     0.035 A 
HETATM    6  C   UNL     1     -41.313  55.393 -53.504  1.00  0.00     0.036 A 
HETATM    7  C   UNL     1     -40.957  54.847 -52.252  1.00  0.00    -0.054 A 
HETATM    8  C   UNL     1     -40.446  53.542 -52.218  1.00  0.00     0.007 A 
HETATM    9  C   UNL     1     -40.261  52.825 -53.396  1.00  0.00     0.003 A 
HETATM   10  C   UNL     1     -40.604  53.386 -54.625  1.00  0.00     0.029 A 
BRANCH   7  11
HETATM   11  C   UNL     1     -41.216  55.649 -50.995  1.00  0.00     0.066 C 
BRANCH  11  12
HETATM   12  C   UNL     1     -42.367  56.660 -51.104  1.00  0.00     0.239 C 
BRANCH  12  13
HETATM   13  N   UNL     1     -41.882  58.015 -51.584  1.00  0.00    -0.071 N 
HETATM   14  H   UNL     1     -41.775  57.968 -52.607  1.00  0.00     0.279 HD
HETATM   15  C   UNL     1     -40.521  58.378 -51.006  1.00  0.00     0.235 C 
HETATM   16  C   UNL     1     -40.833  59.427 -49.961  1.00  0.00     0.029 C 
HETATM   17  C   UNL     1     -41.937  60.227 -50.618  1.00  0.00     0.029 C 
HETATM   18  C   UNL     1     -42.823  59.164 -51.243  1.00  0.00     0.235 C 
ENDBRANCH  12  13
ENDBRANCH  11  12
ENDBRANCH   7  11
ENDBRANCH   2   5
BRANCH   1  19
HETATM   19  C   UNL     1     -42.984  55.899 -57.818  1.00  0.00     0.065 A 
HETATM   20  C   UNL     1     -43.565  55.238 -58.919  1.00  0.00     0.020 A 
HETATM   21  C   UNL     1     -43.853  55.912 -60.105  1.00  0.00     0.001 A 
HETATM   22  C   UNL     1     -43.552  57.263 -60.217  1.00  0.00     0.003 A 
HETATM   23  C   UNL     1     -42.974  57.936 -59.140  1.00  0.00     0.038 A 
HETATM   24  C   UNL     1     -42.712  57.276 -57.928  1.00  0.00     0.084 A 
BRANCH  24  25
HETATM   25  O   UNL     1     -42.103  57.937 -56.891  1.00  0.00    -0.348 OA
BRANCH  25  26
HETATM   26  C   UNL     1     -42.648  59.229 -56.583  1.00  0.00     0.207 C 
BRANCH  26  27
HETATM   27  C   UNL     1     -43.141  59.261 -55.128  1.00  0.00     0.145 C 
HETATM   28  O   UNL     1     -43.007  57.943 -54.565  1.00  0.00    -0.384 OA
HETATM   29  C   UNL     1     -44.318  57.403 -54.330  1.00  0.00     0.168 C 
HETATM   30  C   UNL     1     -45.300  58.302 -55.046  1.00  0.00     0.029 C 
HETATM   31  C   UNL     1     -44.607  59.640 -54.974  1.00  0.00     0.036 C 
ENDBRANCH  26  27
ENDBRANCH  25  26
ENDBRANCH  24  25
ENDBRANCH   1  19
TORSDOF 8
ENDMDL
MODEL 7
REMARK VINA RESULT:      -7.7      2.556      7.424
REMARK  8 active torsions:
REMARK  status: ('A' for Active; 'I' for Inactive)
REMARK    1  A    between atoms: C_3  and  C_4 
REMARK       I    between atoms: C_4  and  N_5 
REMARK    2  A    between atoms: N_5  and  C_6 
REMARK    3  A    between atoms: C_8  and  C_9 
REMARK    4  A    between atoms: C_9  and  C_10 
REMARK    5  A    between atoms: C_10  and  N_11 
REMARK    6  A    between atoms: C_21  and  O_22 
REMARK    7  A    between atoms: O_22  and  C_23 
REMARK    8  A    between atoms: C_23  and  C_24 
ROOT
HETATM    1  C   UNL     1     -42.300  54.698 -55.634  1.00  0.00     0.259 C 
HETATM    2  N   UNL     1     -40.995  54.496 -55.221  1.00  0.00    -0.323 N 
HETATM    3  O   UNL     1     -43.257  54.007 -55.298  1.00  0.00    -0.267 OA
HETATM    4  H   UNL     1     -40.307  55.126 -55.617  1.00  0.00     0.169 HD
ENDROOT
BRANCH   2   5
HETATM    5  C   UNL     1     -40.529  53.531 -54.298  1.00  0.00     0.035 A 
HETATM    6  C   UNL     1     -40.635  53.825 -52.929  1.00  0.00     0.036 A 
HETATM    7  C   UNL     1     -40.220  52.906 -51.942  1.00  0.00    -0.054 A 
HETATM    8  C   UNL     1     -39.715  51.667 -52.359  1.00  0.00     0.007 A 
HETATM    9  C   UNL     1     -39.593  51.373 -53.714  1.00  0.00     0.003 A 
HETATM   10  C   UNL     1     -39.994  52.300 -54.675  1.00  0.00     0.029 A 
BRANCH   7  11
HETATM   11  C   UNL     1     -40.412  53.252 -50.480  1.00  0.00     0.066 C 
BRANCH  11  12
HETATM   12  C   UNL     1     -40.151  54.724 -50.129  1.00  0.00     0.239 C 
BRANCH  12  13
HETATM   13  N   UNL     1     -41.428  55.445 -49.741  1.00  0.00    -0.071 N 
HETATM   14  H   UNL     1     -41.368  55.676 -48.740  1.00  0.00     0.279 HD
HETATM   15  C   UNL     1     -42.661  54.574 -49.930  1.00  0.00     0.235 C 
HETATM   16  C   UNL     1     -43.323  55.134 -51.171  1.00  0.00     0.029 C 
HETATM   17  C   UNL     1     -43.109  56.624 -51.011  1.00  0.00     0.029 C 
HETATM   18  C   UNL     1     -41.674  56.728 -50.526  1.00  0.00     0.235 C 
ENDBRANCH  12  13
ENDBRANCH  11  12
ENDBRANCH   7  11
ENDBRANCH   2   5
BRANCH   1  19
HETATM   19  C   UNL     1     -42.562  55.857 -56.557  1.00  0.00     0.065 A 
HETATM   20  C   UNL     1     -43.046  55.529 -57.840  1.00  0.00     0.020 A 
HETATM   21  C   UNL     1     -43.329  56.514 -58.785  1.00  0.00     0.001 A 
HETATM   22  C   UNL     1     -43.121  57.850 -58.468  1.00  0.00     0.003 A 
HETATM   23  C   UNL     1     -42.640  58.196 -57.205  1.00  0.00     0.038 A 
HETATM   24  C   UNL     1     -42.384  57.215 -56.233  1.00  0.00     0.084 A 
BRANCH  24  25
HETATM   25  O   UNL     1     -41.870  57.563 -55.009  1.00  0.00    -0.348 OA
BRANCH  25  26
HETATM   26  C   UNL     1     -42.680  58.464 -54.237  1.00  0.00     0.207 C 
BRANCH  26  27
HETATM   27  C   UNL     1     -41.851  59.685 -53.811  1.00  0.00     0.145 C 
HETATM   28  O   UNL     1     -41.273  59.424 -52.519  1.00  0.00    -0.384 OA
HETATM   29  C   UNL     1     -41.883  60.295 -51.552  1.00  0.00     0.168 C 
HETATM   30  C   UNL     1     -43.092  60.914 -52.217  1.00  0.00     0.029 C 
HETATM   31  C   UNL     1     -42.659  60.967 -53.662  1.00  0.00     0.036 C 
ENDBRANCH  26  27
ENDBRANCH  25  26
ENDBRANCH  24  25
ENDBRANCH   1  19
TORSDOF 8
ENDMDL
MODEL 8
REMARK VINA RESULT:      -7.6      2.935      8.275
REMARK  8 active torsions:
REMARK  status: ('A' for Active; 'I' for Inactive)
REMARK    1  A    between atoms: C_3  and  C_4 
REMARK       I    between atoms: C_4  and  N_5 
REMARK    2  A    between atoms: N_5  and  C_6 
REMARK    3  A    between atoms: C_8  and  C_9 
REMARK    4  A    between atoms: C_9  and  C_10 
REMARK    5  A    between atoms: C_10  and  N_11 
REMARK    6  A    between atoms: C_21  and  O_22 
REMARK    7  A    between atoms: O_22  and  C_23 
REMARK    8  A    between atoms: C_23  and  C_24 
ROOT
HETATM    1  C   UNL     1     -42.665  55.939 -56.594  1.00  0.00     0.259 C 
HETATM    2  N   UNL     1     -42.792  54.689 -56.014  1.00  0.00    -0.323 N 
HETATM    3  O   UNL     1     -41.944  56.838 -56.171  1.00  0.00    -0.267 OA
HETATM    4  H   UNL     1     -43.459  54.066 -56.456  1.00  0.00     0.169 HD
ENDROOT
BRANCH   2   5
HETATM    5  C   UNL     1     -42.082  54.186 -54.900  1.00  0.00     0.035 A 
HETATM    6  C   UNL     1     -42.638  54.376 -53.624  1.00  0.00     0.036 A 
HETATM    7  C   UNL     1     -42.009  53.882 -52.462  1.00  0.00    -0.054 A 
HETATM    8  C   UNL     1     -40.812  53.167 -52.609  1.00  0.00     0.007 A 
HETATM    9  C   UNL     1     -40.246  52.988 -53.868  1.00  0.00     0.003 A 
HETATM   10  C   UNL     1     -40.875  53.496 -55.002  1.00  0.00     0.029 A 
BRANCH   7  11
HETATM   11  C   UNL     1     -42.684  54.065 -51.119  1.00  0.00     0.066 C 
BRANCH  11  12
HETATM   12  C   UNL     1     -43.659  55.249 -51.047  1.00  0.00     0.239 C 
BRANCH  12  13
HETATM   13  N   UNL     1     -42.982  56.505 -50.533  1.00  0.00    -0.071 N 
HETATM   14  H   UNL     1     -43.550  56.877 -49.759  1.00  0.00     0.279 HD
HETATM   15  C   UNL     1     -42.901  57.593 -51.596  1.00  0.00     0.235 C 
HETATM   16  C   UNL     1     -41.448  57.591 -52.016  1.00  0.00     0.029 C 
HETATM   17  C   UNL     1     -40.728  57.354 -50.706  1.00  0.00     0.029 C 
HETATM   18  C   UNL     1     -41.561  56.278 -50.032  1.00  0.00     0.235 C 
ENDBRANCH  12  13
ENDBRANCH  11  12
ENDBRANCH   7  11
ENDBRANCH   2   5
BRANCH   1  19
HETATM   19  C   UNL     1     -43.467  56.209 -57.838  1.00  0.00     0.065 A 
HETATM   20  C   UNL     1     -43.507  55.167 -58.786  1.00  0.00     0.020 A 
HETATM   21  C   UNL     1     -44.219  55.295 -59.979  1.00  0.00     0.001 A 
HETATM   22  C   UNL     1     -44.895  56.477 -60.251  1.00  0.00     0.003 A 
HETATM   23  C   UNL     1     -44.866  57.522 -59.328  1.00  0.00     0.038 A 
HETATM   24  C   UNL     1     -44.181  57.391 -58.108  1.00  0.00     0.084 A 
BRANCH  24  25
HETATM   25  O   UNL     1     -44.122  58.441 -57.225  1.00  0.00    -0.348 OA
BRANCH  25  26
HETATM   26  C   UNL     1     -43.693  59.691 -57.787  1.00  0.00     0.207 C 
BRANCH  26  27
HETATM   27  C   UNL     1     -42.222  59.599 -58.217  1.00  0.00     0.145 C 
HETATM   28  O   UNL     1     -41.446  60.506 -57.411  1.00  0.00    -0.384 OA
HETATM   29  C   UNL     1     -40.964  61.572 -58.246  1.00  0.00     0.168 C 
HETATM   30  C   UNL     1     -41.713  61.479 -59.557  1.00  0.00     0.029 C 
HETATM   31  C   UNL     1     -41.968  59.996 -59.665  1.00  0.00     0.036 C 
ENDBRANCH  26  27
ENDBRANCH  25  26
ENDBRANCH  24  25
ENDBRANCH   1  19
TORSDOF 8
ENDMDL
MODEL 9
REMARK VINA RESULT:      -7.4      2.769      7.895
REMARK  8 active torsions:
REMARK  status: ('A' for Active; 'I' for Inactive)
REMARK    1  A    between atoms: C_3  and  C_4 
REMARK       I    between atoms: C_4  and  N_5 
REMARK    2  A    between atoms: N_5  and  C_6 
REMARK    3  A    between atoms: C_8  and  C_9 
REMARK    4  A    between atoms: C_9  and  C_10 
REMARK    5  A    between atoms: C_10  and  N_11 
REMARK    6  A    between atoms: C_21  and  O_22 
REMARK    7  A    between atoms: O_22  and  C_23 
REMARK    8  A    between atoms: C_23  and  C_24 
ROOT
HETATM    1  C   UNL     1     -42.888  56.153 -56.862  1.00  0.00     0.259 C 
HETATM    2  N   UNL     1     -43.022  54.940 -56.209  1.00  0.00    -0.323 N 
HETATM    3  O   UNL     1     -42.097  57.036 -56.546  1.00  0.00    -0.267 OA
HETATM    4  H   UNL     1     -43.749  54.328 -56.563  1.00  0.00     0.169 HD
ENDROOT
BRANCH   2   5
HETATM    5  C   UNL     1     -42.244  54.458 -55.130  1.00  0.00     0.035 A 
HETATM    6  C   UNL     1     -42.807  54.498 -53.844  1.00  0.00     0.036 A 
HETATM    7  C   UNL     1     -42.111  54.012 -52.717  1.00  0.00    -0.054 A 
HETATM    8  C   UNL     1     -40.837  53.460 -52.912  1.00  0.00     0.007 A 
HETATM    9  C   UNL     1     -40.265  53.431 -54.181  1.00  0.00     0.003 A 
HETATM   10  C   UNL     1     -40.963  53.929 -55.279  1.00  0.00     0.029 A 
BRANCH   7  11
HETATM   11  C   UNL     1     -42.790  54.026 -51.364  1.00  0.00     0.066 C 
BRANCH  11  12
HETATM   12  C   UNL     1     -43.753  55.202 -51.141  1.00  0.00     0.239 C 
BRANCH  12  13
HETATM   13  N   UNL     1     -43.048  56.397 -50.529  1.00  0.00    -0.071 N 
HETATM   14  H   UNL     1     -43.604  56.713 -49.722  1.00  0.00     0.279 HD
HETATM   15  C   UNL     1     -42.953  57.568 -51.497  1.00  0.00     0.235 C 
HETATM   16  C   UNL     1     -41.502  57.575 -51.926  1.00  0.00     0.029 C 
HETATM   17  C   UNL     1     -40.779  57.215 -50.645  1.00  0.00     0.029 C 
HETATM   18  C   UNL     1     -41.629  56.102 -50.058  1.00  0.00     0.235 C 
ENDBRANCH  12  13
ENDBRANCH  11  12
ENDBRANCH   7  11
ENDBRANCH   2   5
BRANCH   1  19
HETATM   19  C   UNL     1     -43.777  56.400 -58.050  1.00  0.00     0.065 A 
HETATM   20  C   UNL     1     -43.500  55.634 -59.200  1.00  0.00     0.020 A 
HETATM   21  C   UNL     1     -44.255  55.770 -60.365  1.00  0.00     0.001 A 
HETATM   22  C   UNL     1     -45.297  56.687 -60.405  1.00  0.00     0.003 A 
HETATM   23  C   UNL     1     -45.586  57.457 -59.278  1.00  0.00     0.038 A 
HETATM   24  C   UNL     1     -44.856  57.304 -58.088  1.00  0.00     0.084 A 
BRANCH  24  25
HETATM   25  O   UNL     1     -45.120  58.098 -57.000  1.00  0.00    -0.348 OA
BRANCH  25  26
HETATM   26  C   UNL     1     -44.678  59.459 -57.112  1.00  0.00     0.207 C 
BRANCH  26  27
HETATM   27  C   UNL     1     -43.991  59.900 -55.811  1.00  0.00     0.145 C 
HETATM   28  O   UNL     1     -44.330  58.966 -54.769  1.00  0.00    -0.384 OA
HETATM   29  C   UNL     1     -45.166  59.630 -53.806  1.00  0.00     0.168 C 
HETATM   30  C   UNL     1     -45.601  60.938 -54.426  1.00  0.00     0.029 C 
HETATM   31  C   UNL     1     -44.423  61.270 -55.309  1.00  0.00     0.036 C 
ENDBRANCH  26  27
ENDBRANCH  25  26
ENDBRANCH  24  25
ENDBRANCH   1  19
TORSDOF 8
ENDMDL
MODEL 10
REMARK VINA RESULT:      -7.1     14.260     18.092
REMARK  8 active torsions:
REMARK  status: ('A' for Active; 'I' for Inactive)
REMARK    1  A    between atoms: C_3  and  C_4 
REMARK       I    between atoms: C_4  and  N_5 
REMARK    2  A    between atoms: N_5  and  C_6 
REMARK    3  A    between atoms: C_8  and  C_9 
REMARK    4  A    between atoms: C_9  and  C_10 
REMARK    5  A    between atoms: C_10  and  N_11 
REMARK    6  A    between atoms: C_21  and  O_22 
REMARK    7  A    between atoms: O_22  and  C_23 
REMARK    8  A    between atoms: C_23  and  C_24 
ROOT
HETATM    1  C   UNL     1     -35.774  41.670 -56.046  1.00  0.00     0.259 C 
HETATM    2  N   UNL     1     -36.148  40.881 -54.973  1.00  0.00    -0.323 N 
HETATM    3  O   UNL     1     -35.104  42.695 -55.964  1.00  0.00    -0.267 OA
HETATM    4  H   UNL     1     -36.737  40.087 -55.196  1.00  0.00     0.169 HD
ENDROOT
BRANCH   2   5
HETATM    5  C   UNL     1     -35.781  41.050 -53.618  1.00  0.00     0.035 A 
HETATM    6  C   UNL     1     -35.734  39.908 -52.802  1.00  0.00     0.036 A 
HETATM    7  C   UNL     1     -35.350  39.984 -51.446  1.00  0.00    -0.054 A 
HETATM    8  C   UNL     1     -34.989  41.235 -50.928  1.00  0.00     0.007 A 
HETATM    9  C   UNL     1     -35.047  42.375 -51.725  1.00  0.00     0.003 A 
HETATM   10  C   UNL     1     -35.443  42.282 -53.058  1.00  0.00     0.029 A 
BRANCH   7  11
HETATM   11  C   UNL     1     -35.260  38.712 -50.629  1.00  0.00     0.066 C 
BRANCH  11  12
HETATM   12  C   UNL     1     -34.202  38.736 -49.516  1.00  0.00     0.239 C 
BRANCH  12  13
HETATM   13  N   UNL     1     -32.844  38.288 -50.022  1.00  0.00    -0.071 N 
HETATM   14  H   UNL     1     -32.437  37.658 -49.317  1.00  0.00     0.279 HD
HETATM   15  C   UNL     1     -31.881  39.453 -50.196  1.00  0.00     0.235 C 
HETATM   16  C   UNL     1     -31.808  39.652 -51.694  1.00  0.00     0.029 C 
HETATM   17  C   UNL     1     -31.835  38.230 -52.215  1.00  0.00     0.029 C 
HETATM   18  C   UNL     1     -32.894  37.558 -51.359  1.00  0.00     0.235 C 
ENDBRANCH  12  13
ENDBRANCH  11  12
ENDBRANCH   7  11
ENDBRANCH   2   5
BRANCH   1  19
HETATM   19  C   UNL     1     -36.217  41.231 -57.415  1.00  0.00     0.065 A 
HETATM   20  C   UNL     1     -36.853  42.211 -58.204  1.00  0.00     0.020 A 
HETATM   21  C   UNL     1     -37.307  41.928 -59.491  1.00  0.00     0.001 A 
HETATM   22  C   UNL     1     -37.144  40.651 -60.011  1.00  0.00     0.003 A 
HETATM   23  C   UNL     1     -36.520  39.665 -59.247  1.00  0.00     0.038 A 
HETATM   24  C   UNL     1     -36.027  39.948 -57.962  1.00  0.00     0.084 A 
BRANCH  24  25
HETATM   25  O   UNL     1     -35.454  38.960 -57.201  1.00  0.00    -0.348 OA
BRANCH  25  26
HETATM   26  C   UNL     1     -34.265  38.374 -57.752  1.00  0.00     0.207 C 
BRANCH  26  27
HETATM   27  C   UNL     1     -33.211  38.184 -56.652  1.00  0.00     0.145 C 
HETATM   28  O   UNL     1     -33.579  38.987 -55.514  1.00  0.00    -0.384 OA
HETATM   29  C   UNL     1     -32.622  40.049 -55.366  1.00  0.00     0.168 C 
HETATM   30  C   UNL     1     -31.796  40.078 -56.633  1.00  0.00     0.029 C 
HETATM   31  C   UNL     1     -31.809  38.627 -57.046  1.00  0.00     0.036 C 
ENDBRANCH  26  27
ENDBRANCH  25  26
ENDBRANCH  24  25
ENDBRANCH   1  19
TORSDOF 8
ENDMDL
