MODEL 1
REMARK VINA RESULT:      -8.0      0.000      0.000
REMARK  8 active torsions:
REMARK  status: ('A' for Active; 'I' for Inactive)
REMARK    1  A    between atoms: C_3  and  O_4 
REMARK    2  A    between atoms: C_11  and  C_12 
REMARK    3  A    between atoms: C_12  and  C_13 
REMARK    4  A    between atoms: C_13  and  S_14 
REMARK    5  A    between atoms: S_14  and  C_15 
REMARK    6  A    between atoms: N_16  and  C_17 
REMARK    7  A    between atoms: C_17  and  C_18 
REMARK    8  A    between atoms: C_24  and  C_25 
ROOT
HETATM    1  C   UNL     1     -40.986  55.204 -50.488  1.00  0.00     0.192 A 
HETATM    2  N   UNL     1     -41.213  54.128 -51.305  1.00  0.00    -0.303 N 
HETATM    3  C   UNL     1     -40.133  53.284 -51.113  1.00  0.00     0.166 A 
HETATM    4  N   UNL     1     -39.335  53.835 -50.213  1.00  0.00    -0.128 NA
HETATM    5  N   UNL     1     -39.860  55.042 -49.837  1.00  0.00    -0.122 NA
ENDROOT
BRANCH   1   6
HETATM    6  S   UNL     1     -42.034  56.572 -50.351  1.00  0.00    -0.082 SA
BRANCH   6   7
HETATM    7  C   UNL     1     -41.252  57.683 -51.558  1.00  0.00     0.166 C 
BRANCH   7   8
HETATM    8  C   UNL     1     -42.222  58.717 -52.100  1.00  0.00     0.169 C 
HETATM    9  O   UNL     1     -42.398  59.823 -51.591  1.00  0.00    -0.291 OA
BRANCH   8  10
HETATM   10  C   UNL     1     -43.024  58.352 -53.312  1.00  0.00     0.011 A 
HETATM   11  C   UNL     1     -44.224  57.635 -53.223  1.00  0.00     0.017 A 
HETATM   12  C   UNL     1     -44.946  57.287 -54.371  1.00  0.00     0.031 A 
HETATM   13  C   UNL     1     -44.431  57.685 -55.608  1.00  0.00     0.045 A 
HETATM   14  N   UNL     1     -44.918  57.484 -56.877  1.00  0.00    -0.336 N 
HETATM   15  C   UNL     1     -43.250  58.412 -55.739  1.00  0.00     0.002 A 
HETATM   16  C   UNL     1     -44.096  58.060 -57.805  1.00  0.00     0.147 A 
HETATM   17  H   UNL     1     -45.764  56.987 -57.108  1.00  0.00     0.168 HD
HETATM   18  C   UNL     1     -43.039  58.650 -57.138  1.00  0.00     0.001 A 
HETATM   19  C   UNL     1     -41.901  59.403 -57.729  1.00  0.00     0.054 C 
HETATM   20  C   UNL     1     -42.539  58.752 -54.570  1.00  0.00     0.029 A 
BRANCH  16  21
HETATM   21  O   UNL     1     -44.414  57.971 -59.087  1.00  0.00    -0.346 OA
HETATM   22  H   UNL     1     -45.385  57.940 -59.146  1.00  0.00     0.219 HD
ENDBRANCH  16  21
ENDBRANCH   8  10
ENDBRANCH   7   8
ENDBRANCH   6   7
ENDBRANCH   1   6
BRANCH   2  23
HETATM   23  C   UNL     1     -42.420  53.848 -52.066  1.00  0.00     0.171 C 
BRANCH  23  24
HETATM   24  C   UNL     1     -42.358  54.268 -53.517  1.00  0.00    -0.040 A 
HETATM   25  C   UNL     1     -43.325  53.905 -54.467  1.00  0.00     0.009 A 
HETATM   26  C   UNL     1     -43.201  54.301 -55.800  1.00  0.00     0.001 A 
HETATM   27  C   UNL     1     -42.100  55.049 -56.209  1.00  0.00     0.000 A 
HETATM   28  C   UNL     1     -41.120  55.400 -55.286  1.00  0.00     0.001 A 
HETATM   29  C   UNL     1     -41.245  55.009 -53.952  1.00  0.00     0.009 A 
ENDBRANCH  23  24
ENDBRANCH   2  23
BRANCH   3  30
HETATM   30  C   UNL     1     -39.914  51.973 -51.710  1.00  0.00     0.029 A 
HETATM   31  C   UNL     1     -39.859  50.798 -50.968  1.00  0.00     0.131 A 
HETATM   32  N   UNL     1     -39.664  49.566 -51.500  1.00  0.00    -0.272 NA
HETATM   33  C   UNL     1     -39.557  49.493 -52.843  1.00  0.00     0.116 A 
HETATM   34  C   UNL     1     -39.630  50.595 -53.678  1.00  0.00     0.020 A 
HETATM   35  C   UNL     1     -39.812  51.848 -53.099  1.00  0.00     0.018 A 
ENDBRANCH   3  30
TORSDOF 8
ENDMDL
MODEL 2
REMARK VINA RESULT:      -8.0      2.610      4.318
REMARK  8 active torsions:
REMARK  status: ('A' for Active; 'I' for Inactive)
REMARK    1  A    between atoms: C_3  and  O_4 
REMARK    2  A    between atoms: C_11  and  C_12 
REMARK    3  A    between atoms: C_12  and  C_13 
REMARK    4  A    between atoms: C_13  and  S_14 
REMARK    5  A    between atoms: S_14  and  C_15 
REMARK    6  A    between atoms: N_16  and  C_17 
REMARK    7  A    between atoms: C_17  and  C_18 
REMARK    8  A    between atoms: C_24  and  C_25 
ROOT
HETATM    1  C   UNL     1     -44.576  58.180 -52.092  1.00  0.00     0.192 A 
HETATM    2  N   UNL     1     -43.357  57.553 -52.108  1.00  0.00    -0.303 N 
HETATM    3  C   UNL     1     -43.426  56.587 -51.120  1.00  0.00     0.166 A 
HETATM    4  N   UNL     1     -44.632  56.637 -50.578  1.00  0.00    -0.128 NA
HETATM    5  N   UNL     1     -45.342  57.644 -51.174  1.00  0.00    -0.122 NA
ENDROOT
BRANCH   1   6
HETATM    6  S   UNL     1     -45.021  59.487 -53.131  1.00  0.00    -0.082 SA
BRANCH   6   7
HETATM    7  C   UNL     1     -45.220  58.586 -54.696  1.00  0.00     0.166 C 
BRANCH   7   8
HETATM    8  C   UNL     1     -44.407  59.200 -55.821  1.00  0.00     0.169 C 
HETATM    9  O   UNL     1     -44.038  60.374 -55.837  1.00  0.00    -0.291 OA
BRANCH   8  10
HETATM   10  C   UNL     1     -44.060  58.326 -56.987  1.00  0.00     0.011 A 
HETATM   11  C   UNL     1     -42.739  57.967 -57.283  1.00  0.00     0.017 A 
HETATM   12  C   UNL     1     -42.437  57.164 -58.390  1.00  0.00     0.031 A 
HETATM   13  C   UNL     1     -43.500  56.730 -59.186  1.00  0.00     0.045 A 
HETATM   14  N   UNL     1     -43.500  55.948 -60.317  1.00  0.00    -0.336 N 
HETATM   15  C   UNL     1     -44.830  57.052 -58.919  1.00  0.00     0.002 A 
HETATM   16  C   UNL     1     -44.775  55.758 -60.771  1.00  0.00     0.147 A 
HETATM   17  H   UNL     1     -42.682  55.559 -60.759  1.00  0.00     0.168 HD
HETATM   18  C   UNL     1     -45.639  56.431 -59.928  1.00  0.00     0.001 A 
HETATM   19  C   UNL     1     -47.121  56.504 -60.018  1.00  0.00     0.054 C 
HETATM   20  C   UNL     1     -45.111  57.861 -57.799  1.00  0.00     0.029 A 
BRANCH  16  21
HETATM   21  O   UNL     1     -44.967  55.019 -61.853  1.00  0.00    -0.346 OA
HETATM   22  H   UNL     1     -45.056  55.625 -62.610  1.00  0.00     0.219 HD
ENDBRANCH  16  21
ENDBRANCH   8  10
ENDBRANCH   7   8
ENDBRANCH   6   7
ENDBRANCH   1   6
BRANCH   2  23
HETATM   23  C   UNL     1     -42.291  57.739 -53.079  1.00  0.00     0.171 C 
BRANCH  23  24
HETATM   24  C   UNL     1     -42.007  56.527 -53.937  1.00  0.00    -0.040 A 
HETATM   25  C   UNL     1     -43.011  55.782 -54.574  1.00  0.00     0.009 A 
HETATM   26  C   UNL     1     -42.690  54.654 -55.334  1.00  0.00     0.001 A 
HETATM   27  C   UNL     1     -41.365  54.245 -55.454  1.00  0.00     0.000 A 
HETATM   28  C   UNL     1     -40.358  54.958 -54.811  1.00  0.00     0.001 A 
HETATM   29  C   UNL     1     -40.677  56.088 -54.055  1.00  0.00     0.009 A 
ENDBRANCH  23  24
ENDBRANCH   2  23
BRANCH   3  30
HETATM   30  C   UNL     1     -42.407  55.609 -50.762  1.00  0.00     0.029 A 
HETATM   31  C   UNL     1     -41.381  55.873 -49.861  1.00  0.00     0.131 A 
HETATM   32  N   UNL     1     -40.425  54.978 -49.506  1.00  0.00    -0.272 NA
HETATM   33  C   UNL     1     -40.517  53.745 -50.046  1.00  0.00     0.116 A 
HETATM   34  C   UNL     1     -41.515  53.366 -50.926  1.00  0.00     0.020 A 
HETATM   35  C   UNL     1     -42.471  54.313 -51.285  1.00  0.00     0.018 A 
ENDBRANCH   3  30
TORSDOF 8
ENDMDL
MODEL 3
REMARK VINA RESULT:      -7.9      4.181      8.619
REMARK  8 active torsions:
REMARK  status: ('A' for Active; 'I' for Inactive)
REMARK    1  A    between atoms: C_3  and  O_4 
REMARK    2  A    between atoms: C_11  and  C_12 
REMARK    3  A    between atoms: C_12  and  C_13 
REMARK    4  A    between atoms: C_13  and  S_14 
REMARK    5  A    between atoms: S_14  and  C_15 
REMARK    6  A    between atoms: N_16  and  C_17 
REMARK    7  A    between atoms: C_17  and  C_18 
REMARK    8  A    between atoms: C_24  and  C_25 
ROOT
HETATM    1  C   UNL     1     -44.648  58.041 -51.593  1.00  0.00     0.192 A 
HETATM    2  N   UNL     1     -44.394  59.387 -51.578  1.00  0.00    -0.303 N 
HETATM    3  C   UNL     1     -45.226  59.910 -50.604  1.00  0.00     0.166 A 
HETATM    4  N   UNL     1     -45.909  58.912 -50.067  1.00  0.00    -0.128 NA
HETATM    5  N   UNL     1     -45.561  57.749 -50.698  1.00  0.00    -0.122 NA
ENDROOT
BRANCH   1   6
HETATM    6  S   UNL     1     -43.879  56.907 -52.646  1.00  0.00    -0.082 SA
BRANCH   6   7
HETATM    7  C   UNL     1     -43.244  55.726 -51.420  1.00  0.00     0.166 C 
BRANCH   7   8
HETATM    8  C   UNL     1     -41.741  55.541 -51.523  1.00  0.00     0.169 C 
HETATM    9  O   UNL     1     -40.923  56.250 -50.939  1.00  0.00    -0.291 OA
BRANCH   8  10
HETATM   10  C   UNL     1     -41.234  54.445 -52.410  1.00  0.00     0.011 A 
HETATM   11  C   UNL     1     -41.180  54.578 -53.804  1.00  0.00     0.017 A 
HETATM   12  C   UNL     1     -40.721  53.532 -54.614  1.00  0.00     0.031 A 
HETATM   13  C   UNL     1     -40.313  52.353 -53.984  1.00  0.00     0.045 A 
HETATM   14  N   UNL     1     -39.829  51.184 -54.518  1.00  0.00    -0.336 N 
HETATM   15  C   UNL     1     -40.337  52.185 -52.600  1.00  0.00     0.002 A 
HETATM   16  C   UNL     1     -39.539  50.286 -53.529  1.00  0.00     0.147 A 
HETATM   17  H   UNL     1     -39.696  51.000 -55.501  1.00  0.00     0.168 HD
HETATM   18  C   UNL     1     -39.843  50.870 -52.314  1.00  0.00     0.001 A 
HETATM   19  C   UNL     1     -39.685  50.277 -50.959  1.00  0.00     0.054 C 
HETATM   20  C   UNL     1     -40.802  53.252 -51.804  1.00  0.00     0.029 A 
BRANCH  16  21
HETATM   21  O   UNL     1     -39.053  49.100 -53.862  1.00  0.00    -0.346 OA
HETATM   22  H   UNL     1     -38.083  49.179 -53.893  1.00  0.00     0.219 HD
ENDBRANCH  16  21
ENDBRANCH   8  10
ENDBRANCH   7   8
ENDBRANCH   6   7
ENDBRANCH   1   6
BRANCH   2  23
HETATM   23  C   UNL     1     -43.342  60.085 -52.299  1.00  0.00     0.171 C 
BRANCH  23  24
HETATM   24  C   UNL     1     -41.941  59.771 -51.823  1.00  0.00    -0.040 A 
HETATM   25  C   UNL     1     -41.508  59.987 -50.506  1.00  0.00     0.009 A 
HETATM   26  C   UNL     1     -40.193  59.703 -50.130  1.00  0.00     0.001 A 
HETATM   27  C   UNL     1     -39.287  59.217 -51.069  1.00  0.00     0.000 A 
HETATM   28  C   UNL     1     -39.691  59.018 -52.385  1.00  0.00     0.001 A 
HETATM   29  C   UNL     1     -41.007  59.297 -52.761  1.00  0.00     0.009 A 
ENDBRANCH  23  24
ENDBRANCH   2  23
BRANCH   3  30
HETATM   30  C   UNL     1     -45.308  61.294 -50.156  1.00  0.00     0.029 A 
HETATM   31  C   UNL     1     -46.250  62.196 -50.640  1.00  0.00     0.131 A 
HETATM   32  N   UNL     1     -46.352  63.487 -50.234  1.00  0.00    -0.272 NA
HETATM   33  C   UNL     1     -45.498  63.890 -49.271  1.00  0.00     0.116 A 
HETATM   34  C   UNL     1     -44.544  63.067 -48.697  1.00  0.00     0.020 A 
HETATM   35  C   UNL     1     -44.453  61.752 -49.149  1.00  0.00     0.018 A 
ENDBRANCH   3  30
TORSDOF 8
ENDMDL
MODEL 4
REMARK VINA RESULT:      -7.8      2.909      7.231
REMARK  8 active torsions:
REMARK  status: ('A' for Active; 'I' for Inactive)
REMARK    1  A    between atoms: C_3  and  O_4 
REMARK    2  A    between atoms: C_11  and  C_12 
REMARK    3  A    between atoms: C_12  and  C_13 
REMARK    4  A    between atoms: C_13  and  S_14 
REMARK    5  A    between atoms: S_14  and  C_15 
REMARK    6  A    between atoms: N_16  and  C_17 
REMARK    7  A    between atoms: C_17  and  C_18 
REMARK    8  A    between atoms: C_24  and  C_25 
ROOT
HETATM    1  C   UNL     1     -42.152  58.536 -51.627  1.00  0.00     0.192 A 
HETATM    2  N   UNL     1     -42.257  58.359 -52.981  1.00  0.00    -0.303 N 
HETATM    3  C   UNL     1     -43.241  59.239 -53.394  1.00  0.00     0.166 A 
HETATM    4  N   UNL     1     -43.666  59.908 -52.335  1.00  0.00    -0.128 NA
HETATM    5  N   UNL     1     -42.997  59.456 -51.230  1.00  0.00    -0.122 NA
ENDROOT
BRANCH   1   6
HETATM    6  S   UNL     1     -41.065  57.665 -50.603  1.00  0.00    -0.082 SA
BRANCH   6   7
HETATM    7  C   UNL     1     -41.984  56.107 -50.431  1.00  0.00     0.166 C 
BRANCH   7   8
HETATM    8  C   UNL     1     -41.241  55.091 -49.582  1.00  0.00     0.169 C 
HETATM    9  O   UNL     1     -40.950  55.270 -48.400  1.00  0.00    -0.291 OA
BRANCH   8  10
HETATM   10  C   UNL     1     -40.821  53.811 -50.237  1.00  0.00     0.011 A 
HETATM   11  C   UNL     1     -40.589  52.640 -49.504  1.00  0.00     0.017 A 
HETATM   12  C   UNL     1     -40.178  51.460 -50.135  1.00  0.00     0.031 A 
HETATM   13  C   UNL     1     -40.012  51.490 -51.523  1.00  0.00     0.045 A 
HETATM   14  N   UNL     1     -39.621  50.499 -52.391  1.00  0.00    -0.336 N 
HETATM   15  C   UNL     1     -40.245  52.629 -52.291  1.00  0.00     0.002 A 
HETATM   16  C   UNL     1     -39.605  50.963 -53.676  1.00  0.00     0.147 A 
HETATM   17  H   UNL     1     -39.380  49.554 -52.131  1.00  0.00     0.168 HD
HETATM   18  C   UNL     1     -39.987  52.291 -53.660  1.00  0.00     0.001 A 
HETATM   19  C   UNL     1     -40.124  53.209 -54.822  1.00  0.00     0.054 C 
HETATM   20  C   UNL     1     -40.660  53.806 -51.634  1.00  0.00     0.029 A 
BRANCH  16  21
HETATM   21  O   UNL     1     -39.256  50.138 -54.651  1.00  0.00    -0.346 OA
HETATM   22  H   UNL     1     -39.726  49.297 -54.506  1.00  0.00     0.219 HD
ENDBRANCH  16  21
ENDBRANCH   8  10
ENDBRANCH   7   8
ENDBRANCH   6   7
ENDBRANCH   1   6
BRANCH   2  23
HETATM   23  C   UNL     1     -41.391  57.553 -53.827  1.00  0.00     0.171 C 
BRANCH  23  24
HETATM   24  C   UNL     1     -42.092  56.427 -54.552  1.00  0.00    -0.040 A 
HETATM   25  C   UNL     1     -42.056  56.267 -55.945  1.00  0.00     0.009 A 
HETATM   26  C   UNL     1     -42.746  55.221 -56.562  1.00  0.00     0.001 A 
HETATM   27  C   UNL     1     -43.498  54.332 -55.799  1.00  0.00     0.000 A 
HETATM   28  C   UNL     1     -43.564  54.488 -54.419  1.00  0.00     0.001 A 
HETATM   29  C   UNL     1     -42.871  55.530 -53.799  1.00  0.00     0.009 A 
ENDBRANCH  23  24
ENDBRANCH   2  23
BRANCH   3  30
HETATM   30  C   UNL     1     -43.701  59.481 -54.756  1.00  0.00     0.029 A 
HETATM   31  C   UNL     1     -43.062  60.351 -55.632  1.00  0.00     0.131 A 
HETATM   32  N   UNL     1     -43.466  60.588 -56.905  1.00  0.00    -0.272 NA
HETATM   33  C   UNL     1     -44.538  59.895 -57.342  1.00  0.00     0.116 A 
HETATM   34  C   UNL     1     -45.228  58.982 -56.565  1.00  0.00     0.020 A 
HETATM   35  C   UNL     1     -44.800  58.774 -55.256  1.00  0.00     0.018 A 
ENDBRANCH   3  30
TORSDOF 8
ENDMDL
MODEL 5
REMARK VINA RESULT:      -7.7      2.727      6.884
REMARK  8 active torsions:
REMARK  status: ('A' for Active; 'I' for Inactive)
REMARK    1  A    between atoms: C_3  and  O_4 
REMARK    2  A    between atoms: C_11  and  C_12 
REMARK    3  A    between atoms: C_12  and  C_13 
REMARK    4  A    between atoms: C_13  and  S_14 
REMARK    5  A    between atoms: S_14  and  C_15 
REMARK    6  A    between atoms: N_16  and  C_17 
REMARK    7  A    between atoms: C_17  and  C_18 
REMARK    8  A    between atoms: C_24  and  C_25 
ROOT
HETATM    1  C   UNL     1     -42.193  59.338 -55.616  1.00  0.00     0.192 A 
HETATM    2  N   UNL     1     -42.981  58.270 -55.958  1.00  0.00    -0.303 N 
HETATM    3  C   UNL     1     -43.012  58.262 -57.341  1.00  0.00     0.166 A 
HETATM    4  N   UNL     1     -42.261  59.260 -57.776  1.00  0.00    -0.128 NA
HETATM    5  N   UNL     1     -41.765  59.941 -56.698  1.00  0.00    -0.122 NA
ENDROOT
BRANCH   1   6
HETATM    6  S   UNL     1     -41.831  59.812 -53.994  1.00  0.00    -0.082 SA
BRANCH   6   7
HETATM    7  C   UNL     1     -43.517  60.015 -53.347  1.00  0.00     0.166 C 
BRANCH   7   8
HETATM    8  C   UNL     1     -43.624  59.618 -51.886  1.00  0.00     0.169 C 
HETATM    9  O   UNL     1     -44.402  60.142 -51.090  1.00  0.00    -0.291 OA
BRANCH   8  10
HETATM   10  C   UNL     1     -42.710  58.540 -51.389  1.00  0.00     0.011 A 
HETATM   11  C   UNL     1     -41.450  58.824 -50.845  1.00  0.00     0.017 A 
HETATM   12  C   UNL     1     -40.605  57.798 -50.405  1.00  0.00     0.031 A 
HETATM   13  C   UNL     1     -41.062  56.483 -50.522  1.00  0.00     0.045 A 
HETATM   14  N   UNL     1     -40.455  55.299 -50.180  1.00  0.00    -0.336 N 
HETATM   15  C   UNL     1     -42.313  56.159 -51.043  1.00  0.00     0.002 A 
HETATM   16  C   UNL     1     -41.274  54.240 -50.458  1.00  0.00     0.147 A 
HETATM   17  H   UNL     1     -39.536  55.208 -49.776  1.00  0.00     0.168 HD
HETATM   18  C   UNL     1     -42.446  54.732 -51.000  1.00  0.00     0.001 A 
HETATM   19  C   UNL     1     -43.633  53.956 -51.447  1.00  0.00     0.054 C 
HETATM   20  C   UNL     1     -43.149  57.208 -51.480  1.00  0.00     0.029 A 
BRANCH  16  21
HETATM   21  O   UNL     1     -40.852  53.015 -50.185  1.00  0.00    -0.346 OA
HETATM   22  H   UNL     1     -41.624  52.496 -49.899  1.00  0.00     0.219 HD
ENDBRANCH  16  21
ENDBRANCH   8  10
ENDBRANCH   7   8
ENDBRANCH   6   7
ENDBRANCH   1   6
BRANCH   2  23
HETATM   23  C   UNL     1     -43.514  57.255 -55.063  1.00  0.00     0.171 C 
BRANCH  23  24
HETATM   24  C   UNL     1     -42.608  56.063 -54.857  1.00  0.00    -0.040 A 
HETATM   25  C   UNL     1     -41.251  56.175 -54.516  1.00  0.00     0.009 A 
HETATM   26  C   UNL     1     -40.456  55.037 -54.365  1.00  0.00     0.001 A 
HETATM   27  C   UNL     1     -40.998  53.772 -54.570  1.00  0.00     0.000 A 
HETATM   28  C   UNL     1     -42.335  53.641 -54.931  1.00  0.00     0.001 A 
HETATM   29  C   UNL     1     -43.133  54.777 -55.078  1.00  0.00     0.009 A 
ENDBRANCH  23  24
ENDBRANCH   2  23
BRANCH   3  30
HETATM   30  C   UNL     1     -43.673  57.294 -58.209  1.00  0.00     0.029 A 
HETATM   31  C   UNL     1     -44.952  57.480 -58.720  1.00  0.00     0.131 A 
HETATM   32  N   UNL     1     -45.586  56.599 -59.534  1.00  0.00    -0.272 NA
HETATM   33  C   UNL     1     -44.896  55.495 -59.889  1.00  0.00     0.116 A 
HETATM   34  C   UNL     1     -43.606  55.228 -59.465  1.00  0.00     0.020 A 
HETATM   35  C   UNL     1     -42.990  56.143 -58.614  1.00  0.00     0.018 A 
ENDBRANCH   3  30
TORSDOF 8
ENDMDL
MODEL 6
REMARK VINA RESULT:      -7.6      2.694      5.272
REMARK  8 active torsions:
REMARK  status: ('A' for Active; 'I' for Inactive)
REMARK    1  A    between atoms: C_3  and  O_4 
REMARK    2  A    between atoms: C_11  and  C_12 
REMARK    3  A    between atoms: C_12  and  C_13 
REMARK    4  A    between atoms: C_13  and  S_14 
REMARK    5  A    between atoms: S_14  and  C_15 
REMARK    6  A    between atoms: N_16  and  C_17 
REMARK    7  A    between atoms: C_17  and  C_18 
REMARK    8  A    between atoms: C_24  and  C_25 
ROOT
HETATM    1  C   UNL     1     -42.482  55.834 -55.395  1.00  0.00     0.192 A 
HETATM    2  N   UNL     1     -41.701  55.785 -54.270  1.00  0.00    -0.303 N 
HETATM    3  C   UNL     1     -42.020  54.589 -53.651  1.00  0.00     0.166 A 
HETATM    4  N   UNL     1     -42.921  53.968 -54.394  1.00  0.00    -0.128 NA
HETATM    5  N   UNL     1     -43.222  54.755 -55.473  1.00  0.00    -0.122 NA
ENDROOT
BRANCH   1   6
HETATM    6  S   UNL     1     -42.486  57.136 -56.532  1.00  0.00    -0.082 SA
BRANCH   6   7
HETATM    7  C   UNL     1     -44.262  57.519 -56.557  1.00  0.00     0.166 C 
BRANCH   7   8
HETATM    8  C   UNL     1     -44.533  58.999 -56.360  1.00  0.00     0.169 C 
HETATM    9  O   UNL     1     -44.401  59.843 -57.245  1.00  0.00    -0.291 OA
BRANCH   8  10
HETATM   10  C   UNL     1     -44.963  59.453 -54.998  1.00  0.00     0.011 A 
HETATM   11  C   UNL     1     -45.518  60.719 -54.774  1.00  0.00     0.017 A 
HETATM   12  C   UNL     1     -45.894  61.128 -53.489  1.00  0.00     0.031 A 
HETATM   13  C   UNL     1     -45.702  60.227 -52.438  1.00  0.00     0.045 A 
HETATM   14  N   UNL     1     -45.972  60.357 -51.097  1.00  0.00    -0.336 N 
HETATM   15  C   UNL     1     -45.167  58.952 -52.620  1.00  0.00     0.002 A 
HETATM   16  C   UNL     1     -45.636  59.215 -50.425  1.00  0.00     0.147 A 
HETATM   17  H   UNL     1     -46.366  61.173 -50.656  1.00  0.00     0.168 HD
HETATM   18  C   UNL     1     -45.128  58.311 -51.338  1.00  0.00     0.001 A 
HETATM   19  C   UNL     1     -44.641  56.931 -51.072  1.00  0.00     0.054 C 
HETATM   20  C   UNL     1     -44.796  58.561 -53.923  1.00  0.00     0.029 A 
BRANCH  16  21
HETATM   21  O   UNL     1     -45.835  59.159 -49.117  1.00  0.00    -0.346 OA
HETATM   22  H   UNL     1     -44.963  59.180 -48.686  1.00  0.00     0.219 HD
ENDBRANCH  16  21
ENDBRANCH   8  10
ENDBRANCH   7   8
ENDBRANCH   6   7
ENDBRANCH   1   6
BRANCH   2  23
HETATM   23  C   UNL     1     -40.634  56.702 -53.906  1.00  0.00     0.171 C 
BRANCH  23  24
HETATM   24  C   UNL     1     -41.071  57.858 -53.035  1.00  0.00    -0.040 A 
HETATM   25  C   UNL     1     -41.429  59.115 -53.545  1.00  0.00     0.009 A 
HETATM   26  C   UNL     1     -41.800  60.155 -52.688  1.00  0.00     0.001 A 
HETATM   27  C   UNL     1     -41.799  59.960 -51.310  1.00  0.00     0.000 A 
HETATM   28  C   UNL     1     -41.425  58.728 -50.785  1.00  0.00     0.001 A 
HETATM   29  C   UNL     1     -41.059  57.686 -51.639  1.00  0.00     0.009 A 
ENDBRANCH  23  24
ENDBRANCH   2  23
BRANCH   3  30
HETATM   30  C   UNL     1     -41.431  54.032 -52.440  1.00  0.00     0.029 A 
HETATM   31  C   UNL     1     -40.308  53.211 -52.447  1.00  0.00     0.131 A 
HETATM   32  N   UNL     1     -39.737  52.686 -51.335  1.00  0.00    -0.272 NA
HETATM   33  C   UNL     1     -40.288  53.026 -50.151  1.00  0.00     0.116 A 
HETATM   34  C   UNL     1     -41.385  53.860 -50.027  1.00  0.00     0.020 A 
HETATM   35  C   UNL     1     -41.960  54.368 -51.190  1.00  0.00     0.018 A 
ENDBRANCH   3  30
TORSDOF 8
ENDMDL
MODEL 7
REMARK VINA RESULT:      -7.6      3.190      8.580
REMARK  8 active torsions:
REMARK  status: ('A' for Active; 'I' for Inactive)
REMARK    1  A    between atoms: C_3  and  O_4 
REMARK    2  A    between atoms: C_11  and  C_12 
REMARK    3  A    between atoms: C_12  and  C_13 
REMARK    4  A    between atoms: C_13  and  S_14 
REMARK    5  A    between atoms: S_14  and  C_15 
REMARK    6  A    between atoms: N_16  and  C_17 
REMARK    7  A    between atoms: C_17  and  C_18 
REMARK    8  A    between atoms: C_24  and  C_25 
ROOT
HETATM    1  C   UNL     1     -42.672  58.751 -55.121  1.00  0.00     0.192 A 
HETATM    2  N   UNL     1     -43.387  58.853 -56.285  1.00  0.00    -0.303 N 
HETATM    3  C   UNL     1     -42.726  59.803 -57.043  1.00  0.00     0.166 A 
HETATM    4  N   UNL     1     -41.669  60.211 -56.361  1.00  0.00    -0.128 NA
HETATM    5  N   UNL     1     -41.647  59.567 -55.153  1.00  0.00    -0.122 NA
ENDROOT
BRANCH   1   6
HETATM    6  S   UNL     1     -43.078  57.703 -53.807  1.00  0.00    -0.082 SA
BRANCH   6   7
HETATM    7  C   UNL     1     -41.437  57.011 -53.445  1.00  0.00     0.166 C 
BRANCH   7   8
HETATM    8  C   UNL     1     -41.234  55.648 -54.083  1.00  0.00     0.169 C 
HETATM    9  O   UNL     1     -41.370  55.429 -55.286  1.00  0.00    -0.291 OA
BRANCH   8  10
HETATM   10  C   UNL     1     -40.873  54.506 -53.183  1.00  0.00     0.011 A 
HETATM   11  C   UNL     1     -40.864  54.629 -51.788  1.00  0.00     0.017 A 
HETATM   12  C   UNL     1     -40.504  53.552 -50.969  1.00  0.00     0.031 A 
HETATM   13  C   UNL     1     -40.158  52.350 -51.590  1.00  0.00     0.045 A 
HETATM   14  N   UNL     1     -39.766  51.150 -51.046  1.00  0.00    -0.336 N 
HETATM   15  C   UNL     1     -40.167  52.181 -52.974  1.00  0.00     0.002 A 
HETATM   16  C   UNL     1     -39.535  50.228 -52.028  1.00  0.00     0.147 A 
HETATM   17  H   UNL     1     -39.664  50.960 -50.061  1.00  0.00     0.168 HD
HETATM   18  C   UNL     1     -39.772  50.830 -53.250  1.00  0.00     0.001 A 
HETATM   19  C   UNL     1     -39.659  50.217 -54.600  1.00  0.00     0.054 C 
HETATM   20  C   UNL     1     -40.534  53.278 -53.780  1.00  0.00     0.029 A 
BRANCH  16  21
HETATM   21  O   UNL     1     -39.154  49.007 -51.685  1.00  0.00    -0.346 OA
HETATM   22  H   UNL     1     -38.714  49.070 -50.819  1.00  0.00     0.219 HD
ENDBRANCH  16  21
ENDBRANCH   8  10
ENDBRANCH   7   8
ENDBRANCH   6   7
ENDBRANCH   1   6
BRANCH   2  23
HETATM   23  C   UNL     1     -44.493  58.009 -56.708  1.00  0.00     0.171 C 
BRANCH  23  24
HETATM   24  C   UNL     1     -44.255  57.266 -58.003  1.00  0.00    -0.040 A 
HETATM   25  C   UNL     1     -43.135  56.452 -58.231  1.00  0.00     0.009 A 
HETATM   26  C   UNL     1     -42.954  55.812 -59.459  1.00  0.00     0.001 A 
HETATM   27  C   UNL     1     -43.880  55.988 -60.483  1.00  0.00     0.000 A 
HETATM   28  C   UNL     1     -44.985  56.809 -60.284  1.00  0.00     0.001 A 
HETATM   29  C   UNL     1     -45.170  57.447 -59.056  1.00  0.00     0.009 A 
ENDBRANCH  23  24
ENDBRANCH   2  23
BRANCH   3  30
HETATM   30  C   UNL     1     -43.051  60.244 -58.393  1.00  0.00     0.029 A 
HETATM   31  C   UNL     1     -44.103  61.107 -58.679  1.00  0.00     0.131 A 
HETATM   32  N   UNL     1     -44.422  61.539 -59.925  1.00  0.00    -0.272 NA
HETATM   33  C   UNL     1     -43.629  61.121 -60.934  1.00  0.00     0.116 A 
HETATM   34  C   UNL     1     -42.537  60.289 -60.757  1.00  0.00     0.020 A 
HETATM   35  C   UNL     1     -42.248  59.849 -59.468  1.00  0.00     0.018 A 
ENDBRANCH   3  30
TORSDOF 8
ENDMDL
MODEL 8
REMARK VINA RESULT:      -7.5      2.303      3.237
REMARK  8 active torsions:
REMARK  status: ('A' for Active; 'I' for Inactive)
REMARK    1  A    between atoms: C_3  and  O_4 
REMARK    2  A    between atoms: C_11  and  C_12 
REMARK    3  A    between atoms: C_12  and  C_13 
REMARK    4  A    between atoms: C_13  and  S_14 
REMARK    5  A    between atoms: S_14  and  C_15 
REMARK    6  A    between atoms: N_16  and  C_17 
REMARK    7  A    between atoms: C_17  and  C_18 
REMARK    8  A    between atoms: C_24  and  C_25 
ROOT
HETATM    1  C   UNL     1     -42.128  58.809 -51.541  1.00  0.00     0.192 A 
HETATM    2  N   UNL     1     -42.274  57.446 -51.540  1.00  0.00    -0.303 N 
HETATM    3  C   UNL     1     -41.281  56.970 -50.702  1.00  0.00     0.166 A 
HETATM    4  N   UNL     1     -40.612  58.006 -50.226  1.00  0.00    -0.128 NA
HETATM    5  N   UNL     1     -41.130  59.153 -50.765  1.00  0.00    -0.122 NA
ENDROOT
BRANCH   1   6
HETATM    6  S   UNL     1     -43.117  59.902 -52.445  1.00  0.00    -0.082 SA
BRANCH   6   7
HETATM    7  C   UNL     1     -42.051  60.158 -53.894  1.00  0.00     0.166 C 
BRANCH   7   8
HETATM    8  C   UNL     1     -42.842  60.558 -55.126  1.00  0.00     0.169 C 
HETATM    9  O   UNL     1     -43.050  61.725 -55.456  1.00  0.00    -0.291 OA
BRANCH   8  10
HETATM   10  C   UNL     1     -43.419  59.462 -55.969  1.00  0.00     0.011 A 
HETATM   11  C   UNL     1     -44.597  58.792 -55.617  1.00  0.00     0.017 A 
HETATM   12  C   UNL     1     -45.107  57.757 -56.410  1.00  0.00     0.031 A 
HETATM   13  C   UNL     1     -44.402  57.420 -57.569  1.00  0.00     0.045 A 
HETATM   14  N   UNL     1     -44.662  56.461 -58.518  1.00  0.00    -0.336 N 
HETATM   15  C   UNL     1     -43.235  58.071 -57.964  1.00  0.00     0.002 A 
HETATM   16  C   UNL     1     -43.712  56.484 -59.499  1.00  0.00     0.147 A 
HETATM   17  H   UNL     1     -45.445  55.825 -58.508  1.00  0.00     0.168 HD
HETATM   18  C   UNL     1     -42.798  57.475 -59.193  1.00  0.00     0.001 A 
HETATM   19  C   UNL     1     -41.597  57.873 -59.973  1.00  0.00     0.054 C 
HETATM   20  C   UNL     1     -42.740  59.111 -57.149  1.00  0.00     0.029 A 
BRANCH  16  21
HETATM   21  O   UNL     1     -43.808  55.628 -60.505  1.00  0.00    -0.346 OA
HETATM   22  H   UNL     1     -44.741  55.602 -60.781  1.00  0.00     0.219 HD
ENDBRANCH  16  21
ENDBRANCH   8  10
ENDBRANCH   7   8
ENDBRANCH   6   7
ENDBRANCH   1   6
BRANCH   2  23
HETATM   23  C   UNL     1     -43.356  56.682 -52.140  1.00  0.00     0.171 C 
BRANCH  23  24
HETATM   24  C   UNL     1     -43.010  56.040 -53.464  1.00  0.00    -0.040 A 
HETATM   25  C   UNL     1     -43.664  54.903 -53.964  1.00  0.00     0.009 A 
HETATM   26  C   UNL     1     -43.282  54.337 -55.182  1.00  0.00     0.001 A 
HETATM   27  C   UNL     1     -42.231  54.886 -55.911  1.00  0.00     0.000 A 
HETATM   28  C   UNL     1     -41.556  56.000 -55.421  1.00  0.00     0.001 A 
HETATM   29  C   UNL     1     -41.939  56.570 -54.205  1.00  0.00     0.009 A 
ENDBRANCH  23  24
ENDBRANCH   2  23
BRANCH   3  30
HETATM   30  C   UNL     1     -41.033  55.586 -50.317  1.00  0.00     0.029 A 
HETATM   31  C   UNL     1     -41.242  55.106 -49.029  1.00  0.00     0.131 A 
HETATM   32  N   UNL     1     -41.026  53.822 -48.647  1.00  0.00    -0.272 NA
HETATM   33  C   UNL     1     -40.619  52.963 -49.605  1.00  0.00     0.116 A 
HETATM   34  C   UNL     1     -40.412  53.328 -50.924  1.00  0.00     0.020 A 
HETATM   35  C   UNL     1     -40.624  54.658 -51.280  1.00  0.00     0.018 A 
ENDBRANCH   3  30
TORSDOF 8
ENDMDL
MODEL 9
REMARK VINA RESULT:      -7.2      3.177      8.426
REMARK  8 active torsions:
REMARK  status: ('A' for Active; 'I' for Inactive)
REMARK    1  A    between atoms: C_3  and  O_4 
REMARK    2  A    between atoms: C_11  and  C_12 
REMARK    3  A    between atoms: C_12  and  C_13 
REMARK    4  A    between atoms: C_13  and  S_14 
REMARK    5  A    between atoms: S_14  and  C_15 
REMARK    6  A    between atoms: N_16  and  C_17 
REMARK    7  A    between atoms: C_17  and  C_18 
REMARK    8  A    between atoms: C_24  and  C_25 
ROOT
HETATM    1  C   UNL     1     -42.435  58.777 -55.078  1.00  0.00     0.192 A 
HETATM    2  N   UNL     1     -42.882  58.514 -56.347  1.00  0.00    -0.303 N 
HETATM    3  C   UNL     1     -42.363  59.524 -57.137  1.00  0.00     0.166 A 
HETATM    4  N   UNL     1     -41.634  60.316 -56.369  1.00  0.00    -0.128 NA
HETATM    5  N   UNL     1     -41.695  59.858 -55.080  1.00  0.00    -0.122 NA
ENDROOT
BRANCH   1   6
HETATM    6  S   UNL     1     -42.807  57.819 -53.688  1.00  0.00    -0.082 SA
BRANCH   6   7
HETATM    7  C   UNL     1     -41.186  57.049 -53.400  1.00  0.00     0.166 C 
BRANCH   7   8
HETATM    8  C   UNL     1     -41.274  55.856 -52.465  1.00  0.00     0.169 C 
HETATM    9  O   UNL     1     -41.673  55.926 -51.303  1.00  0.00    -0.291 OA
BRANCH   8  10
HETATM   10  C   UNL     1     -40.825  54.527 -52.988  1.00  0.00     0.011 A 
HETATM   11  C   UNL     1     -40.598  54.299 -54.351  1.00  0.00     0.017 A 
HETATM   12  C   UNL     1     -40.197  53.042 -54.819  1.00  0.00     0.031 A 
HETATM   13  C   UNL     1     -40.025  52.023 -53.878  1.00  0.00     0.045 A 
HETATM   14  N   UNL     1     -39.647  50.714 -54.048  1.00  0.00    -0.336 N 
HETATM   15  C   UNL     1     -40.225  52.211 -52.512  1.00  0.00     0.002 A 
HETATM   16  C   UNL     1     -39.593  50.068 -52.845  1.00  0.00     0.147 A 
HETATM   17  H   UNL     1     -39.431  50.276 -54.931  1.00  0.00     0.168 HD
HETATM   18  C   UNL     1     -39.948  50.966 -51.857  1.00  0.00     0.001 A 
HETATM   19  C   UNL     1     -40.025  50.719 -50.392  1.00  0.00     0.054 C 
HETATM   20  C   UNL     1     -40.628  53.486 -52.063  1.00  0.00     0.029 A 
BRANCH  16  21
HETATM   21  O   UNL     1     -39.237  48.792 -52.817  1.00  0.00    -0.346 OA
HETATM   22  H   UNL     1     -38.954  48.586 -51.909  1.00  0.00     0.219 HD
ENDBRANCH  16  21
ENDBRANCH   8  10
ENDBRANCH   7   8
ENDBRANCH   6   7
ENDBRANCH   1   6
BRANCH   2  23
HETATM   23  C   UNL     1     -43.592  57.327 -56.795  1.00  0.00     0.171 C 
BRANCH  23  24
HETATM   24  C   UNL     1     -44.844  57.610 -57.594  1.00  0.00    -0.040 A 
HETATM   25  C   UNL     1     -45.915  58.373 -57.104  1.00  0.00     0.009 A 
HETATM   26  C   UNL     1     -47.059  58.579 -57.879  1.00  0.00     0.001 A 
HETATM   27  C   UNL     1     -47.158  58.010 -59.146  1.00  0.00     0.000 A 
HETATM   28  C   UNL     1     -46.116  57.232 -59.639  1.00  0.00     0.001 A 
HETATM   29  C   UNL     1     -44.970  57.029 -58.868  1.00  0.00     0.009 A 
ENDBRANCH  23  24
ENDBRANCH   2  23
BRANCH   3  30
HETATM   30  C   UNL     1     -42.500  59.680 -58.580  1.00  0.00     0.029 A 
HETATM   31  C   UNL     1     -41.842  58.869 -59.498  1.00  0.00     0.131 A 
HETATM   32  N   UNL     1     -41.957  58.989 -60.845  1.00  0.00    -0.272 NA
HETATM   33  C   UNL     1     -42.800  59.940 -61.300  1.00  0.00     0.116 A 
HETATM   34  C   UNL     1     -43.528  60.779 -60.475  1.00  0.00     0.020 A 
HETATM   35  C   UNL     1     -43.373  60.643 -59.097  1.00  0.00     0.018 A 
ENDBRANCH   3  30
TORSDOF 8
ENDMDL
MODEL 10
REMARK VINA RESULT:      -7.2      3.558      8.799
REMARK  8 active torsions:
REMARK  status: ('A' for Active; 'I' for Inactive)
REMARK    1  A    between atoms: C_3  and  O_4 
REMARK    2  A    between atoms: C_11  and  C_12 
REMARK    3  A    between atoms: C_12  and  C_13 
REMARK    4  A    between atoms: C_13  and  S_14 
REMARK    5  A    between atoms: S_14  and  C_15 
REMARK    6  A    between atoms: N_16  and  C_17 
REMARK    7  A    between atoms: C_17  and  C_18 
REMARK    8  A    between atoms: C_24  and  C_25 
ROOT
HETATM    1  C   UNL     1     -44.629  57.855 -54.383  1.00  0.00     0.192 A 
HETATM    2  N   UNL     1     -44.777  58.712 -53.324  1.00  0.00    -0.303 N 
HETATM    3  C   UNL     1     -45.239  59.896 -53.869  1.00  0.00     0.166 A 
HETATM    4  N   UNL     1     -45.375  59.724 -55.174  1.00  0.00    -0.128 NA
HETATM    5  N   UNL     1     -44.977  58.455 -55.496  1.00  0.00    -0.122 NA
ENDROOT
BRANCH   1   6
HETATM    6  S   UNL     1     -44.061  56.227 -54.258  1.00  0.00    -0.082 SA
BRANCH   6   7
HETATM    7  C   UNL     1     -42.293  56.490 -54.584  1.00  0.00     0.166 C 
BRANCH   7   8
HETATM    8  C   UNL     1     -41.588  55.210 -54.996  1.00  0.00     0.169 C 
HETATM    9  O   UNL     1     -41.401  54.878 -56.165  1.00  0.00    -0.291 OA
BRANCH   8  10
HETATM   10  C   UNL     1     -41.117  54.294 -53.908  1.00  0.00     0.011 A 
HETATM   11  C   UNL     1     -41.046  54.700 -52.569  1.00  0.00     0.017 A 
HETATM   12  C   UNL     1     -40.584  53.832 -51.572  1.00  0.00     0.031 A 
HETATM   13  C   UNL     1     -40.203  52.544 -51.958  1.00  0.00     0.045 A 
HETATM   14  N   UNL     1     -39.717  51.501 -51.208  1.00  0.00    -0.336 N 
HETATM   15  C   UNL     1     -40.272  52.095 -53.276  1.00  0.00     0.002 A 
HETATM   16  C   UNL     1     -39.484  50.409 -51.995  1.00  0.00     0.147 A 
HETATM   17  H   UNL     1     -39.555  51.521 -50.212  1.00  0.00     0.168 HD
HETATM   18  C   UNL     1     -39.816  50.736 -53.296  1.00  0.00     0.001 A 
HETATM   19  C   UNL     1     -39.737  49.864 -54.499  1.00  0.00     0.054 C 
HETATM   20  C   UNL     1     -40.741  52.986 -54.263  1.00  0.00     0.029 A 
BRANCH  16  21
HETATM   21  O   UNL     1     -39.018  49.302 -51.436  1.00  0.00    -0.346 OA
HETATM   22  H   UNL     1     -38.097  49.190 -51.730  1.00  0.00     0.219 HD
ENDBRANCH  16  21
ENDBRANCH   8  10
ENDBRANCH   7   8
ENDBRANCH   6   7
ENDBRANCH   1   6
BRANCH   2  23
HETATM   23  C   UNL     1     -44.652  58.386 -51.913  1.00  0.00     0.171 C 
BRANCH  23  24
HETATM   24  C   UNL     1     -43.311  58.731 -51.305  1.00  0.00    -0.040 A 
HETATM   25  C   UNL     1     -42.961  60.026 -50.896  1.00  0.00     0.009 A 
HETATM   26  C   UNL     1     -41.696  60.290 -50.366  1.00  0.00     0.001 A 
HETATM   27  C   UNL     1     -40.757  59.269 -50.254  1.00  0.00     0.000 A 
HETATM   28  C   UNL     1     -41.078  57.983 -50.675  1.00  0.00     0.001 A 
HETATM   29  C   UNL     1     -42.344  57.716 -51.201  1.00  0.00     0.009 A 
ENDBRANCH  23  24
ENDBRANCH   2  23
BRANCH   3  30
HETATM   30  C   UNL     1     -45.606  61.116 -53.161  1.00  0.00     0.029 A 
HETATM   31  C   UNL     1     -44.818  62.261 -53.160  1.00  0.00     0.131 A 
HETATM   32  N   UNL     1     -45.140  63.411 -52.515  1.00  0.00    -0.272 NA
HETATM   33  C   UNL     1     -46.325  63.434 -51.870  1.00  0.00     0.116 A 
HETATM   34  C   UNL     1     -47.200  62.362 -51.835  1.00  0.00     0.020 A 
HETATM   35  C   UNL     1     -46.831  61.191 -52.492  1.00  0.00     0.018 A 
ENDBRANCH   3  30
TORSDOF 8
ENDMDL
