MODEL 1
REMARK VINA RESULT:      -7.1      0.000      0.000
REMARK  6 active torsions:
REMARK  status: ('A' for Active; 'I' for Inactive)
REMARK    1  A    between atoms: C_2  and  O_3 
REMARK    2  A    between atoms: O_3  and  C_4 
REMARK    3  A    between atoms: C_4  and  C_5 
REMARK    4  A    between atoms: C_10  and  C_11 
REMARK    5  A    between atoms: C_11  and  N_12 
REMARK    6  A    between atoms: C_11  and  C_16 
ROOT
HETATM    1  C   UNL     1     -42.177  56.513 -54.682  1.00  0.00     0.118 A 
HETATM    2  N   UNL     1     -41.556  57.725 -54.533  1.00  0.00    -0.350 N 
HETATM    3  H   UNL     1     -41.419  58.400 -55.276  1.00  0.00     0.166 HD
HETATM    4  C   UNL     1     -41.224  57.936 -53.220  1.00  0.00     0.043 A 
HETATM    5  C   UNL     1     -41.563  56.782 -52.507  1.00  0.00     0.002 A 
HETATM    6  C   UNL     1     -42.127  55.844 -53.449  1.00  0.00     0.022 A 
HETATM    7  C   UNL     1     -40.644  59.066 -52.630  1.00  0.00     0.030 A 
HETATM    8  C   UNL     1     -40.400  59.033 -51.258  1.00  0.00     0.002 A 
HETATM    9  C   UNL     1     -40.722  57.909 -50.510  1.00  0.00     0.001 A 
HETATM   10  C   UNL     1     -41.297  56.785 -51.118  1.00  0.00     0.014 A 
ENDROOT
BRANCH   6  11
HETATM   11  C   UNL     1     -42.643  54.432 -53.277  1.00  0.00     0.252 C 
BRANCH  11  12
HETATM   12  N   UNL     1     -43.674  54.378 -52.219  1.00  0.00    -0.067 N 
HETATM   13  H   UNL     1     -44.266  53.550 -52.324  1.00  0.00     0.275 HD
HETATM   14  H   UNL     1     -43.248  54.401 -51.289  1.00  0.00     0.275 HD
HETATM   15  H   UNL     1     -44.276  55.212 -52.328  1.00  0.00     0.275 HD
ENDBRANCH  11  12
BRANCH  11  16
HETATM   16  C   UNL     1     -41.515  53.442 -53.119  1.00  0.00    -0.024 A 
HETATM   17  C   UNL     1     -41.154  52.644 -54.225  1.00  0.00     0.009 A 
HETATM   18  C   UNL     1     -40.150  51.681 -54.119  1.00  0.00     0.001 A 
HETATM   19  C   UNL     1     -39.488  51.496 -52.910  1.00  0.00     0.000 A 
HETATM   20  C   UNL     1     -39.827  52.274 -51.805  1.00  0.00     0.001 A 
HETATM   21  C   UNL     1     -40.833  53.240 -51.904  1.00  0.00     0.009 A 
ENDBRANCH  11  16
ENDBRANCH   6  11
BRANCH   1  22
HETATM   22  C   UNL     1     -42.780  56.052 -55.910  1.00  0.00     0.310 C 
HETATM   23  O   UNL     1     -42.439  55.011 -56.460  1.00  0.00    -0.258 OA
BRANCH  22  24
HETATM   24  O   UNL     1     -43.738  56.916 -56.319  1.00  0.00    -0.317 OA
BRANCH  24  25
HETATM   25  C   UNL     1     -43.742  57.245 -57.718  1.00  0.00     0.175 C 
HETATM   26  C   UNL     1     -42.568  58.155 -58.030  1.00  0.00     0.034 C 
ENDBRANCH  24  25
ENDBRANCH  22  24
ENDBRANCH   1  22
TORSDOF 6
ENDMDL
MODEL 2
REMARK VINA RESULT:      -7.0      2.578      5.858
REMARK  6 active torsions:
REMARK  status: ('A' for Active; 'I' for Inactive)
REMARK    1  A    between atoms: C_2  and  O_3 
REMARK    2  A    between atoms: O_3  and  C_4 
REMARK    3  A    between atoms: C_4  and  C_5 
REMARK    4  A    between atoms: C_10  and  C_11 
REMARK    5  A    between atoms: C_11  and  N_12 
REMARK    6  A    between atoms: C_11  and  C_16 
ROOT
HETATM    1  C   UNL     1     -40.819  54.058 -51.026  1.00  0.00     0.118 A 
HETATM    2  N   UNL     1     -39.777  53.168 -51.022  1.00  0.00    -0.350 N 
HETATM    3  H   UNL     1     -39.094  53.081 -50.279  1.00  0.00     0.166 HD
HETATM    4  C   UNL     1     -39.837  52.353 -52.122  1.00  0.00     0.043 A 
HETATM    5  C   UNL     1     -40.907  52.786 -52.912  1.00  0.00     0.002 A 
HETATM    6  C   UNL     1     -41.509  53.913 -52.240  1.00  0.00     0.022 A 
HETATM    7  C   UNL     1     -39.014  51.274 -52.462  1.00  0.00     0.030 A 
HETATM    8  C   UNL     1     -39.284  50.596 -53.651  1.00  0.00     0.002 A 
HETATM    9  C   UNL     1     -40.336  50.990 -54.465  1.00  0.00     0.001 A 
HETATM   10  C   UNL     1     -41.147  52.077 -54.112  1.00  0.00     0.014 A 
ENDROOT
BRANCH   6  11
HETATM   11  C   UNL     1     -42.669  54.809 -52.618  1.00  0.00     0.252 C 
BRANCH  11  12
HETATM   12  N   UNL     1     -43.945  54.243 -52.134  1.00  0.00    -0.067 N 
HETATM   13  H   UNL     1     -43.952  54.168 -51.113  1.00  0.00     0.275 HD
HETATM   14  H   UNL     1     -44.741  54.796 -52.459  1.00  0.00     0.275 HD
HETATM   15  H   UNL     1     -44.028  53.287 -52.520  1.00  0.00     0.275 HD
ENDBRANCH  11  12
BRANCH  11  16
HETATM   16  C   UNL     1     -42.645  55.161 -54.086  1.00  0.00    -0.024 A 
HETATM   17  C   UNL     1     -41.992  56.345 -54.487  1.00  0.00     0.009 A 
HETATM   18  C   UNL     1     -41.980  56.742 -55.825  1.00  0.00     0.001 A 
HETATM   19  C   UNL     1     -42.619  55.966 -56.786  1.00  0.00     0.000 A 
HETATM   20  C   UNL     1     -43.270  54.792 -56.412  1.00  0.00     0.001 A 
HETATM   21  C   UNL     1     -43.285  54.390 -55.073  1.00  0.00     0.009 A 
ENDBRANCH  11  16
ENDBRANCH   6  11
BRANCH   1  22
HETATM   22  C   UNL     1     -41.127  54.956 -49.939  1.00  0.00     0.310 C 
HETATM   23  O   UNL     1     -41.857  54.636 -49.008  1.00  0.00    -0.258 OA
BRANCH  22  24
HETATM   24  O   UNL     1     -40.500  56.142 -50.114  1.00  0.00    -0.317 OA
BRANCH  24  25
HETATM   25  C   UNL     1     -41.345  57.279 -50.356  1.00  0.00     0.175 C 
HETATM   26  C   UNL     1     -40.777  58.101 -51.499  1.00  0.00     0.034 C 
ENDBRANCH  24  25
ENDBRANCH  22  24
ENDBRANCH   1  22
TORSDOF 6
ENDMDL
MODEL 3
REMARK VINA RESULT:      -6.9      2.023      4.683
REMARK  6 active torsions:
REMARK  status: ('A' for Active; 'I' for Inactive)
REMARK    1  A    between atoms: C_2  and  O_3 
REMARK    2  A    between atoms: O_3  and  C_4 
REMARK    3  A    between atoms: C_4  and  C_5 
REMARK    4  A    between atoms: C_10  and  C_11 
REMARK    5  A    between atoms: C_11  and  N_12 
REMARK    6  A    between atoms: C_11  and  C_16 
ROOT
HETATM    1  C   UNL     1     -42.466  57.315 -55.324  1.00  0.00     0.118 A 
HETATM    2  N   UNL     1     -42.181  58.206 -56.326  1.00  0.00    -0.350 N 
HETATM    3  H   UNL     1     -41.820  59.142 -56.183  1.00  0.00     0.166 HD
HETATM    4  C   UNL     1     -42.371  57.625 -57.552  1.00  0.00     0.043 A 
HETATM    5  C   UNL     1     -42.878  56.340 -57.339  1.00  0.00     0.002 A 
HETATM    6  C   UNL     1     -42.992  56.154 -55.911  1.00  0.00     0.022 A 
HETATM    7  C   UNL     1     -42.129  58.158 -58.824  1.00  0.00     0.030 A 
HETATM    8  C   UNL     1     -42.407  57.357 -59.931  1.00  0.00     0.002 A 
HETATM    9  C   UNL     1     -42.912  56.075 -59.766  1.00  0.00     0.001 A 
HETATM   10  C   UNL     1     -43.153  55.559 -58.485  1.00  0.00     0.014 A 
ENDROOT
BRANCH   6  11
HETATM   11  C   UNL     1     -43.501  54.993 -55.084  1.00  0.00     0.252 C 
BRANCH  11  12
HETATM   12  N   UNL     1     -44.669  55.399 -54.275  1.00  0.00    -0.067 N 
HETATM   13  H   UNL     1     -45.138  56.211 -54.687  1.00  0.00     0.275 HD
HETATM   14  H   UNL     1     -45.325  54.624 -54.161  1.00  0.00     0.275 HD
HETATM   15  H   UNL     1     -44.320  55.677 -53.342  1.00  0.00     0.275 HD
ENDBRANCH  11  12
BRANCH  11  16
HETATM   16  C   UNL     1     -42.387  54.333 -54.308  1.00  0.00    -0.024 A 
HETATM   17  C   UNL     1     -41.257  53.865 -55.011  1.00  0.00     0.009 A 
HETATM   18  C   UNL     1     -40.220  53.206 -54.348  1.00  0.00     0.001 A 
HETATM   19  C   UNL     1     -40.293  53.001 -52.975  1.00  0.00     0.000 A 
HETATM   20  C   UNL     1     -41.399  53.456 -52.261  1.00  0.00     0.001 A 
HETATM   21  C   UNL     1     -42.441  54.116 -52.919  1.00  0.00     0.009 A 
ENDBRANCH  11  16
ENDBRANCH   6  11
BRANCH   1  22
HETATM   22  C   UNL     1     -42.231  57.565 -53.922  1.00  0.00     0.310 C 
HETATM   23  O   UNL     1     -41.122  57.457 -53.411  1.00  0.00    -0.258 OA
BRANCH  22  24
HETATM   24  O   UNL     1     -43.381  57.926 -53.307  1.00  0.00    -0.317 OA
BRANCH  24  25
HETATM   25  C   UNL     1     -43.323  58.063 -51.878  1.00  0.00     0.175 C 
HETATM   26  C   UNL     1     -44.400  57.205 -51.240  1.00  0.00     0.034 C 
ENDBRANCH  24  25
ENDBRANCH  22  24
ENDBRANCH   1  22
TORSDOF 6
ENDMDL
MODEL 4
REMARK VINA RESULT:      -6.8      1.793      4.909
REMARK  6 active torsions:
REMARK  status: ('A' for Active; 'I' for Inactive)
REMARK    1  A    between atoms: C_2  and  O_3 
REMARK    2  A    between atoms: O_3  and  C_4 
REMARK    3  A    between atoms: C_4  and  C_5 
REMARK    4  A    between atoms: C_10  and  C_11 
REMARK    5  A    between atoms: C_11  and  N_12 
REMARK    6  A    between atoms: C_11  and  C_16 
ROOT
HETATM    1  C   UNL     1     -42.442  55.148 -53.612  1.00  0.00     0.118 A 
HETATM    2  N   UNL     1     -41.813  54.179 -54.348  1.00  0.00    -0.350 N 
HETATM    3  H   UNL     1     -41.836  54.114 -55.359  1.00  0.00     0.166 HD
HETATM    4  C   UNL     1     -41.077  53.359 -53.534  1.00  0.00     0.043 A 
HETATM    5  C   UNL     1     -41.305  53.758 -52.213  1.00  0.00     0.002 A 
HETATM    6  C   UNL     1     -42.223  54.872 -52.253  1.00  0.00     0.022 A 
HETATM    7  C   UNL     1     -40.236  52.296 -53.884  1.00  0.00     0.030 A 
HETATM    8  C   UNL     1     -39.591  51.607 -52.857  1.00  0.00     0.002 A 
HETATM    9  C   UNL     1     -39.788  51.969 -51.532  1.00  0.00     0.001 A 
HETATM   10  C   UNL     1     -40.638  53.033 -51.199  1.00  0.00     0.014 A 
ENDROOT
BRANCH   6  11
HETATM   11  C   UNL     1     -42.854  55.697 -51.152  1.00  0.00     0.252 C 
BRANCH  11  12
HETATM   12  N   UNL     1     -44.328  55.624 -51.225  1.00  0.00    -0.067 N 
HETATM   13  H   UNL     1     -44.683  56.127 -52.043  1.00  0.00     0.275 HD
HETATM   14  H   UNL     1     -44.649  54.653 -51.232  1.00  0.00     0.275 HD
HETATM   15  H   UNL     1     -44.704  56.090 -50.381  1.00  0.00     0.275 HD
ENDBRANCH  11  12
BRANCH  11  16
HETATM   16  C   UNL     1     -42.286  57.095 -51.109  1.00  0.00    -0.024 A 
HETATM   17  C   UNL     1     -40.895  57.256 -50.942  1.00  0.00     0.009 A 
HETATM   18  C   UNL     1     -40.324  58.526 -50.848  1.00  0.00     0.001 A 
HETATM   19  C   UNL     1     -41.130  59.657 -50.918  1.00  0.00     0.000 A 
HETATM   20  C   UNL     1     -42.507  59.521 -51.084  1.00  0.00     0.001 A 
HETATM   21  C   UNL     1     -43.084  58.252 -51.178  1.00  0.00     0.009 A 
ENDBRANCH  11  16
ENDBRANCH   6  11
BRANCH   1  22
HETATM   22  C   UNL     1     -43.177  56.253 -54.179  1.00  0.00     0.310 C 
HETATM   23  O   UNL     1     -44.402  56.272 -54.229  1.00  0.00    -0.258 OA
BRANCH  22  24
HETATM   24  O   UNL     1     -42.327  57.212 -54.614  1.00  0.00    -0.317 OA
BRANCH  24  25
HETATM   25  C   UNL     1     -42.900  58.507 -54.859  1.00  0.00     0.175 C 
HETATM   26  C   UNL     1     -41.842  59.577 -54.663  1.00  0.00     0.034 C 
ENDBRANCH  24  25
ENDBRANCH  22  24
ENDBRANCH   1  22
TORSDOF 6
ENDMDL
MODEL 5
REMARK VINA RESULT:      -6.8      2.267      5.627
REMARK  6 active torsions:
REMARK  status: ('A' for Active; 'I' for Inactive)
REMARK    1  A    between atoms: C_2  and  O_3 
REMARK    2  A    between atoms: O_3  and  C_4 
REMARK    3  A    between atoms: C_4  and  C_5 
REMARK    4  A    between atoms: C_10  and  C_11 
REMARK    5  A    between atoms: C_11  and  N_12 
REMARK    6  A    between atoms: C_11  and  C_16 
ROOT
HETATM    1  C   UNL     1     -42.068  55.273 -51.760  1.00  0.00     0.118 A 
HETATM    2  N   UNL     1     -40.976  54.540 -51.378  1.00  0.00    -0.350 N 
HETATM    3  H   UNL     1     -40.472  54.663 -50.508  1.00  0.00     0.166 HD
HETATM    4  C   UNL     1     -40.712  53.558 -52.297  1.00  0.00     0.043 A 
HETATM    5  C   UNL     1     -41.613  53.715 -53.355  1.00  0.00     0.002 A 
HETATM    6  C   UNL     1     -42.452  54.847 -53.041  1.00  0.00     0.022 A 
HETATM    7  C   UNL     1     -39.737  52.554 -52.256  1.00  0.00     0.030 A 
HETATM    8  C   UNL     1     -39.670  51.665 -53.328  1.00  0.00     0.002 A 
HETATM    9  C   UNL     1     -40.544  51.783 -54.399  1.00  0.00     0.001 A 
HETATM   10  C   UNL     1     -41.511  52.797 -54.426  1.00  0.00     0.014 A 
ENDROOT
BRANCH   6  11
HETATM   11  C   UNL     1     -43.575  55.511 -53.808  1.00  0.00     0.252 C 
BRANCH  11  12
HETATM   12  N   UNL     1     -44.575  54.511 -54.239  1.00  0.00    -0.067 N 
HETATM   13  H   UNL     1     -45.002  54.046 -53.434  1.00  0.00     0.275 HD
HETATM   14  H   UNL     1     -45.291  54.939 -54.830  1.00  0.00     0.275 HD
HETATM   15  H   UNL     1     -44.077  53.792 -54.791  1.00  0.00     0.275 HD
ENDBRANCH  11  12
BRANCH  11  16
HETATM   16  C   UNL     1     -43.049  56.401 -54.907  1.00  0.00    -0.024 A 
HETATM   17  C   UNL     1     -42.718  57.737 -54.596  1.00  0.00     0.009 A 
HETATM   18  C   UNL     1     -42.272  58.616 -55.584  1.00  0.00     0.001 A 
HETATM   19  C   UNL     1     -42.149  58.179 -56.899  1.00  0.00     0.000 A 
HETATM   20  C   UNL     1     -42.470  56.864 -57.228  1.00  0.00     0.001 A 
HETATM   21  C   UNL     1     -42.918  55.979 -56.243  1.00  0.00     0.009 A 
ENDBRANCH  11  16
ENDBRANCH   6  11
BRANCH   1  22
HETATM   22  C   UNL     1     -42.694  56.287 -50.944  1.00  0.00     0.310 C 
HETATM   23  O   UNL     1     -43.893  56.276 -50.687  1.00  0.00    -0.258 OA
BRANCH  22  24
HETATM   24  O   UNL     1     -41.778  57.193 -50.532  1.00  0.00    -0.317 OA
BRANCH  24  25
HETATM   25  C   UNL     1     -41.835  58.485 -51.159  1.00  0.00     0.175 C 
HETATM   26  C   UNL     1     -40.472  58.832 -51.731  1.00  0.00     0.034 C 
ENDBRANCH  24  25
ENDBRANCH  22  24
ENDBRANCH   1  22
TORSDOF 6
ENDMDL
MODEL 6
REMARK VINA RESULT:      -6.7      1.936      4.411
REMARK  6 active torsions:
REMARK  status: ('A' for Active; 'I' for Inactive)
REMARK    1  A    between atoms: C_2  and  O_3 
REMARK    2  A    between atoms: O_3  and  C_4 
REMARK    3  A    between atoms: C_4  and  C_5 
REMARK    4  A    between atoms: C_10  and  C_11 
REMARK    5  A    between atoms: C_11  and  N_12 
REMARK    6  A    between atoms: C_11  and  C_16 
ROOT
HETATM    1  C   UNL     1     -42.726  56.883 -53.394  1.00  0.00     0.118 A 
HETATM    2  N   UNL     1     -42.664  57.868 -54.344  1.00  0.00    -0.350 N 
HETATM    3  H   UNL     1     -42.532  58.853 -54.148  1.00  0.00     0.166 HD
HETATM    4  C   UNL     1     -42.717  57.325 -55.601  1.00  0.00     0.043 A 
HETATM    5  C   UNL     1     -42.907  55.948 -55.461  1.00  0.00     0.002 A 
HETATM    6  C   UNL     1     -42.967  55.664 -54.046  1.00  0.00     0.022 A 
HETATM    7  C   UNL     1     -42.614  57.968 -56.841  1.00  0.00     0.030 A 
HETATM    8  C   UNL     1     -42.702  57.185 -57.991  1.00  0.00     0.002 A 
HETATM    9  C   UNL     1     -42.889  55.813 -57.899  1.00  0.00     0.001 A 
HETATM   10  C   UNL     1     -42.996  55.187 -56.650  1.00  0.00     0.014 A 
ENDROOT
BRANCH   6  11
HETATM   11  C   UNL     1     -43.184  54.373 -53.287  1.00  0.00     0.252 C 
BRANCH  11  12
HETATM   12  N   UNL     1     -43.836  54.634 -51.987  1.00  0.00    -0.067 N 
HETATM   13  H   UNL     1     -44.265  53.784 -51.612  1.00  0.00     0.275 HD
HETATM   14  H   UNL     1     -43.174  55.030 -51.316  1.00  0.00     0.275 HD
HETATM   15  H   UNL     1     -44.592  55.321 -52.151  1.00  0.00     0.275 HD
ENDBRANCH  11  12
BRANCH  11  16
HETATM   16  C   UNL     1     -41.919  53.553 -53.211  1.00  0.00    -0.024 A 
HETATM   17  C   UNL     1     -41.485  52.868 -54.366  1.00  0.00     0.009 A 
HETATM   18  C   UNL     1     -40.348  52.059 -54.338  1.00  0.00     0.001 A 
HETATM   19  C   UNL     1     -39.625  51.917 -53.158  1.00  0.00     0.000 A 
HETATM   20  C   UNL     1     -40.035  52.584 -52.006  1.00  0.00     0.001 A 
HETATM   21  C   UNL     1     -41.173  53.396 -52.028  1.00  0.00     0.009 A 
ENDBRANCH  11  16
ENDBRANCH   6  11
BRANCH   1  22
HETATM   22  C   UNL     1     -42.550  57.105 -51.978  1.00  0.00     0.310 C 
HETATM   23  O   UNL     1     -43.427  57.595 -51.275  1.00  0.00    -0.258 OA
BRANCH  22  24
HETATM   24  O   UNL     1     -41.322  56.694 -51.584  1.00  0.00    -0.317 OA
BRANCH  24  25
HETATM   25  C   UNL     1     -40.995  56.902 -50.201  1.00  0.00     0.175 C 
HETATM   26  C   UNL     1     -41.253  55.627 -49.420  1.00  0.00     0.034 C 
ENDBRANCH  24  25
ENDBRANCH  22  24
ENDBRANCH   1  22
TORSDOF 6
ENDMDL
MODEL 7
REMARK VINA RESULT:      -6.6      2.416      5.365
REMARK  6 active torsions:
REMARK  status: ('A' for Active; 'I' for Inactive)
REMARK    1  A    between atoms: C_2  and  O_3 
REMARK    2  A    between atoms: O_3  and  C_4 
REMARK    3  A    between atoms: C_4  and  C_5 
REMARK    4  A    between atoms: C_10  and  C_11 
REMARK    5  A    between atoms: C_11  and  N_12 
REMARK    6  A    between atoms: C_11  and  C_16 
ROOT
HETATM    1  C   UNL     1     -40.692  53.771 -53.751  1.00  0.00     0.118 A 
HETATM    2  N   UNL     1     -40.689  52.604 -54.468  1.00  0.00    -0.350 N 
HETATM    3  H   UNL     1     -40.918  52.528 -55.452  1.00  0.00     0.166 HD
HETATM    4  C   UNL     1     -40.249  51.565 -53.690  1.00  0.00     0.043 A 
HETATM    5  C   UNL     1     -40.042  52.060 -52.399  1.00  0.00     0.002 A 
HETATM    6  C   UNL     1     -40.375  53.465 -52.419  1.00  0.00     0.022 A 
HETATM    7  C   UNL     1     -40.030  50.229 -54.049  1.00  0.00     0.030 A 
HETATM    8  C   UNL     1     -39.576  49.354 -53.063  1.00  0.00     0.002 A 
HETATM    9  C   UNL     1     -39.356  49.802 -51.768  1.00  0.00     0.001 A 
HETATM   10  C   UNL     1     -39.586  51.142 -51.425  1.00  0.00     0.014 A 
ENDROOT
BRANCH   6  11
HETATM   11  C   UNL     1     -40.378  54.514 -51.328  1.00  0.00     0.252 C 
BRANCH  11  12
HETATM   12  N   UNL     1     -39.678  54.019 -50.124  1.00  0.00    -0.067 N 
HETATM   13  H   UNL     1     -38.934  54.662 -49.840  1.00  0.00     0.275 HD
HETATM   14  H   UNL     1     -40.333  53.864 -49.355  1.00  0.00     0.275 HD
HETATM   15  H   UNL     1     -39.237  53.116 -50.371  1.00  0.00     0.275 HD
ENDBRANCH  11  12
BRANCH  11  16
HETATM   16  C   UNL     1     -41.765  55.056 -51.081  1.00  0.00    -0.024 A 
HETATM   17  C   UNL     1     -42.814  54.145 -50.834  1.00  0.00     0.009 A 
HETATM   18  C   UNL     1     -44.123  54.590 -50.645  1.00  0.00     0.001 A 
HETATM   19  C   UNL     1     -44.410  55.949 -50.701  1.00  0.00     0.000 A 
HETATM   20  C   UNL     1     -43.390  56.867 -50.943  1.00  0.00     0.001 A 
HETATM   21  C   UNL     1     -42.076  56.427 -51.133  1.00  0.00     0.009 A 
ENDBRANCH  11  16
ENDBRANCH   6  11
BRANCH   1  22
HETATM   22  C   UNL     1     -40.963  55.073 -54.315  1.00  0.00     0.310 C 
HETATM   23  O   UNL     1     -40.072  55.871 -54.583  1.00  0.00    -0.258 OA
BRANCH  22  24
HETATM   24  O   UNL     1     -42.293  55.243 -54.493  1.00  0.00    -0.317 OA
BRANCH  24  25
HETATM   25  C   UNL     1     -42.734  56.587 -54.744  1.00  0.00     0.175 C 
HETATM   26  C   UNL     1     -44.233  56.680 -54.522  1.00  0.00     0.034 C 
ENDBRANCH  24  25
ENDBRANCH  22  24
ENDBRANCH   1  22
TORSDOF 6
ENDMDL
MODEL 8
REMARK VINA RESULT:      -6.5      1.453      4.635
REMARK  6 active torsions:
REMARK  status: ('A' for Active; 'I' for Inactive)
REMARK    1  A    between atoms: C_2  and  O_3 
REMARK    2  A    between atoms: O_3  and  C_4 
REMARK    3  A    between atoms: C_4  and  C_5 
REMARK    4  A    between atoms: C_10  and  C_11 
REMARK    5  A    between atoms: C_11  and  N_12 
REMARK    6  A    between atoms: C_11  and  C_16 
ROOT
HETATM    1  C   UNL     1     -42.127  55.914 -54.910  1.00  0.00     0.118 A 
HETATM    2  N   UNL     1     -41.354  54.952 -55.506  1.00  0.00    -0.350 N 
HETATM    3  H   UNL     1     -41.086  54.948 -56.483  1.00  0.00     0.166 HD
HETATM    4  C   UNL     1     -40.921  54.042 -54.577  1.00  0.00     0.043 A 
HETATM    5  C   UNL     1     -41.504  54.377 -53.352  1.00  0.00     0.002 A 
HETATM    6  C   UNL     1     -42.323  55.546 -53.570  1.00  0.00     0.022 A 
HETATM    7  C   UNL     1     -40.060  52.952 -54.750  1.00  0.00     0.030 A 
HETATM    8  C   UNL     1     -39.770  52.166 -53.635  1.00  0.00     0.002 A 
HETATM    9  C   UNL     1     -40.326  52.462 -52.399  1.00  0.00     0.001 A 
HETATM   10  C   UNL     1     -41.190  53.554 -52.245  1.00  0.00     0.014 A 
ENDROOT
BRANCH   6  11
HETATM   11  C   UNL     1     -43.210  56.343 -52.638  1.00  0.00     0.252 C 
BRANCH  11  12
HETATM   12  N   UNL     1     -44.438  56.782 -53.334  1.00  0.00    -0.067 N 
HETATM   13  H   UNL     1     -44.357  56.647 -54.345  1.00  0.00     0.275 HD
HETATM   14  H   UNL     1     -45.260  56.296 -52.970  1.00  0.00     0.275 HD
HETATM   15  H   UNL     1     -44.548  57.795 -53.159  1.00  0.00     0.275 HD
ENDBRANCH  11  12
BRANCH  11  16
HETATM   16  C   UNL     1     -42.443  57.442 -51.943  1.00  0.00    -0.024 A 
HETATM   17  C   UNL     1     -42.912  58.768 -52.053  1.00  0.00     0.009 A 
HETATM   18  C   UNL     1     -42.216  59.827 -51.469  1.00  0.00     0.001 A 
HETATM   19  C   UNL     1     -41.040  59.584 -50.768  1.00  0.00     0.000 A 
HETATM   20  C   UNL     1     -40.559  58.282 -50.647  1.00  0.00     0.001 A 
HETATM   21  C   UNL     1     -41.252  57.216 -51.230  1.00  0.00     0.009 A 
ENDBRANCH  11  16
ENDBRANCH   6  11
BRANCH   1  22
HETATM   22  C   UNL     1     -42.619  57.094 -55.581  1.00  0.00     0.310 C 
HETATM   23  O   UNL     1     -42.132  58.204 -55.399  1.00  0.00    -0.258 OA
BRANCH  22  24
HETATM   24  O   UNL     1     -43.645  56.777 -56.404  1.00  0.00    -0.317 OA
BRANCH  24  25
HETATM   25  C   UNL     1     -43.457  57.070 -57.798  1.00  0.00     0.175 C 
HETATM   26  C   UNL     1     -43.319  55.773 -58.575  1.00  0.00     0.034 C 
ENDBRANCH  24  25
ENDBRANCH  22  24
ENDBRANCH   1  22
TORSDOF 6
ENDMDL
MODEL 9
REMARK VINA RESULT:      -6.5     15.431     17.723
REMARK  6 active torsions:
REMARK  status: ('A' for Active; 'I' for Inactive)
REMARK    1  A    between atoms: C_2  and  O_3 
REMARK    2  A    between atoms: O_3  and  C_4 
REMARK    3  A    between atoms: C_4  and  C_5 
REMARK    4  A    between atoms: C_10  and  C_11 
REMARK    5  A    between atoms: C_11  and  N_12 
REMARK    6  A    between atoms: C_11  and  C_16 
ROOT
HETATM    1  C   UNL     1     -34.527  40.917 -54.698  1.00  0.00     0.118 A 
HETATM    2  N   UNL     1     -33.159  40.990 -54.694  1.00  0.00    -0.350 N 
HETATM    3  H   UNL     1     -32.612  41.558 -54.059  1.00  0.00     0.166 HD
HETATM    4  C   UNL     1     -32.630  40.122 -55.613  1.00  0.00     0.043 A 
HETATM    5  C   UNL     1     -33.695  39.528 -56.297  1.00  0.00     0.002 A 
HETATM    6  C   UNL     1     -34.915  40.074 -55.751  1.00  0.00     0.022 A 
HETATM    7  C   UNL     1     -31.286  39.836 -55.879  1.00  0.00     0.030 A 
HETATM    8  C   UNL     1     -31.002  38.903 -56.876  1.00  0.00     0.002 A 
HETATM    9  C   UNL     1     -32.028  38.288 -57.580  1.00  0.00     0.001 A 
HETATM   10  C   UNL     1     -33.368  38.591 -57.304  1.00  0.00     0.014 A 
ENDROOT
BRANCH   6  11
HETATM   11  C   UNL     1     -36.368  39.839 -56.101  1.00  0.00     0.252 C 
BRANCH  11  12
HETATM   12  N   UNL     1     -36.713  38.408 -55.971  1.00  0.00    -0.067 N 
HETATM   13  H   UNL     1     -36.913  37.992 -56.885  1.00  0.00     0.275 HD
HETATM   14  H   UNL     1     -35.970  37.892 -55.495  1.00  0.00     0.275 HD
HETATM   15  H   UNL     1     -37.575  38.347 -55.402  1.00  0.00     0.275 HD
ENDBRANCH  11  12
BRANCH  11  16
HETATM   16  C   UNL     1     -36.728  40.463 -57.428  1.00  0.00    -0.024 A 
HETATM   17  C   UNL     1     -36.979  39.617 -58.528  1.00  0.00     0.009 A 
HETATM   18  C   UNL     1     -37.270  40.142 -59.788  1.00  0.00     0.001 A 
HETATM   19  C   UNL     1     -37.315  41.520 -59.973  1.00  0.00     0.000 A 
HETATM   20  C   UNL     1     -37.072  42.374 -58.900  1.00  0.00     0.001 A 
HETATM   21  C   UNL     1     -36.779  41.854 -57.636  1.00  0.00     0.009 A 
ENDBRANCH  11  16
ENDBRANCH   6  11
BRANCH   1  22
HETATM   22  C   UNL     1     -35.382  41.594 -53.751  1.00  0.00     0.310 C 
HETATM   23  O   UNL     1     -35.918  42.669 -54.000  1.00  0.00    -0.258 OA
BRANCH  22  24
HETATM   24  O   UNL     1     -35.487  40.874 -52.611  1.00  0.00    -0.317 OA
BRANCH  24  25
HETATM   25  C   UNL     1     -35.090  41.539 -51.400  1.00  0.00     0.175 C 
HETATM   26  C   UNL     1     -33.698  41.082 -51.002  1.00  0.00     0.034 C 
ENDBRANCH  24  25
ENDBRANCH  22  24
ENDBRANCH   1  22
TORSDOF 6
ENDMDL
MODEL 10
REMARK VINA RESULT:      -6.4      2.396      5.591
REMARK  6 active torsions:
REMARK  status: ('A' for Active; 'I' for Inactive)
REMARK    1  A    between atoms: C_2  and  O_3 
REMARK    2  A    between atoms: O_3  and  C_4 
REMARK    3  A    between atoms: C_4  and  C_5 
REMARK    4  A    between atoms: C_10  and  C_11 
REMARK    5  A    between atoms: C_11  and  N_12 
REMARK    6  A    between atoms: C_11  and  C_16 
ROOT
HETATM    1  C   UNL     1     -41.759  57.658 -54.132  1.00  0.00     0.118 A 
HETATM    2  N   UNL     1     -40.921  56.848 -53.412  1.00  0.00    -0.350 N 
HETATM    3  H   UNL     1     -40.249  57.173 -52.727  1.00  0.00     0.166 HD
HETATM    4  C   UNL     1     -41.178  55.530 -53.685  1.00  0.00     0.043 A 
HETATM    5  C   UNL     1     -42.158  55.486 -54.680  1.00  0.00     0.002 A 
HETATM    6  C   UNL     1     -42.497  56.851 -55.010  1.00  0.00     0.022 A 
HETATM    7  C   UNL     1     -40.603  54.386 -53.117  1.00  0.00     0.030 A 
HETATM    8  C   UNL     1     -41.040  53.142 -53.571  1.00  0.00     0.002 A 
HETATM    9  C   UNL     1     -42.011  53.051 -54.558  1.00  0.00     0.001 A 
HETATM   10  C   UNL     1     -42.573  54.207 -55.118  1.00  0.00     0.014 A 
ENDROOT
BRANCH   6  11
HETATM   11  C   UNL     1     -43.460  57.432 -56.022  1.00  0.00     0.252 C 
BRANCH  11  12
HETATM   12  N   UNL     1     -44.843  56.992 -55.742  1.00  0.00    -0.067 N 
HETATM   13  H   UNL     1     -45.307  57.628 -55.087  1.00  0.00     0.275 HD
HETATM   14  H   UNL     1     -45.384  56.906 -56.605  1.00  0.00     0.275 HD
HETATM   15  H   UNL     1     -44.788  56.063 -55.291  1.00  0.00     0.275 HD
ENDBRANCH  11  12
BRANCH  11  16
HETATM   16  C   UNL     1     -42.991  57.195 -57.437  1.00  0.00    -0.024 A 
HETATM   17  C   UNL     1     -42.229  58.196 -58.075  1.00  0.00     0.009 A 
HETATM   18  C   UNL     1     -41.809  58.047 -59.398  1.00  0.00     0.001 A 
HETATM   19  C   UNL     1     -42.143  56.899 -60.108  1.00  0.00     0.000 A 
HETATM   20  C   UNL     1     -42.894  55.897 -59.498  1.00  0.00     0.001 A 
HETATM   21  C   UNL     1     -43.318  56.041 -58.173  1.00  0.00     0.009 A 
ENDBRANCH  11  16
ENDBRANCH   6  11
BRANCH   1  22
HETATM   22  C   UNL     1     -41.845  59.090 -53.968  1.00  0.00     0.310 C 
HETATM   23  O   UNL     1     -41.381  59.875 -54.788  1.00  0.00    -0.258 OA
BRANCH  22  24
HETATM   24  O   UNL     1     -42.497  59.397 -52.823  1.00  0.00    -0.317 OA
BRANCH  24  25
HETATM   25  C   UNL     1     -43.659  60.232 -52.956  1.00  0.00     0.175 C 
HETATM   26  C   UNL     1     -44.902  59.364 -53.032  1.00  0.00     0.034 C 
ENDBRANCH  24  25
ENDBRANCH  22  24
ENDBRANCH   1  22
TORSDOF 6
ENDMDL
