MODEL 1
REMARK VINA RESULT:      -9.1      0.000      0.000
REMARK  5 active torsions:
REMARK  status: ('A' for Active; 'I' for Inactive)
REMARK    1  A    between atoms: C_2  and  C_3 
REMARK    2  A    between atoms: C_8  and  C_9 
REMARK       I    between atoms: C_9  and  N_10 
REMARK    3  A    between atoms: N_10  and  C_11 
REMARK    4  A    between atoms: C_11  and  C_12 
REMARK    5  A    between atoms: C_19  and  C_20 
ROOT
HETATM    1  C   UNL     1     -41.697  55.613 -54.039  1.00  0.00     0.118 C 
HETATM    2  N   UNL     1     -43.088  55.894 -53.703  1.00  0.00    -0.366 N 
HETATM    3  C   UNL     1     -43.427  56.848 -52.807  1.00  0.00     0.123 A 
HETATM    4  N   UNL     1     -42.490  57.680 -52.254  1.00  0.00    -0.240 N 
HETATM    5  N   UNL     1     -42.992  58.514 -51.330  1.00  0.00    -0.165 NA
HETATM    6  C   UNL     1     -44.322  58.269 -51.359  1.00  0.00     0.148 A 
HETATM    7  C   UNL     1     -44.628  57.214 -52.259  1.00  0.00     0.088 A 
HETATM    8  C   UNL     1     -41.066  57.574 -52.519  1.00  0.00     0.221 C 
HETATM    9  C   UNL     1     -40.835  56.872 -53.871  1.00  0.00     0.066 C 
HETATM   10  H   UNL     1     -43.766  55.193 -54.000  1.00  0.00     0.161 HD
ENDROOT
BRANCH   6  11
HETATM   11  C   UNL     1     -45.277  59.038 -50.544  1.00  0.00     0.272 C 
HETATM   12  N   UNL     1     -44.783  60.253 -50.127  1.00  0.00    -0.353 N 
HETATM   13  H   UNL     1     -43.794  60.412 -50.298  1.00  0.00     0.162 HD
HETATM   14  O   UNL     1     -46.406  58.636 -50.278  1.00  0.00    -0.266 OA
BRANCH  12  15
HETATM   15  C   UNL     1     -45.528  61.171 -49.294  1.00  0.00     0.155 C 
BRANCH  15  16
HETATM   16  C   UNL     1     -44.900  61.355 -47.912  1.00  0.00     0.139 C 
HETATM   17  O   UNL     1     -44.993  62.732 -47.490  1.00  0.00    -0.384 OA
HETATM   18  C   UNL     1     -45.206  62.757 -46.070  1.00  0.00     0.168 C 
HETATM   19  C   UNL     1     -45.241  61.321 -45.589  1.00  0.00     0.029 C 
HETATM   20  C   UNL     1     -45.619  60.562 -46.835  1.00  0.00     0.035 C 
ENDBRANCH  15  16
ENDBRANCH  12  15
ENDBRANCH   6  11
BRANCH   8  21
HETATM   21  C   UNL     1     -40.386  58.927 -52.529  1.00  0.00     0.409 C 
HETATM   22  F   UNL     1     -40.163  59.428 -51.296  1.00  0.00    -0.169 F 
HETATM   23  F   UNL     1     -39.162  58.814 -53.115  1.00  0.00    -0.169 F 
HETATM   24  F   UNL     1     -41.069  59.846 -53.247  1.00  0.00    -0.169 F 
ENDBRANCH   8  21
BRANCH   1  25
HETATM   25  C   UNL     1     -41.150  54.407 -53.290  1.00  0.00    -0.034 A 
HETATM   26  C   UNL     1     -40.964  54.387 -51.899  1.00  0.00     0.011 A 
HETATM   27  C   UNL     1     -40.462  53.249 -51.258  1.00  0.00     0.026 A 
HETATM   28  C   UNL     1     -40.132  52.111 -51.995  1.00  0.00     0.055 A 
HETATM   29  C   UNL     1     -40.301  52.113 -53.381  1.00  0.00     0.056 A 
HETATM   30 CL   UNL     1     -39.526  50.741 -51.135  1.00  0.00    -0.083 Cl
HETATM   31  C   UNL     1     -40.803  53.254 -54.020  1.00  0.00     0.034 A 
HETATM   32 CL   UNL     1     -39.917  50.747 -54.365  1.00  0.00    -0.083 Cl
ENDBRANCH   1  25
TORSDOF 5
ENDMDL
MODEL 2
REMARK VINA RESULT:      -8.3      4.555      8.185
REMARK  5 active torsions:
REMARK  status: ('A' for Active; 'I' for Inactive)
REMARK    1  A    between atoms: C_2  and  C_3 
REMARK    2  A    between atoms: C_8  and  C_9 
REMARK       I    between atoms: C_9  and  N_10 
REMARK    3  A    between atoms: N_10  and  C_11 
REMARK    4  A    between atoms: C_11  and  C_12 
REMARK    5  A    between atoms: C_19  and  C_20 
ROOT
HETATM    1  C   UNL     1     -44.804  58.645 -51.927  1.00  0.00     0.118 C 
HETATM    2  N   UNL     1     -44.850  57.290 -51.391  1.00  0.00    -0.366 N 
HETATM    3  C   UNL     1     -43.732  56.634 -51.011  1.00  0.00     0.123 A 
HETATM    4  N   UNL     1     -42.508  57.248 -50.999  1.00  0.00    -0.240 N 
HETATM    5  N   UNL     1     -41.499  56.427 -50.667  1.00  0.00    -0.165 NA
HETATM    6  C   UNL     1     -42.114  55.262 -50.364  1.00  0.00     0.148 A 
HETATM    7  C   UNL     1     -43.514  55.349 -50.589  1.00  0.00     0.088 A 
HETATM    8  C   UNL     1     -42.289  58.611 -51.449  1.00  0.00     0.221 C 
HETATM    9  C   UNL     1     -43.602  59.411 -51.356  1.00  0.00     0.066 C 
HETATM   10  H   UNL     1     -45.727  56.788 -51.531  1.00  0.00     0.161 HD
ENDROOT
BRANCH   6  11
HETATM   11  C   UNL     1     -41.372  54.093 -49.862  1.00  0.00     0.272 C 
HETATM   12  N   UNL     1     -40.942  53.251 -50.862  1.00  0.00    -0.353 N 
HETATM   13  H   UNL     1     -41.302  53.447 -51.792  1.00  0.00     0.162 HD
HETATM   14  O   UNL     1     -41.151  53.901 -48.670  1.00  0.00    -0.266 OA
BRANCH  12  15
HETATM   15  C   UNL     1     -40.216  52.025 -50.612  1.00  0.00     0.155 C 
BRANCH  15  16
HETATM   16  C   UNL     1     -39.490  51.506 -51.854  1.00  0.00     0.139 C 
HETATM   17  O   UNL     1     -39.592  50.069 -51.941  1.00  0.00    -0.384 OA
HETATM   18  C   UNL     1     -39.697  49.705 -53.325  1.00  0.00     0.168 C 
HETATM   19  C   UNL     1     -39.652  50.983 -54.138  1.00  0.00     0.029 C 
HETATM   20  C   UNL     1     -40.102  52.024 -53.145  1.00  0.00     0.035 C 
ENDBRANCH  15  16
ENDBRANCH  12  15
ENDBRANCH   6  11
BRANCH   8  21
HETATM   21  C   UNL     1     -41.213  59.312 -50.647  1.00  0.00     0.409 C 
HETATM   22  F   UNL     1     -39.982  59.213 -51.192  1.00  0.00    -0.169 F 
HETATM   23  F   UNL     1     -41.489  60.643 -50.584  1.00  0.00    -0.169 F 
HETATM   24  F   UNL     1     -41.150  58.874 -49.369  1.00  0.00    -0.169 F 
ENDBRANCH   8  21
BRANCH   1  25
HETATM   25  C   UNL     1     -44.865  58.672 -53.448  1.00  0.00    -0.034 A 
HETATM   26  C   UNL     1     -44.660  57.534 -54.244  1.00  0.00     0.011 A 
HETATM   27  C   UNL     1     -44.733  57.612 -55.639  1.00  0.00     0.026 A 
HETATM   28  C   UNL     1     -45.007  58.829 -56.266  1.00  0.00     0.055 A 
HETATM   29  C   UNL     1     -45.205  59.974 -55.492  1.00  0.00     0.056 A 
HETATM   30 CL   UNL     1     -45.090  58.847 -57.990  1.00  0.00    -0.083 Cl
HETATM   31  C   UNL     1     -45.131  59.893 -54.095  1.00  0.00     0.034 A 
HETATM   32 CL   UNL     1     -45.547  61.517 -56.188  1.00  0.00    -0.083 Cl
ENDBRANCH   1  25
TORSDOF 5
ENDMDL
MODEL 3
REMARK VINA RESULT:      -8.3      4.382      8.059
REMARK  5 active torsions:
REMARK  status: ('A' for Active; 'I' for Inactive)
REMARK    1  A    between atoms: C_2  and  C_3 
REMARK    2  A    between atoms: C_8  and  C_9 
REMARK       I    between atoms: C_9  and  N_10 
REMARK    3  A    between atoms: N_10  and  C_11 
REMARK    4  A    between atoms: C_11  and  C_12 
REMARK    5  A    between atoms: C_19  and  C_20 
ROOT
HETATM    1  C   UNL     1     -44.905  57.953 -55.338  1.00  0.00     0.118 C 
HETATM    2  N   UNL     1     -44.761  56.594 -54.829  1.00  0.00    -0.366 N 
HETATM    3  C   UNL     1     -43.871  56.287 -53.860  1.00  0.00     0.123 A 
HETATM    4  N   UNL     1     -43.139  57.253 -53.223  1.00  0.00    -0.240 N 
HETATM    5  N   UNL     1     -42.251  56.762 -52.344  1.00  0.00    -0.165 NA
HETATM    6  C   UNL     1     -42.489  55.431 -52.350  1.00  0.00     0.148 A 
HETATM    7  C   UNL     1     -43.485  55.094 -53.306  1.00  0.00     0.088 A 
HETATM    8  C   UNL     1     -43.198  58.662 -53.567  1.00  0.00     0.221 C 
HETATM    9  C   UNL     1     -44.540  58.978 -54.256  1.00  0.00     0.066 C 
HETATM   10  H   UNL     1     -45.195  55.862 -55.391  1.00  0.00     0.161 HD
ENDROOT
BRANCH   6  11
HETATM   11  C   UNL     1     -41.779  54.504 -51.453  1.00  0.00     0.272 C 
HETATM   12  N   UNL     1     -40.868  53.706 -52.104  1.00  0.00    -0.353 N 
HETATM   13  H   UNL     1     -40.894  53.740 -53.120  1.00  0.00     0.162 HD
HETATM   14  O   UNL     1     -41.975  54.463 -50.242  1.00  0.00    -0.266 OA
BRANCH  12  15
HETATM   15  C   UNL     1     -40.070  52.700 -51.437  1.00  0.00     0.155 C 
BRANCH  15  16
HETATM   16  C   UNL     1     -39.417  51.722 -52.415  1.00  0.00     0.139 C 
HETATM   17  O   UNL     1     -39.438  50.381 -51.883  1.00  0.00    -0.384 OA
HETATM   18  C   UNL     1     -39.631  49.465 -52.971  1.00  0.00     0.168 C 
HETATM   19  C   UNL     1     -39.730  50.283 -54.243  1.00  0.00     0.029 C 
HETATM   20  C   UNL     1     -40.160  51.635 -53.736  1.00  0.00     0.035 C 
ENDBRANCH  15  16
ENDBRANCH  12  15
ENDBRANCH   6  11
BRANCH   8  21
HETATM   21  C   UNL     1     -43.029  59.554 -52.355  1.00  0.00     0.409 C 
HETATM   22  F   UNL     1     -41.741  59.780 -52.026  1.00  0.00    -0.169 F 
HETATM   23  F   UNL     1     -43.570  60.777 -52.614  1.00  0.00    -0.169 F 
HETATM   24  F   UNL     1     -43.671  59.075 -51.266  1.00  0.00    -0.169 F 
ENDBRANCH   8  21
BRANCH   1  25
HETATM   25  C   UNL     1     -44.156  58.167 -56.645  1.00  0.00    -0.034 A 
HETATM   26  C   UNL     1     -43.756  59.433 -57.101  1.00  0.00     0.011 A 
HETATM   27  C   UNL     1     -43.064  59.574 -58.309  1.00  0.00     0.026 A 
HETATM   28  C   UNL     1     -42.762  58.455 -59.087  1.00  0.00     0.055 A 
HETATM   29  C   UNL     1     -43.159  57.188 -58.654  1.00  0.00     0.056 A 
HETATM   30 CL   UNL     1     -41.898  58.706 -60.560  1.00  0.00    -0.083 Cl
HETATM   31  C   UNL     1     -43.853  57.050 -57.445  1.00  0.00     0.034 A 
HETATM   32 CL   UNL     1     -42.827  55.753 -59.557  1.00  0.00    -0.083 Cl
ENDBRANCH   1  25
TORSDOF 5
ENDMDL
MODEL 4
REMARK VINA RESULT:      -8.2      1.996      2.613
REMARK  5 active torsions:
REMARK  status: ('A' for Active; 'I' for Inactive)
REMARK    1  A    between atoms: C_2  and  C_3 
REMARK    2  A    between atoms: C_8  and  C_9 
REMARK       I    between atoms: C_9  and  N_10 
REMARK    3  A    between atoms: N_10  and  C_11 
REMARK    4  A    between atoms: C_11  and  C_12 
REMARK    5  A    between atoms: C_19  and  C_20 
ROOT
HETATM    1  C   UNL     1     -43.630  55.094 -53.797  1.00  0.00     0.118 C 
HETATM    2  N   UNL     1     -44.085  55.785 -52.596  1.00  0.00    -0.366 N 
HETATM    3  C   UNL     1     -43.706  57.051 -52.315  1.00  0.00     0.123 A 
HETATM    4  N   UNL     1     -42.970  57.795 -53.199  1.00  0.00    -0.240 N 
HETATM    5  N   UNL     1     -42.619  59.001 -52.725  1.00  0.00    -0.165 NA
HETATM    6  C   UNL     1     -43.235  59.069 -51.523  1.00  0.00     0.148 A 
HETATM    7  C   UNL     1     -43.909  57.855 -51.224  1.00  0.00     0.088 A 
HETATM    8  C   UNL     1     -42.478  57.281 -54.465  1.00  0.00     0.221 C 
HETATM    9  C   UNL     1     -43.350  56.098 -54.925  1.00  0.00     0.066 C 
HETATM   10  H   UNL     1     -44.508  55.196 -51.880  1.00  0.00     0.161 HD
ENDROOT
BRANCH   6  11
HETATM   11  C   UNL     1     -43.183  60.278 -50.684  1.00  0.00     0.272 C 
HETATM   12  N   UNL     1     -44.339  60.496 -49.970  1.00  0.00    -0.353 N 
HETATM   13  H   UNL     1     -45.127  59.899 -50.209  1.00  0.00     0.162 HD
HETATM   14  O   UNL     1     -42.198  61.008 -50.622  1.00  0.00    -0.266 OA
BRANCH  12  15
HETATM   15  C   UNL     1     -44.533  61.633 -49.098  1.00  0.00     0.155 C 
BRANCH  15  16
HETATM   16  C   UNL     1     -45.784  61.502 -48.228  1.00  0.00     0.139 C 
HETATM   17  O   UNL     1     -45.891  60.170 -47.686  1.00  0.00    -0.384 OA
HETATM   18  C   UNL     1     -46.448  60.260 -46.366  1.00  0.00     0.168 C 
HETATM   19  C   UNL     1     -46.704  61.726 -46.079  1.00  0.00     0.029 C 
HETATM   20  C   UNL     1     -45.751  62.420 -47.018  1.00  0.00     0.035 C 
ENDBRANCH  15  16
ENDBRANCH  12  15
ENDBRANCH   6  11
BRANCH   8  21
HETATM   21  C   UNL     1     -42.458  58.344 -55.543  1.00  0.00     0.409 C 
HETATM   22  F   UNL     1     -41.528  59.300 -55.342  1.00  0.00    -0.169 F 
HETATM   23  F   UNL     1     -42.153  57.770 -56.740  1.00  0.00    -0.169 F 
HETATM   24  F   UNL     1     -43.660  58.943 -55.703  1.00  0.00    -0.169 F 
ENDBRANCH   8  21
BRANCH   1  25
HETATM   25  C   UNL     1     -42.461  54.159 -53.523  1.00  0.00    -0.034 A 
HETATM   26  C   UNL     1     -41.794  53.448 -54.533  1.00  0.00     0.011 A 
HETATM   27  C   UNL     1     -40.721  52.604 -54.228  1.00  0.00     0.026 A 
HETATM   28  C   UNL     1     -40.296  52.450 -52.907  1.00  0.00     0.055 A 
HETATM   29  C   UNL     1     -40.953  53.141 -51.887  1.00  0.00     0.056 A 
HETATM   30 CL   UNL     1     -38.960  51.398 -52.607  1.00  0.00    -0.083 Cl
HETATM   31  C   UNL     1     -42.027  53.985 -52.195  1.00  0.00     0.034 A 
HETATM   32 CL   UNL     1     -40.491  53.006 -50.228  1.00  0.00    -0.083 Cl
ENDBRANCH   1  25
TORSDOF 5
ENDMDL
MODEL 5
REMARK VINA RESULT:      -8.0      4.394      7.120
REMARK  5 active torsions:
REMARK  status: ('A' for Active; 'I' for Inactive)
REMARK    1  A    between atoms: C_2  and  C_3 
REMARK    2  A    between atoms: C_8  and  C_9 
REMARK       I    between atoms: C_9  and  N_10 
REMARK    3  A    between atoms: N_10  and  C_11 
REMARK    4  A    between atoms: C_11  and  C_12 
REMARK    5  A    between atoms: C_19  and  C_20 
ROOT
HETATM    1  C   UNL     1     -40.630  55.850 -53.099  1.00  0.00     0.118 C 
HETATM    2  N   UNL     1     -40.897  56.508 -54.373  1.00  0.00    -0.366 N 
HETATM    3  C   UNL     1     -42.148  56.854 -54.749  1.00  0.00     0.123 A 
HETATM    4  N   UNL     1     -43.217  56.712 -53.905  1.00  0.00    -0.240 N 
HETATM    5  N   UNL     1     -44.392  57.034 -54.470  1.00  0.00    -0.165 NA
HETATM    6  C   UNL     1     -44.051  57.489 -55.696  1.00  0.00     0.148 A 
HETATM    7  C   UNL     1     -42.652  57.371 -55.914  1.00  0.00     0.088 A 
HETATM    8  C   UNL     1     -43.123  56.125 -52.581  1.00  0.00     0.221 C 
HETATM    9  C   UNL     1     -41.680  56.251 -52.053  1.00  0.00     0.066 C 
HETATM   10  H   UNL     1     -40.136  56.486 -55.052  1.00  0.00     0.161 HD
ENDROOT
BRANCH   6  11
HETATM   11  C   UNL     1     -45.047  58.032 -56.635  1.00  0.00     0.272 C 
HETATM   12  N   UNL     1     -44.511  58.388 -57.851  1.00  0.00    -0.353 N 
HETATM   13  H   UNL     1     -43.496  58.375 -57.910  1.00  0.00     0.162 HD
HETATM   14  O   UNL     1     -46.238  58.141 -56.359  1.00  0.00    -0.266 OA
BRANCH  12  15
HETATM   15  C   UNL     1     -45.288  58.968 -58.924  1.00  0.00     0.155 C 
BRANCH  15  16
HETATM   16  C   UNL     1     -45.515  57.994 -60.082  1.00  0.00     0.139 C 
HETATM   17  O   UNL     1     -44.361  57.148 -60.269  1.00  0.00    -0.384 OA
HETATM   18  C   UNL     1     -44.814  55.846 -60.669  1.00  0.00     0.168 C 
HETATM   19  C   UNL     1     -46.327  55.891 -60.738  1.00  0.00     0.029 C 
HETATM   20  C   UNL     1     -46.667  57.040 -59.823  1.00  0.00     0.035 C 
ENDBRANCH  15  16
ENDBRANCH  12  15
ENDBRANCH   6  11
BRANCH   8  21
HETATM   21  C   UNL     1     -44.078  56.771 -51.600  1.00  0.00     0.409 C 
HETATM   22  F   UNL     1     -44.505  55.933 -50.632  1.00  0.00    -0.169 F 
HETATM   23  F   UNL     1     -43.447  57.794 -50.960  1.00  0.00    -0.169 F 
HETATM   24  F   UNL     1     -45.159  57.309 -52.207  1.00  0.00    -0.169 F 
ENDBRANCH   8  21
BRANCH   1  25
HETATM   25  C   UNL     1     -40.472  54.344 -53.244  1.00  0.00    -0.034 A 
HETATM   26  C   UNL     1     -40.466  53.689 -54.486  1.00  0.00     0.011 A 
HETATM   27  C   UNL     1     -40.312  52.301 -54.564  1.00  0.00     0.026 A 
HETATM   28  C   UNL     1     -40.165  51.539 -53.404  1.00  0.00     0.055 A 
HETATM   29  C   UNL     1     -40.178  52.171 -52.159  1.00  0.00     0.056 A 
HETATM   30 CL   UNL     1     -39.971  49.832 -53.579  1.00  0.00    -0.083 Cl
HETATM   31  C   UNL     1     -40.333  53.561 -52.083  1.00  0.00     0.034 A 
HETATM   32 CL   UNL     1     -40.004  51.302 -50.676  1.00  0.00    -0.083 Cl
ENDBRANCH   1  25
TORSDOF 5
ENDMDL
MODEL 6
REMARK VINA RESULT:      -7.9     17.742     19.125
REMARK  5 active torsions:
REMARK  status: ('A' for Active; 'I' for Inactive)
REMARK    1  A    between atoms: C_2  and  C_3 
REMARK    2  A    between atoms: C_8  and  C_9 
REMARK       I    between atoms: C_9  and  N_10 
REMARK    3  A    between atoms: N_10  and  C_11 
REMARK    4  A    between atoms: C_11  and  C_12 
REMARK    5  A    between atoms: C_19  and  C_20 
ROOT
HETATM    1  C   UNL     1     -36.462  42.177 -55.472  1.00  0.00     0.118 C 
HETATM    2  N   UNL     1     -37.437  41.954 -54.411  1.00  0.00    -0.366 N 
HETATM    3  C   UNL     1     -37.259  41.003 -53.467  1.00  0.00     0.123 A 
HETATM    4  N   UNL     1     -36.100  40.278 -53.387  1.00  0.00    -0.240 N 
HETATM    5  N   UNL     1     -36.126  39.327 -52.440  1.00  0.00    -0.165 NA
HETATM    6  C   UNL     1     -37.316  39.513 -51.825  1.00  0.00     0.148 A 
HETATM    7  C   UNL     1     -38.063  40.543 -52.458  1.00  0.00     0.088 A 
HETATM    8  C   UNL     1     -35.004  40.409 -54.330  1.00  0.00     0.221 C 
HETATM    9  C   UNL     1     -35.051  41.796 -55.000  1.00  0.00     0.066 C 
HETATM   10  H   UNL     1     -38.350  42.387 -54.550  1.00  0.00     0.161 HD
ENDROOT
BRANCH   6  11
HETATM   11  C   UNL     1     -37.723  38.722 -50.652  1.00  0.00     0.272 C 
HETATM   12  N   UNL     1     -39.069  38.804 -50.381  1.00  0.00    -0.353 N 
HETATM   13  H   UNL     1     -39.588  39.497 -50.914  1.00  0.00     0.162 HD
HETATM   14  O   UNL     1     -36.937  38.048 -49.993  1.00  0.00    -0.266 OA
BRANCH  12  15
HETATM   15  C   UNL     1     -39.698  38.135 -49.263  1.00  0.00     0.155 C 
BRANCH  15  16
HETATM   16  C   UNL     1     -41.149  37.744 -49.549  1.00  0.00     0.139 C 
HETATM   17  O   UNL     1     -41.988  38.917 -49.613  1.00  0.00    -0.384 OA
HETATM   18  C   UNL     1     -42.996  38.698 -50.612  1.00  0.00     0.168 C 
HETATM   19  C   UNL     1     -42.771  37.317 -51.192  1.00  0.00     0.029 C 
HETATM   20  C   UNL     1     -41.314  37.066 -50.898  1.00  0.00     0.035 C 
ENDBRANCH  15  16
ENDBRANCH  12  15
ENDBRANCH   6  11
BRANCH   8  21
HETATM   21  C   UNL     1     -33.655  40.213 -53.670  1.00  0.00     0.409 C 
HETATM   22  F   UNL     1     -33.331  38.918 -53.478  1.00  0.00    -0.169 F 
HETATM   23  F   UNL     1     -32.680  40.730 -54.468  1.00  0.00    -0.169 F 
HETATM   24  F   UNL     1     -33.560  40.858 -52.485  1.00  0.00    -0.169 F 
ENDBRANCH   8  21
BRANCH   1  25
HETATM   25  C   UNL     1     -36.859  41.505 -56.778  1.00  0.00    -0.034 A 
HETATM   26  C   UNL     1     -37.155  40.136 -56.878  1.00  0.00     0.011 A 
HETATM   27  C   UNL     1     -37.520  39.569 -58.103  1.00  0.00     0.026 A 
HETATM   28  C   UNL     1     -37.593  40.356 -59.253  1.00  0.00     0.055 A 
HETATM   29  C   UNL     1     -37.294  41.717 -59.177  1.00  0.00     0.056 A 
HETATM   30 CL   UNL     1     -38.060  39.588 -60.728  1.00  0.00    -0.083 Cl
HETATM   31  C   UNL     1     -36.927  42.283 -57.949  1.00  0.00     0.034 A 
HETATM   32 CL   UNL     1     -37.358  42.761 -60.552  1.00  0.00    -0.083 Cl
ENDBRANCH   1  25
TORSDOF 5
ENDMDL
MODEL 7
REMARK VINA RESULT:      -7.9      4.294      7.303
REMARK  5 active torsions:
REMARK  status: ('A' for Active; 'I' for Inactive)
REMARK    1  A    between atoms: C_2  and  C_3 
REMARK    2  A    between atoms: C_8  and  C_9 
REMARK       I    between atoms: C_9  and  N_10 
REMARK    3  A    between atoms: N_10  and  C_11 
REMARK    4  A    between atoms: C_11  and  C_12 
REMARK    5  A    between atoms: C_19  and  C_20 
ROOT
HETATM    1  C   UNL     1     -41.054  57.066 -52.002  1.00  0.00     0.118 C 
HETATM    2  N   UNL     1     -41.015  57.183 -53.455  1.00  0.00    -0.366 N 
HETATM    3  C   UNL     1     -42.142  57.288 -54.193  1.00  0.00     0.123 A 
HETATM    4  N   UNL     1     -43.375  57.408 -53.609  1.00  0.00    -0.240 N 
HETATM    5  N   UNL     1     -44.387  57.425 -54.491  1.00  0.00    -0.165 NA
HETATM    6  C   UNL     1     -43.770  57.408 -55.694  1.00  0.00     0.148 A 
HETATM    7  C   UNL     1     -42.361  57.300 -55.546  1.00  0.00     0.088 A 
HETATM    8  C   UNL     1     -43.591  57.365 -52.174  1.00  0.00     0.221 C 
HETATM    9  C   UNL     1     -42.299  57.766 -51.437  1.00  0.00     0.066 C 
HETATM   10  H   UNL     1     -40.123  56.953 -53.894  1.00  0.00     0.161 HD
ENDROOT
BRANCH   6  11
HETATM   11  C   UNL     1     -44.518  57.500 -56.959  1.00  0.00     0.272 C 
HETATM   12  N   UNL     1     -44.073  56.623 -57.921  1.00  0.00    -0.353 N 
HETATM   13  H   UNL     1     -43.209  56.131 -57.707  1.00  0.00     0.162 HD
HETATM   14  O   UNL     1     -45.455  58.275 -57.128  1.00  0.00    -0.266 OA
BRANCH  12  15
HETATM   15  C   UNL     1     -44.635  56.548 -59.251  1.00  0.00     0.155 C 
BRANCH  15  16
HETATM   16  C   UNL     1     -43.821  57.334 -60.281  1.00  0.00     0.139 C 
HETATM   17  O   UNL     1     -44.258  58.708 -60.333  1.00  0.00    -0.384 OA
HETATM   18  C   UNL     1     -43.113  59.539 -60.573  1.00  0.00     0.168 C 
HETATM   19  C   UNL     1     -41.905  58.630 -60.681  1.00  0.00     0.029 C 
HETATM   20  C   UNL     1     -42.345  57.401 -59.928  1.00  0.00     0.035 C 
ENDBRANCH  15  16
ENDBRANCH  12  15
ENDBRANCH   6  11
BRANCH   8  21
HETATM   21  C   UNL     1     -44.722  58.273 -51.740  1.00  0.00     0.409 C 
HETATM   22  F   UNL     1     -45.205  59.047 -52.734  1.00  0.00    -0.169 F 
HETATM   23  F   UNL     1     -45.770  57.518 -51.309  1.00  0.00    -0.169 F 
HETATM   24  F   UNL     1     -44.377  59.072 -50.705  1.00  0.00    -0.169 F 
ENDBRANCH   8  21
BRANCH   1  25
HETATM   25  C   UNL     1     -40.908  55.627 -51.529  1.00  0.00    -0.034 A 
HETATM   26  C   UNL     1     -40.932  54.527 -52.401  1.00  0.00     0.011 A 
HETATM   27  C   UNL     1     -40.788  53.223 -51.915  1.00  0.00     0.026 A 
HETATM   28  C   UNL     1     -40.622  52.992 -50.549  1.00  0.00     0.055 A 
HETATM   29  C   UNL     1     -40.604  54.072 -49.664  1.00  0.00     0.056 A 
HETATM   30 CL   UNL     1     -40.442  51.357 -50.024  1.00  0.00    -0.083 Cl
HETATM   31  C   UNL     1     -40.750  55.377 -50.153  1.00  0.00     0.034 A 
HETATM   32 CL   UNL     1     -40.405  53.873 -47.960  1.00  0.00    -0.083 Cl
ENDBRANCH   1  25
TORSDOF 5
ENDMDL
MODEL 8
REMARK VINA RESULT:      -7.8     18.030     19.457
REMARK  5 active torsions:
REMARK  status: ('A' for Active; 'I' for Inactive)
REMARK    1  A    between atoms: C_2  and  C_3 
REMARK    2  A    between atoms: C_8  and  C_9 
REMARK       I    between atoms: C_9  and  N_10 
REMARK    3  A    between atoms: N_10  and  C_11 
REMARK    4  A    between atoms: C_11  and  C_12 
REMARK    5  A    between atoms: C_19  and  C_20 
ROOT
HETATM    1  C   UNL     1     -36.388  42.252 -56.224  1.00  0.00     0.118 C 
HETATM    2  N   UNL     1     -37.344  42.141 -55.129  1.00  0.00    -0.366 N 
HETATM    3  C   UNL     1     -37.178  41.253 -54.124  1.00  0.00     0.123 A 
HETATM    4  N   UNL     1     -36.044  40.492 -54.018  1.00  0.00    -0.240 N 
HETATM    5  N   UNL     1     -36.082  39.612 -53.004  1.00  0.00    -0.165 NA
HETATM    6  C   UNL     1     -37.250  39.885 -52.379  1.00  0.00     0.148 A 
HETATM    7  C   UNL     1     -37.974  40.895 -53.068  1.00  0.00     0.088 A 
HETATM    8  C   UNL     1     -34.967  40.515 -54.990  1.00  0.00     0.221 C 
HETATM    9  C   UNL     1     -34.981  41.852 -55.756  1.00  0.00     0.066 C 
HETATM   10  H   UNL     1     -38.244  42.597 -55.279  1.00  0.00     0.161 HD
ENDROOT
BRANCH   6  11
HETATM   11  C   UNL     1     -37.657  39.195 -51.144  1.00  0.00     0.272 C 
HETATM   12  N   UNL     1     -37.068  39.710 -50.013  1.00  0.00    -0.353 N 
HETATM   13  H   UNL     1     -36.327  40.390 -50.168  1.00  0.00     0.162 HD
HETATM   14  O   UNL     1     -38.455  38.262 -51.130  1.00  0.00    -0.266 OA
BRANCH  12  15
HETATM   15  C   UNL     1     -37.293  39.180 -48.686  1.00  0.00     0.155 C 
BRANCH  15  16
HETATM   16  C   UNL     1     -36.227  38.166 -48.267  1.00  0.00     0.139 C 
HETATM   17  O   UNL     1     -34.957  38.483 -48.874  1.00  0.00    -0.384 OA
HETATM   18  C   UNL     1     -33.915  38.155 -47.943  1.00  0.00     0.168 C 
HETATM   19  C   UNL     1     -34.576  37.602 -46.696  1.00  0.00     0.029 C 
HETATM   20  C   UNL     1     -35.965  38.182 -46.771  1.00  0.00     0.035 C 
ENDBRANCH  15  16
ENDBRANCH  12  15
ENDBRANCH   6  11
BRANCH   8  21
HETATM   21  C   UNL     1     -33.611  40.315 -54.347  1.00  0.00     0.409 C 
HETATM   22  F   UNL     1     -33.240  39.021 -54.261  1.00  0.00    -0.169 F 
HETATM   23  F   UNL     1     -32.658  40.931 -55.099  1.00  0.00    -0.169 F 
HETATM   24  F   UNL     1     -33.538  40.864 -53.113  1.00  0.00    -0.169 F 
ENDBRANCH   8  21
BRANCH   1  25
HETATM   25  C   UNL     1     -36.840  41.505 -57.471  1.00  0.00    -0.034 A 
HETATM   26  C   UNL     1     -36.868  42.089 -58.747  1.00  0.00     0.011 A 
HETATM   27  C   UNL     1     -37.288  41.356 -59.862  1.00  0.00     0.026 A 
HETATM   28  C   UNL     1     -37.693  40.027 -59.723  1.00  0.00     0.055 A 
HETATM   29  C   UNL     1     -37.681  39.431 -58.461  1.00  0.00     0.056 A 
HETATM   30 CL   UNL     1     -38.190  39.183 -61.145  1.00  0.00    -0.083 Cl
HETATM   31  C   UNL     1     -37.261  40.168 -57.346  1.00  0.00     0.034 A 
HETATM   32 CL   UNL     1     -38.167  37.794 -58.203  1.00  0.00    -0.083 Cl
ENDBRANCH   1  25
TORSDOF 5
ENDMDL
MODEL 9
REMARK VINA RESULT:      -7.8      5.460      8.279
REMARK  5 active torsions:
REMARK  status: ('A' for Active; 'I' for Inactive)
REMARK    1  A    between atoms: C_2  and  C_3 
REMARK    2  A    between atoms: C_8  and  C_9 
REMARK       I    between atoms: C_9  and  N_10 
REMARK    3  A    between atoms: N_10  and  C_11 
REMARK    4  A    between atoms: C_11  and  C_12 
REMARK    5  A    between atoms: C_19  and  C_20 
ROOT
HETATM    1  C   UNL     1     -43.281  55.634 -52.228  1.00  0.00     0.118 C 
HETATM    2  N   UNL     1     -43.981  56.118 -53.412  1.00  0.00    -0.366 N 
HETATM    3  C   UNL     1     -43.522  55.878 -54.660  1.00  0.00     0.123 A 
HETATM    4  N   UNL     1     -42.439  55.070 -54.885  1.00  0.00    -0.240 N 
HETATM    5  N   UNL     1     -42.077  55.006 -56.176  1.00  0.00    -0.165 NA
HETATM    6  C   UNL     1     -43.024  55.728 -56.817  1.00  0.00     0.148 A 
HETATM    7  C   UNL     1     -43.935  56.309 -55.894  1.00  0.00     0.088 A 
HETATM    8  C   UNL     1     -41.656  54.463 -53.824  1.00  0.00     0.221 C 
HETATM    9  C   UNL     1     -42.508  54.346 -52.545  1.00  0.00     0.066 C 
HETATM   10  H   UNL     1     -44.695  56.827 -53.246  1.00  0.00     0.161 HD
ENDROOT
BRANCH   6  11
HETATM   11  C   UNL     1     -43.056  55.852 -58.283  1.00  0.00     0.272 C 
HETATM   12  N   UNL     1     -42.179  56.795 -58.769  1.00  0.00    -0.353 N 
HETATM   13  H   UNL     1     -41.732  57.386 -58.073  1.00  0.00     0.162 HD
HETATM   14  O   UNL     1     -43.784  55.168 -58.998  1.00  0.00    -0.266 OA
BRANCH  12  15
HETATM   15  C   UNL     1     -42.051  57.112 -60.175  1.00  0.00     0.155 C 
BRANCH  15  16
HETATM   16  C   UNL     1     -42.502  58.537 -60.501  1.00  0.00     0.139 C 
HETATM   17  O   UNL     1     -43.937  58.600 -60.632  1.00  0.00    -0.384 OA
HETATM   18  C   UNL     1     -44.385  59.862 -60.117  1.00  0.00     0.168 C 
HETATM   19  C   UNL     1     -43.161  60.623 -59.647  1.00  0.00     0.029 C 
HETATM   20  C   UNL     1     -42.162  59.523 -59.396  1.00  0.00     0.035 C 
ENDBRANCH  15  16
ENDBRANCH  12  15
ENDBRANCH   6  11
BRANCH   8  21
HETATM   21  C   UNL     1     -41.134  53.096 -54.210  1.00  0.00     0.409 C 
HETATM   22  F   UNL     1     -42.055  52.317 -54.814  1.00  0.00    -0.169 F 
HETATM   23  F   UNL     1     -40.116  53.235 -55.104  1.00  0.00    -0.169 F 
HETATM   24  F   UNL     1     -40.626  52.418 -53.156  1.00  0.00    -0.169 F 
ENDBRANCH   8  21
BRANCH   1  25
HETATM   25  C   UNL     1     -42.417  56.708 -51.584  1.00  0.00    -0.034 A 
HETATM   26  C   UNL     1     -41.296  56.417 -50.790  1.00  0.00     0.011 A 
HETATM   27  C   UNL     1     -40.532  57.444 -50.224  1.00  0.00     0.026 A 
HETATM   28  C   UNL     1     -40.874  58.780 -50.437  1.00  0.00     0.055 A 
HETATM   29  C   UNL     1     -41.991  59.090 -51.216  1.00  0.00     0.056 A 
HETATM   30 CL   UNL     1     -39.879  59.992 -49.714  1.00  0.00    -0.083 Cl
HETATM   31  C   UNL     1     -42.755  58.060 -51.780  1.00  0.00     0.034 A 
HETATM   32 CL   UNL     1     -42.484  60.716 -51.527  1.00  0.00    -0.083 Cl
ENDBRANCH   1  25
TORSDOF 5
ENDMDL
MODEL 10
REMARK VINA RESULT:      -7.5      3.049      3.938
REMARK  5 active torsions:
REMARK  status: ('A' for Active; 'I' for Inactive)
REMARK    1  A    between atoms: C_2  and  C_3 
REMARK    2  A    between atoms: C_8  and  C_9 
REMARK       I    between atoms: C_9  and  N_10 
REMARK    3  A    between atoms: N_10  and  C_11 
REMARK    4  A    between atoms: C_11  and  C_12 
REMARK    5  A    between atoms: C_19  and  C_20 
ROOT
HETATM    1  C   UNL     1     -43.689  54.381 -55.043  1.00  0.00     0.118 C 
HETATM    2  N   UNL     1     -44.559  55.283 -54.298  1.00  0.00    -0.366 N 
HETATM    3  C   UNL     1     -44.474  56.625 -54.427  1.00  0.00     0.123 A 
HETATM    4  N   UNL     1     -43.646  57.207 -55.349  1.00  0.00    -0.240 N 
HETATM    5  N   UNL     1     -43.631  58.549 -55.287  1.00  0.00    -0.165 NA
HETATM    6  C   UNL     1     -44.558  58.840 -54.347  1.00  0.00     0.148 A 
HETATM    7  C   UNL     1     -45.092  57.657 -53.770  1.00  0.00     0.088 A 
HETATM    8  C   UNL     1     -42.750  56.457 -56.211  1.00  0.00     0.221 C 
HETATM    9  C   UNL     1     -43.267  55.015 -56.376  1.00  0.00     0.066 C 
HETATM   10  H   UNL     1     -45.068  54.865 -53.518  1.00  0.00     0.161 HD
ENDROOT
BRANCH   6  11
HETATM   11  C   UNL     1     -44.927  60.227 -54.015  1.00  0.00     0.272 C 
HETATM   12  N   UNL     1     -46.078  60.320 -53.267  1.00  0.00    -0.353 N 
HETATM   13  H   UNL     1     -46.608  59.459 -53.159  1.00  0.00     0.162 HD
HETATM   14  O   UNL     1     -44.261  61.198 -54.362  1.00  0.00    -0.266 OA
BRANCH  12  15
HETATM   15  C   UNL     1     -46.652  61.578 -52.844  1.00  0.00     0.155 C 
BRANCH  15  16
HETATM   16  C   UNL     1     -46.567  61.786 -51.330  1.00  0.00     0.139 C 
HETATM   17  O   UNL     1     -46.288  60.539 -50.661  1.00  0.00    -0.384 OA
HETATM   18  C   UNL     1     -45.441  60.809 -49.534  1.00  0.00     0.168 C 
HETATM   19  C   UNL     1     -45.187  62.303 -49.503  1.00  0.00     0.029 C 
HETATM   20  C   UNL     1     -45.430  62.711 -50.933  1.00  0.00     0.035 C 
ENDBRANCH  15  16
ENDBRANCH  12  15
ENDBRANCH   6  11
BRANCH   8  21
HETATM   21  C   UNL     1     -42.597  57.098 -57.574  1.00  0.00     0.409 C 
HETATM   22  F   UNL     1     -43.707  57.738 -57.997  1.00  0.00    -0.169 F 
HETATM   23  F   UNL     1     -41.616  58.041 -57.525  1.00  0.00    -0.169 F 
HETATM   24  F   UNL     1     -42.227  56.212 -58.525  1.00  0.00    -0.169 F 
ENDBRANCH   8  21
BRANCH   1  25
HETATM   25  C   UNL     1     -42.512  53.890 -54.213  1.00  0.00    -0.034 A 
HETATM   26  C   UNL     1     -41.396  53.246 -54.771  1.00  0.00     0.011 A 
HETATM   27  C   UNL     1     -40.337  52.819 -53.963  1.00  0.00     0.026 A 
HETATM   28  C   UNL     1     -40.373  53.021 -52.582  1.00  0.00     0.055 A 
HETATM   29  C   UNL     1     -41.479  53.652 -52.007  1.00  0.00     0.056 A 
HETATM   30 CL   UNL     1     -39.026  52.475 -51.651  1.00  0.00    -0.083 Cl
HETATM   31  C   UNL     1     -42.538  54.078 -52.819  1.00  0.00     0.034 A 
HETATM   32 CL   UNL     1     -41.604  53.940 -50.309  1.00  0.00    -0.083 Cl
ENDBRANCH   1  25
TORSDOF 5
ENDMDL
