MODEL 1
REMARK VINA RESULT:      -7.7      0.000      0.000
REMARK  6 active torsions:
REMARK  status: ('A' for Active; 'I' for Inactive)
REMARK    1  A    between atoms: C_2  and  C_3 
REMARK    2  A    between atoms: C_2  and  C_9 
REMARK    3  A    between atoms: C_9  and  N_10 
REMARK       I    between atoms: N_10  and  C_11 
REMARK       I    between atoms: C_11  and  N_12 
REMARK    4  A    between atoms: N_12  and  C_13 
REMARK    5  A    between atoms: C_14  and  O_15 
REMARK    6  A    between atoms: O_15  and  C_16 
ROOT
HETATM    1  N   UNL     1     -41.916  54.676 -51.940  1.00  0.00    -0.342 N 
HETATM    2  C   UNL     1     -42.366  55.861 -51.438  1.00  0.00     0.320 C 
HETATM    3  N   UNL     1     -41.804  56.982 -51.983  1.00  0.00    -0.306 N 
HETATM    4  O   UNL     1     -43.268  55.843 -50.605  1.00  0.00    -0.247 OA
HETATM    5  H   UNL     1     -42.382  53.885 -51.509  1.00  0.00     0.164 HD
HETATM    6  H   UNL     1     -41.597  56.880 -52.963  1.00  0.00     0.171 HD
ENDROOT
BRANCH   1   7
HETATM    7  C   UNL     1     -40.676  54.390 -52.647  1.00  0.00     0.138 C 
BRANCH   7   8
HETATM    8  C   UNL     1     -40.805  53.458 -53.893  1.00  0.00    -0.004 C 
HETATM    9  C   UNL     1     -39.964  54.116 -55.019  1.00  0.00     0.021 C 
HETATM   10  C   UNL     1     -42.260  53.445 -54.418  1.00  0.00     0.021 C 
BRANCH   8  11
HETATM   11  C   UNL     1     -40.334  52.025 -53.572  1.00  0.00    -0.046 A 
HETATM   12  C   UNL     1     -40.336  50.996 -54.524  1.00  0.00     0.027 A 
HETATM   13  C   UNL     1     -39.912  49.722 -54.160  1.00  0.00     0.116 A 
HETATM   14  N   UNL     1     -39.476  49.396 -52.928  1.00  0.00    -0.273 NA
HETATM   15  C   UNL     1     -39.460  50.389 -52.020  1.00  0.00     0.116 A 
HETATM   16  C   UNL     1     -39.868  51.689 -52.290  1.00  0.00     0.027 A 
ENDBRANCH   8  11
ENDBRANCH   7   8
ENDBRANCH   1   7
BRANCH   3  17
HETATM   17  C   UNL     1     -42.132  58.292 -51.564  1.00  0.00     0.070 A 
HETATM   18  C   UNL     1     -41.312  59.052 -50.714  1.00  0.00     0.101 A 
HETATM   19  C   UNL     1     -41.706  60.341 -50.339  1.00  0.00     0.039 A 
HETATM   20  C   UNL     1     -42.922  60.862 -50.785  1.00  0.00     0.003 A 
HETATM   21  C   UNL     1     -43.728  60.116 -51.642  1.00  0.00     0.002 A 
HETATM   22  C   UNL     1     -43.325  58.843 -52.046  1.00  0.00     0.032 A 
BRANCH  18  23
HETATM   23  O   UNL     1     -40.051  58.600 -50.416  1.00  0.00    -0.288 OA
BRANCH  23  24
HETATM   24  C   UNL     1     -39.042  59.472 -50.906  1.00  0.00     0.505 C 
HETATM   25  F   UNL     1     -37.885  59.148 -50.270  1.00  0.00    -0.184 F 
HETATM   26  F   UNL     1     -38.831  59.196 -52.221  1.00  0.00    -0.184 F 
ENDBRANCH  23  24
ENDBRANCH  18  23
ENDBRANCH   3  17
TORSDOF 6
ENDMDL
MODEL 2
REMARK VINA RESULT:      -7.6      4.064      6.952
REMARK  6 active torsions:
REMARK  status: ('A' for Active; 'I' for Inactive)
REMARK    1  A    between atoms: C_2  and  C_3 
REMARK    2  A    between atoms: C_2  and  C_9 
REMARK    3  A    between atoms: C_9  and  N_10 
REMARK       I    between atoms: N_10  and  C_11 
REMARK       I    between atoms: C_11  and  N_12 
REMARK    4  A    between atoms: N_12  and  C_13 
REMARK    5  A    between atoms: C_14  and  O_15 
REMARK    6  A    between atoms: O_15  and  C_16 
ROOT
HETATM    1  N   UNL     1     -42.751  56.203 -54.312  1.00  0.00    -0.342 N 
HETATM    2  C   UNL     1     -42.428  54.993 -53.774  1.00  0.00     0.320 C 
HETATM    3  N   UNL     1     -41.101  54.666 -53.817  1.00  0.00    -0.306 N 
HETATM    4  O   UNL     1     -43.313  54.329 -53.242  1.00  0.00    -0.247 OA
HETATM    5  H   UNL     1     -43.744  56.394 -54.233  1.00  0.00     0.164 HD
HETATM    6  H   UNL     1     -40.497  55.462 -53.699  1.00  0.00     0.171 HD
ENDROOT
BRANCH   1   7
HETATM    7  C   UNL     1     -42.010  57.011 -55.269  1.00  0.00     0.138 C 
BRANCH   7   8
HETATM    8  C   UNL     1     -42.873  57.851 -56.262  1.00  0.00    -0.004 C 
HETATM    9  C   UNL     1     -42.440  59.329 -56.073  1.00  0.00     0.021 C 
HETATM   10  C   UNL     1     -44.366  57.804 -55.862  1.00  0.00     0.021 C 
BRANCH   8  11
HETATM   11  C   UNL     1     -42.687  57.367 -57.714  1.00  0.00    -0.046 A 
HETATM   12  C   UNL     1     -43.178  56.137 -58.172  1.00  0.00     0.027 A 
HETATM   13  C   UNL     1     -42.959  55.759 -59.492  1.00  0.00     0.116 A 
HETATM   14  N   UNL     1     -42.302  56.512 -60.394  1.00  0.00    -0.273 NA
HETATM   15  C   UNL     1     -41.845  57.700 -59.957  1.00  0.00     0.116 A 
HETATM   16  C   UNL     1     -42.012  58.161 -58.657  1.00  0.00     0.027 A 
ENDBRANCH   8  11
ENDBRANCH   7   8
ENDBRANCH   1   7
BRANCH   3  17
HETATM   17  C   UNL     1     -40.591  53.440 -53.331  1.00  0.00     0.070 A 
HETATM   18  C   UNL     1     -40.236  53.236 -51.987  1.00  0.00     0.101 A 
HETATM   19  C   UNL     1     -39.735  51.994 -51.582  1.00  0.00     0.039 A 
HETATM   20  C   UNL     1     -39.561  50.968 -52.513  1.00  0.00     0.003 A 
HETATM   21  C   UNL     1     -39.928  51.163 -53.842  1.00  0.00     0.002 A 
HETATM   22  C   UNL     1     -40.460  52.389 -54.246  1.00  0.00     0.032 A 
BRANCH  18  23
HETATM   23  O   UNL     1     -40.562  54.188 -51.055  1.00  0.00    -0.288 OA
BRANCH  23  24
HETATM   24  C   UNL     1     -40.126  53.829 -49.750  1.00  0.00     0.505 C 
HETATM   25  F   UNL     1     -38.971  54.505 -49.510  1.00  0.00    -0.184 F 
HETATM   26  F   UNL     1     -41.026  54.301 -48.847  1.00  0.00    -0.184 F 
ENDBRANCH  23  24
ENDBRANCH  18  23
ENDBRANCH   3  17
TORSDOF 6
ENDMDL
MODEL 3
REMARK VINA RESULT:      -7.6      5.401      6.758
REMARK  6 active torsions:
REMARK  status: ('A' for Active; 'I' for Inactive)
REMARK    1  A    between atoms: C_2  and  C_3 
REMARK    2  A    between atoms: C_2  and  C_9 
REMARK    3  A    between atoms: C_9  and  N_10 
REMARK       I    between atoms: N_10  and  C_11 
REMARK       I    between atoms: C_11  and  N_12 
REMARK    4  A    between atoms: N_12  and  C_13 
REMARK    5  A    between atoms: C_14  and  O_15 
REMARK    6  A    between atoms: O_15  and  C_16 
ROOT
HETATM    1  N   UNL     1     -43.497  55.108 -54.896  1.00  0.00    -0.342 N 
HETATM    2  C   UNL     1     -43.594  56.107 -55.818  1.00  0.00     0.320 C 
HETATM    3  N   UNL     1     -43.045  55.835 -57.040  1.00  0.00    -0.306 N 
HETATM    4  O   UNL     1     -44.209  57.127 -55.518  1.00  0.00    -0.247 OA
HETATM    5  H   UNL     1     -43.937  55.363 -54.018  1.00  0.00     0.164 HD
HETATM    6  H   UNL     1     -43.148  54.871 -57.310  1.00  0.00     0.171 HD
ENDROOT
BRANCH   1   7
HETATM    7  C   UNL     1     -42.574  53.983 -54.855  1.00  0.00     0.138 C 
BRANCH   7   8
HETATM    8  C   UNL     1     -41.263  54.210 -54.037  1.00  0.00    -0.004 C 
HETATM    9  C   UNL     1     -41.645  55.131 -52.848  1.00  0.00     0.021 C 
HETATM   10  C   UNL     1     -40.234  55.012 -54.867  1.00  0.00     0.021 C 
BRANCH   8  11
HETATM   11  C   UNL     1     -40.655  52.873 -53.569  1.00  0.00    -0.046 A 
HETATM   12  C   UNL     1     -40.516  51.765 -54.417  1.00  0.00     0.027 A 
HETATM   13  C   UNL     1     -39.973  50.585 -53.923  1.00  0.00     0.116 A 
HETATM   14  N   UNL     1     -39.547  50.423 -52.656  1.00  0.00    -0.273 NA
HETATM   15  C   UNL     1     -39.666  51.492 -51.847  1.00  0.00     0.116 A 
HETATM   16  C   UNL     1     -40.200  52.710 -52.250  1.00  0.00     0.027 A 
ENDBRANCH   8  11
ENDBRANCH   7   8
ENDBRANCH   1   7
BRANCH   3  17
HETATM   17  C   UNL     1     -43.031  56.766 -58.104  1.00  0.00     0.070 A 
HETATM   18  C   UNL     1     -43.839  56.638 -59.246  1.00  0.00     0.101 A 
HETATM   19  C   UNL     1     -43.766  57.599 -60.260  1.00  0.00     0.039 A 
HETATM   20  C   UNL     1     -42.874  58.668 -60.153  1.00  0.00     0.003 A 
HETATM   21  C   UNL     1     -42.084  58.806 -59.014  1.00  0.00     0.002 A 
HETATM   22  C   UNL     1     -42.177  57.869 -57.984  1.00  0.00     0.032 A 
BRANCH  18  23
HETATM   23  O   UNL     1     -44.823  55.683 -59.268  1.00  0.00    -0.288 OA
BRANCH  23  24
HETATM   24  C   UNL     1     -44.421  54.519 -59.978  1.00  0.00     0.505 C 
HETATM   25  F   UNL     1     -44.807  53.443 -59.241  1.00  0.00    -0.184 F 
HETATM   26  F   UNL     1     -45.133  54.448 -61.135  1.00  0.00    -0.184 F 
ENDBRANCH  23  24
ENDBRANCH  18  23
ENDBRANCH   3  17
TORSDOF 6
ENDMDL
MODEL 4
REMARK VINA RESULT:      -7.6      2.416      6.764
REMARK  6 active torsions:
REMARK  status: ('A' for Active; 'I' for Inactive)
REMARK    1  A    between atoms: C_2  and  C_3 
REMARK    2  A    between atoms: C_2  and  C_9 
REMARK    3  A    between atoms: C_9  and  N_10 
REMARK       I    between atoms: N_10  and  C_11 
REMARK       I    between atoms: C_11  and  N_12 
REMARK    4  A    between atoms: N_12  and  C_13 
REMARK    5  A    between atoms: C_14  and  O_15 
REMARK    6  A    between atoms: O_15  and  C_16 
ROOT
HETATM    1  N   UNL     1     -43.959  55.762 -52.202  1.00  0.00    -0.342 N 
HETATM    2  C   UNL     1     -43.263  54.592 -52.131  1.00  0.00     0.320 C 
HETATM    3  N   UNL     1     -42.030  54.605 -52.721  1.00  0.00    -0.306 N 
HETATM    4  O   UNL     1     -43.749  53.655 -51.503  1.00  0.00    -0.247 OA
HETATM    5  H   UNL     1     -44.855  55.694 -51.732  1.00  0.00     0.164 HD
HETATM    6  H   UNL     1     -41.561  55.491 -52.630  1.00  0.00     0.171 HD
ENDROOT
BRANCH   1   7
HETATM    7  C   UNL     1     -43.794  56.875 -53.127  1.00  0.00     0.138 C 
BRANCH   7   8
HETATM    8  C   UNL     1     -43.675  58.288 -52.475  1.00  0.00    -0.004 C 
HETATM    9  C   UNL     1     -44.544  58.250 -51.189  1.00  0.00     0.021 C 
HETATM   10  C   UNL     1     -44.322  59.363 -53.378  1.00  0.00     0.021 C 
BRANCH   8  11
HETATM   11  C   UNL     1     -42.205  58.646 -52.176  1.00  0.00    -0.046 A 
HETATM   12  C   UNL     1     -41.193  58.554 -53.141  1.00  0.00     0.027 A 
HETATM   13  C   UNL     1     -39.885  58.878 -52.797  1.00  0.00     0.116 A 
HETATM   14  N   UNL     1     -39.508  59.296 -51.573  1.00  0.00    -0.273 NA
HETATM   15  C   UNL     1     -40.484  59.399 -50.653  1.00  0.00     0.116 A 
HETATM   16  C   UNL     1     -41.816  59.094 -50.902  1.00  0.00     0.027 A 
ENDBRANCH   8  11
ENDBRANCH   7   8
ENDBRANCH   1   7
BRANCH   3  17
HETATM   17  C   UNL     1     -41.185  53.472 -52.767  1.00  0.00     0.070 A 
HETATM   18  C   UNL     1     -40.471  53.001 -51.652  1.00  0.00     0.101 A 
HETATM   19  C   UNL     1     -39.651  51.875 -51.777  1.00  0.00     0.039 A 
HETATM   20  C   UNL     1     -39.518  51.235 -53.011  1.00  0.00     0.003 A 
HETATM   21  C   UNL     1     -40.238  51.690 -54.113  1.00  0.00     0.002 A 
HETATM   22  C   UNL     1     -41.084  52.793 -53.987  1.00  0.00     0.032 A 
BRANCH  18  23
HETATM   23  O   UNL     1     -40.733  53.532 -50.414  1.00  0.00    -0.288 OA
BRANCH  23  24
HETATM   24  C   UNL     1     -39.679  54.369 -49.958  1.00  0.00     0.505 C 
HETATM   25  F   UNL     1     -40.123  55.652 -50.024  1.00  0.00    -0.184 F 
HETATM   26  F   UNL     1     -39.466  54.119 -48.638  1.00  0.00    -0.184 F 
ENDBRANCH  23  24
ENDBRANCH  18  23
ENDBRANCH   3  17
TORSDOF 6
ENDMDL
MODEL 5
REMARK VINA RESULT:      -7.5      3.132      6.938
REMARK  6 active torsions:
REMARK  status: ('A' for Active; 'I' for Inactive)
REMARK    1  A    between atoms: C_2  and  C_3 
REMARK    2  A    between atoms: C_2  and  C_9 
REMARK    3  A    between atoms: C_9  and  N_10 
REMARK       I    between atoms: N_10  and  C_11 
REMARK       I    between atoms: C_11  and  N_12 
REMARK    4  A    between atoms: N_12  and  C_13 
REMARK    5  A    between atoms: C_14  and  O_15 
REMARK    6  A    between atoms: O_15  and  C_16 
ROOT
HETATM    1  N   UNL     1     -41.576  55.486 -55.625  1.00  0.00    -0.342 N 
HETATM    2  C   UNL     1     -40.776  54.559 -55.026  1.00  0.00     0.320 C 
HETATM    3  N   UNL     1     -41.431  53.545 -54.383  1.00  0.00    -0.306 N 
HETATM    4  O   UNL     1     -39.559  54.657 -55.158  1.00  0.00    -0.247 OA
HETATM    5  H   UNL     1     -41.032  56.200 -56.099  1.00  0.00     0.164 HD
HETATM    6  H   UNL     1     -42.281  53.272 -54.847  1.00  0.00     0.171 HD
ENDROOT
BRANCH   1   7
HETATM    7  C   UNL     1     -42.972  55.803 -55.362  1.00  0.00     0.138 C 
BRANCH   7   8
HETATM    8  C   UNL     1     -43.240  57.193 -54.704  1.00  0.00    -0.004 C 
HETATM    9  C   UNL     1     -44.281  57.909 -55.606  1.00  0.00     0.021 C 
HETATM   10  C   UNL     1     -41.972  58.076 -54.756  1.00  0.00     0.021 C 
BRANCH   8  11
HETATM   11  C   UNL     1     -43.732  57.040 -53.250  1.00  0.00    -0.046 A 
HETATM   12  C   UNL     1     -43.283  56.019 -52.402  1.00  0.00     0.027 A 
HETATM   13  C   UNL     1     -43.782  55.932 -51.107  1.00  0.00     0.116 A 
HETATM   14  N   UNL     1     -44.683  56.787 -50.587  1.00  0.00    -0.273 NA
HETATM   15  C   UNL     1     -45.102  57.776 -51.398  1.00  0.00     0.116 A 
HETATM   16  C   UNL     1     -44.663  57.940 -52.706  1.00  0.00     0.027 A 
ENDBRANCH   8  11
ENDBRANCH   7   8
ENDBRANCH   1   7
BRANCH   3  17
HETATM   17  C   UNL     1     -40.761  52.514 -53.685  1.00  0.00     0.070 A 
HETATM   18  C   UNL     1     -40.303  52.654 -52.365  1.00  0.00     0.101 A 
HETATM   19  C   UNL     1     -39.645  51.589 -51.740  1.00  0.00     0.039 A 
HETATM   20  C   UNL     1     -39.418  50.399 -52.434  1.00  0.00     0.003 A 
HETATM   21  C   UNL     1     -39.886  50.252 -53.738  1.00  0.00     0.002 A 
HETATM   22  C   UNL     1     -40.573  51.299 -54.355  1.00  0.00     0.032 A 
BRANCH  18  23
HETATM   23  O   UNL     1     -40.673  53.759 -51.640  1.00  0.00    -0.288 OA
BRANCH  23  24
HETATM   24  C   UNL     1     -40.425  53.593 -50.250  1.00  0.00     0.505 C 
HETATM   25  F   UNL     1     -39.406  54.429 -49.919  1.00  0.00    -0.184 F 
HETATM   26  F   UNL     1     -41.509  54.039 -49.560  1.00  0.00    -0.184 F 
ENDBRANCH  23  24
ENDBRANCH  18  23
ENDBRANCH   3  17
TORSDOF 6
ENDMDL
MODEL 6
REMARK VINA RESULT:      -7.4      3.171      7.096
REMARK  6 active torsions:
REMARK  status: ('A' for Active; 'I' for Inactive)
REMARK    1  A    between atoms: C_2  and  C_3 
REMARK    2  A    between atoms: C_2  and  C_9 
REMARK    3  A    between atoms: C_9  and  N_10 
REMARK       I    between atoms: N_10  and  C_11 
REMARK       I    between atoms: C_11  and  N_12 
REMARK    4  A    between atoms: N_12  and  C_13 
REMARK    5  A    between atoms: C_14  and  O_15 
REMARK    6  A    between atoms: O_15  and  C_16 
ROOT
HETATM    1  N   UNL     1     -43.075  55.962 -50.818  1.00  0.00    -0.342 N 
HETATM    2  C   UNL     1     -42.665  54.779 -51.356  1.00  0.00     0.320 C 
HETATM    3  N   UNL     1     -41.424  54.792 -51.931  1.00  0.00    -0.306 N 
HETATM    4  O   UNL     1     -43.387  53.793 -51.231  1.00  0.00    -0.247 OA
HETATM    5  H   UNL     1     -43.992  55.882 -50.392  1.00  0.00     0.164 HD
HETATM    6  H   UNL     1     -40.776  55.393 -51.450  1.00  0.00     0.171 HD
ENDROOT
BRANCH   1   7
HETATM    7  C   UNL     1     -42.607  57.311 -51.101  1.00  0.00     0.138 C 
BRANCH   7   8
HETATM    8  C   UNL     1     -43.617  58.237 -51.850  1.00  0.00    -0.004 C 
HETATM    9  C   UNL     1     -43.244  59.692 -51.461  1.00  0.00     0.021 C 
HETATM   10  C   UNL     1     -45.053  58.023 -51.318  1.00  0.00     0.021 C 
BRANCH   8  11
HETATM   11  C   UNL     1     -43.565  58.006 -53.373  1.00  0.00    -0.046 A 
HETATM   12  C   UNL     1     -42.361  57.870 -54.079  1.00  0.00     0.027 A 
HETATM   13  C   UNL     1     -42.390  57.679 -55.456  1.00  0.00     0.116 A 
HETATM   14  N   UNL     1     -43.520  57.602 -56.184  1.00  0.00    -0.273 NA
HETATM   15  C   UNL     1     -44.675  57.717 -55.503  1.00  0.00     0.116 A 
HETATM   16  C   UNL     1     -44.746  57.913 -54.129  1.00  0.00     0.027 A 
ENDBRANCH   8  11
ENDBRANCH   7   8
ENDBRANCH   1   7
BRANCH   3  17
HETATM   17  C   UNL     1     -40.853  53.663 -52.561  1.00  0.00     0.070 A 
HETATM   18  C   UNL     1     -41.009  53.387 -53.929  1.00  0.00     0.101 A 
HETATM   19  C   UNL     1     -40.415  52.246 -54.480  1.00  0.00     0.039 A 
HETATM   20  C   UNL     1     -39.693  51.368 -53.670  1.00  0.00     0.003 A 
HETATM   21  C   UNL     1     -39.523  51.649 -52.316  1.00  0.00     0.002 A 
HETATM   22  C   UNL     1     -40.084  52.803 -51.767  1.00  0.00     0.032 A 
BRANCH  18  23
HETATM   23  O   UNL     1     -41.577  54.334 -54.744  1.00  0.00    -0.288 OA
BRANCH  23  24
HETATM   24  C   UNL     1     -42.893  53.975 -55.142  1.00  0.00     0.505 C 
HETATM   25  F   UNL     1     -43.756  54.683 -54.365  1.00  0.00    -0.184 F 
HETATM   26  F   UNL     1     -43.097  54.412 -56.414  1.00  0.00    -0.184 F 
ENDBRANCH  23  24
ENDBRANCH  18  23
ENDBRANCH   3  17
TORSDOF 6
ENDMDL
MODEL 7
REMARK VINA RESULT:      -7.0      4.762      7.254
REMARK  6 active torsions:
REMARK  status: ('A' for Active; 'I' for Inactive)
REMARK    1  A    between atoms: C_2  and  C_3 
REMARK    2  A    between atoms: C_2  and  C_9 
REMARK    3  A    between atoms: C_9  and  N_10 
REMARK       I    between atoms: N_10  and  C_11 
REMARK       I    between atoms: C_11  and  N_12 
REMARK    4  A    between atoms: N_12  and  C_13 
REMARK    5  A    between atoms: C_14  and  O_15 
REMARK    6  A    between atoms: O_15  and  C_16 
ROOT
HETATM    1  N   UNL     1     -43.314  56.069 -55.880  1.00  0.00    -0.342 N 
HETATM    2  C   UNL     1     -42.928  55.064 -55.044  1.00  0.00     0.320 C 
HETATM    3  N   UNL     1     -41.597  55.038 -54.731  1.00  0.00    -0.306 N 
HETATM    4  O   UNL     1     -43.787  54.314 -54.588  1.00  0.00    -0.247 OA
HETATM    5  H   UNL     1     -44.313  56.045 -56.059  1.00  0.00     0.164 HD
HETATM    6  H   UNL     1     -41.194  55.957 -54.656  1.00  0.00     0.171 HD
ENDROOT
BRANCH   1   7
HETATM    7  C   UNL     1     -42.510  56.856 -56.803  1.00  0.00     0.138 C 
BRANCH   7   8
HETATM    8  C   UNL     1     -43.307  57.733 -57.820  1.00  0.00    -0.004 C 
HETATM    9  C   UNL     1     -42.255  58.590 -58.575  1.00  0.00     0.021 C 
HETATM   10  C   UNL     1     -44.209  58.747 -57.078  1.00  0.00     0.021 C 
BRANCH   8  11
HETATM   11  C   UNL     1     -44.146  56.861 -58.775  1.00  0.00    -0.046 A 
HETATM   12  C   UNL     1     -43.640  55.708 -59.390  1.00  0.00     0.027 A 
HETATM   13  C   UNL     1     -44.450  54.978 -60.253  1.00  0.00     0.116 A 
HETATM   14  N   UNL     1     -45.725  55.299 -60.544  1.00  0.00    -0.273 NA
HETATM   15  C   UNL     1     -46.214  56.398 -59.940  1.00  0.00     0.116 A 
HETATM   16  C   UNL     1     -45.480  57.191 -59.067  1.00  0.00     0.027 A 
ENDBRANCH   8  11
ENDBRANCH   7   8
ENDBRANCH   1   7
BRANCH   3  17
HETATM   17  C   UNL     1     -41.018  54.051 -53.901  1.00  0.00     0.070 A 
HETATM   18  C   UNL     1     -40.936  54.175 -52.505  1.00  0.00     0.101 A 
HETATM   19  C   UNL     1     -40.344  53.156 -51.750  1.00  0.00     0.039 A 
HETATM   20  C   UNL     1     -39.812  52.031 -52.382  1.00  0.00     0.003 A 
HETATM   21  C   UNL     1     -39.907  51.899 -53.766  1.00  0.00     0.002 A 
HETATM   22  C   UNL     1     -40.526  52.896 -54.521  1.00  0.00     0.032 A 
BRANCH  18  23
HETATM   23  O   UNL     1     -41.603  55.199 -51.881  1.00  0.00    -0.288 OA
BRANCH  23  24
HETATM   24  C   UNL     1     -42.798  54.754 -51.254  1.00  0.00     0.505 C 
HETATM   25  F   UNL     1     -42.611  54.856 -49.911  1.00  0.00    -0.184 F 
HETATM   26  F   UNL     1     -43.798  55.625 -51.555  1.00  0.00    -0.184 F 
ENDBRANCH  23  24
ENDBRANCH  18  23
ENDBRANCH   3  17
TORSDOF 6
ENDMDL
MODEL 8
REMARK VINA RESULT:      -6.9      1.677      2.103
REMARK  6 active torsions:
REMARK  status: ('A' for Active; 'I' for Inactive)
REMARK    1  A    between atoms: C_2  and  C_3 
REMARK    2  A    between atoms: C_2  and  C_9 
REMARK    3  A    between atoms: C_9  and  N_10 
REMARK       I    between atoms: N_10  and  C_11 
REMARK       I    between atoms: C_11  and  N_12 
REMARK    4  A    between atoms: N_12  and  C_13 
REMARK    5  A    between atoms: C_14  and  O_15 
REMARK    6  A    between atoms: O_15  and  C_16 
ROOT
HETATM    1  N   UNL     1     -42.118  56.473 -53.869  1.00  0.00    -0.342 N 
HETATM    2  C   UNL     1     -42.698  57.602 -53.372  1.00  0.00     0.320 C 
HETATM    3  N   UNL     1     -42.706  57.708 -52.009  1.00  0.00    -0.306 N 
HETATM    4  O   UNL     1     -43.100  58.454 -54.160  1.00  0.00    -0.247 OA
HETATM    5  H   UNL     1     -42.128  56.463 -54.884  1.00  0.00     0.164 HD
HETATM    6  H   UNL     1     -41.883  57.317 -51.581  1.00  0.00     0.171 HD
ENDROOT
BRANCH   1   7
HETATM    7  C   UNL     1     -41.877  55.198 -53.211  1.00  0.00     0.138 C 
BRANCH   7   8
HETATM    8  C   UNL     1     -41.253  54.080 -54.104  1.00  0.00    -0.004 C 
HETATM    9  C   UNL     1     -40.199  54.779 -55.004  1.00  0.00     0.021 C 
HETATM   10  C   UNL     1     -42.308  53.502 -55.075  1.00  0.00     0.021 C 
BRANCH   8  11
HETATM   11  C   UNL     1     -40.636  52.956 -53.246  1.00  0.00    -0.046 A 
HETATM   12  C   UNL     1     -40.528  53.040 -51.851  1.00  0.00     0.027 A 
HETATM   13  C   UNL     1     -39.946  51.994 -51.143  1.00  0.00     0.116 A 
HETATM   14  N   UNL     1     -39.474  50.869 -51.712  1.00  0.00    -0.273 NA
HETATM   15  C   UNL     1     -39.593  50.783 -53.050  1.00  0.00     0.116 A 
HETATM   16  C   UNL     1     -40.155  51.777 -53.840  1.00  0.00     0.027 A 
ENDBRANCH   8  11
ENDBRANCH   7   8
ENDBRANCH   1   7
BRANCH   3  17
HETATM   17  C   UNL     1     -43.290  58.797 -51.322  1.00  0.00     0.070 A 
HETATM   18  C   UNL     1     -42.547  59.889 -50.844  1.00  0.00     0.101 A 
HETATM   19  C   UNL     1     -43.196  60.929 -50.169  1.00  0.00     0.039 A 
HETATM   20  C   UNL     1     -44.572  60.871 -49.946  1.00  0.00     0.003 A 
HETATM   21  C   UNL     1     -45.313  59.797 -50.434  1.00  0.00     0.002 A 
HETATM   22  C   UNL     1     -44.677  58.773 -51.137  1.00  0.00     0.032 A 
BRANCH  18  23
HETATM   23  O   UNL     1     -41.230  60.016 -51.208  1.00  0.00    -0.288 OA
BRANCH  23  24
HETATM   24  C   UNL     1     -40.349  59.524 -50.207  1.00  0.00     0.505 C 
HETATM   25  F   UNL     1     -39.953  58.282 -50.594  1.00  0.00    -0.184 F 
HETATM   26  F   UNL     1     -39.223  60.287 -50.206  1.00  0.00    -0.184 F 
ENDBRANCH  23  24
ENDBRANCH  18  23
ENDBRANCH   3  17
TORSDOF 6
ENDMDL
MODEL 9
REMARK VINA RESULT:      -6.9      1.954      2.394
REMARK  6 active torsions:
REMARK  status: ('A' for Active; 'I' for Inactive)
REMARK    1  A    between atoms: C_2  and  C_3 
REMARK    2  A    between atoms: C_2  and  C_9 
REMARK    3  A    between atoms: C_9  and  N_10 
REMARK       I    between atoms: N_10  and  C_11 
REMARK       I    between atoms: C_11  and  N_12 
REMARK    4  A    between atoms: N_12  and  C_13 
REMARK    5  A    between atoms: C_14  and  O_15 
REMARK    6  A    between atoms: O_15  and  C_16 
ROOT
HETATM    1  N   UNL     1     -41.903  54.848 -53.592  1.00  0.00    -0.342 N 
HETATM    2  C   UNL     1     -42.445  56.097 -53.626  1.00  0.00     0.320 C 
HETATM    3  N   UNL     1     -41.549  57.129 -53.590  1.00  0.00    -0.306 N 
HETATM    4  O   UNL     1     -43.662  56.208 -53.752  1.00  0.00    -0.247 OA
HETATM    5  H   UNL     1     -42.616  54.128 -53.640  1.00  0.00     0.164 HD
HETATM    6  H   UNL     1     -40.694  56.923 -54.079  1.00  0.00     0.171 HD
ENDROOT
BRANCH   1   7
HETATM    7  C   UNL     1     -40.590  54.428 -53.123  1.00  0.00     0.138 C 
BRANCH   7   8
HETATM    8  C   UNL     1     -40.585  53.378 -51.969  1.00  0.00    -0.004 C 
HETATM    9  C   UNL     1     -42.008  53.406 -51.348  1.00  0.00     0.021 C 
HETATM   10  C   UNL     1     -39.631  53.816 -50.834  1.00  0.00     0.021 C 
BRANCH   8  11
HETATM   11  C   UNL     1     -40.200  51.977 -52.487  1.00  0.00    -0.046 A 
HETATM   12  C   UNL     1     -40.216  51.642 -53.847  1.00  0.00     0.027 A 
HETATM   13  C   UNL     1     -39.872  50.353 -54.242  1.00  0.00     0.116 A 
HETATM   14  N   UNL     1     -39.502  49.378 -53.391  1.00  0.00    -0.273 NA
HETATM   15  C   UNL     1     -39.472  49.706 -52.086  1.00  0.00     0.116 A 
HETATM   16  C   UNL     1     -39.803  50.964 -51.598  1.00  0.00     0.027 A 
ENDBRANCH   8  11
ENDBRANCH   7   8
ENDBRANCH   1   7
BRANCH   3  17
HETATM   17  C   UNL     1     -41.936  58.489 -53.588  1.00  0.00     0.070 A 
HETATM   18  C   UNL     1     -42.308  59.179 -52.423  1.00  0.00     0.101 A 
HETATM   19  C   UNL     1     -42.683  60.525 -52.502  1.00  0.00     0.039 A 
HETATM   20  C   UNL     1     -42.715  61.174 -53.737  1.00  0.00     0.003 A 
HETATM   21  C   UNL     1     -42.330  60.497 -54.892  1.00  0.00     0.002 A 
HETATM   22  C   UNL     1     -41.923  59.164 -54.815  1.00  0.00     0.032 A 
BRANCH  18  23
HETATM   23  O   UNL     1     -42.117  58.585 -51.201  1.00  0.00    -0.288 OA
BRANCH  23  24
HETATM   24  C   UNL     1     -40.788  58.755 -50.726  1.00  0.00     0.505 C 
HETATM   25  F   UNL     1     -40.867  59.363 -49.513  1.00  0.00    -0.184 F 
HETATM   26  F   UNL     1     -40.251  57.528 -50.491  1.00  0.00    -0.184 F 
ENDBRANCH  23  24
ENDBRANCH  18  23
ENDBRANCH   3  17
TORSDOF 6
ENDMDL
MODEL 10
REMARK VINA RESULT:      -6.8      4.405      7.514
REMARK  6 active torsions:
REMARK  status: ('A' for Active; 'I' for Inactive)
REMARK    1  A    between atoms: C_2  and  C_3 
REMARK    2  A    between atoms: C_2  and  C_9 
REMARK    3  A    between atoms: C_9  and  N_10 
REMARK       I    between atoms: N_10  and  C_11 
REMARK       I    between atoms: C_11  and  N_12 
REMARK    4  A    between atoms: N_12  and  C_13 
REMARK    5  A    between atoms: C_14  and  O_15 
REMARK    6  A    between atoms: O_15  and  C_16 
ROOT
HETATM    1  N   UNL     1     -41.042  55.759 -53.520  1.00  0.00    -0.342 N 
HETATM    2  C   UNL     1     -40.903  54.840 -52.523  1.00  0.00     0.320 C 
HETATM    3  N   UNL     1     -40.464  53.606 -52.916  1.00  0.00    -0.306 N 
HETATM    4  O   UNL     1     -41.111  55.192 -51.365  1.00  0.00    -0.247 OA
HETATM    5  H   UNL     1     -41.353  56.656 -53.163  1.00  0.00     0.164 HD
HETATM    6  H   UNL     1     -39.804  53.649 -53.675  1.00  0.00     0.171 HD
ENDROOT
BRANCH   1   7
HETATM    7  C   UNL     1     -41.192  55.544 -54.952  1.00  0.00     0.138 C 
BRANCH   7   8
HETATM    8  C   UNL     1     -42.659  55.536 -55.487  1.00  0.00    -0.004 C 
HETATM    9  C   UNL     1     -43.505  56.323 -54.451  1.00  0.00     0.021 C 
HETATM   10  C   UNL     1     -43.234  54.101 -55.485  1.00  0.00     0.021 C 
BRANCH   8  11
HETATM   11  C   UNL     1     -42.744  56.150 -56.899  1.00  0.00    -0.046 A 
HETATM   12  C   UNL     1     -42.413  57.485 -57.166  1.00  0.00     0.027 A 
HETATM   13  C   UNL     1     -42.529  57.976 -58.462  1.00  0.00     0.116 A 
HETATM   14  N   UNL     1     -42.937  57.241 -59.513  1.00  0.00    -0.273 NA
HETATM   15  C   UNL     1     -43.239  55.954 -59.258  1.00  0.00     0.116 A 
HETATM   16  C   UNL     1     -43.158  55.377 -57.997  1.00  0.00     0.027 A 
ENDBRANCH   8  11
ENDBRANCH   7   8
ENDBRANCH   1   7
BRANCH   3  17
HETATM   17  C   UNL     1     -40.290  52.526 -52.020  1.00  0.00     0.070 A 
HETATM   18  C   UNL     1     -39.838  51.260 -52.424  1.00  0.00     0.101 A 
HETATM   19  C   UNL     1     -39.695  50.238 -51.479  1.00  0.00     0.039 A 
HETATM   20  C   UNL     1     -40.026  50.467 -50.142  1.00  0.00     0.003 A 
HETATM   21  C   UNL     1     -40.459  51.727 -49.736  1.00  0.00     0.002 A 
HETATM   22  C   UNL     1     -40.572  52.759 -50.669  1.00  0.00     0.032 A 
BRANCH  18  23
HETATM   23  O   UNL     1     -39.361  51.093 -53.700  1.00  0.00    -0.288 OA
BRANCH  23  24
HETATM   24  C   UNL     1     -39.945  49.969 -54.345  1.00  0.00     0.505 C 
HETATM   25  F   UNL     1     -41.250  50.270 -54.580  1.00  0.00    -0.184 F 
HETATM   26  F   UNL     1     -39.372  49.826 -55.571  1.00  0.00    -0.184 F 
ENDBRANCH  23  24
ENDBRANCH  18  23
ENDBRANCH   3  17
TORSDOF 6
ENDMDL
