MODEL 1
REMARK VINA RESULT:      -8.2      0.000      0.000
REMARK  5 active torsions:
REMARK  status: ('A' for Active; 'I' for Inactive)
REMARK    1  A    between atoms: C_2  and  C_3 
REMARK    2  A    between atoms: C_3  and  C_4 
REMARK    3  A    between atoms: C_7  and  N_8 
REMARK       I    between atoms: N_8  and  C_9 
REMARK       I    between atoms: C_9  and  N_10 
REMARK    4  A    between atoms: N_10  and  N_11 
REMARK       I    between atoms: N_11  and  C_12 
REMARK    5  A    between atoms: C_12  and  C_13 
ROOT
HETATM    1  N   UNL     1     -42.274  55.619 -52.157  1.00  0.00    -0.337 N 
HETATM    2  C   UNL     1     -42.012  56.160 -50.920  1.00  0.00     0.335 C 
HETATM    3  N   UNL     1     -41.868  55.240 -49.919  1.00  0.00    -0.249 N 
HETATM    4  O   UNL     1     -41.903  57.362 -50.703  1.00  0.00    -0.246 OA
HETATM    5  H   UNL     1     -42.778  54.745 -52.098  1.00  0.00     0.164 HD
HETATM    6  H   UNL     1     -41.665  55.581 -48.980  1.00  0.00     0.192 HD
ENDROOT
BRANCH   3   7
HETATM    7  N   UNL     1     -41.696  53.864 -50.149  1.00  0.00    -0.262 N 
HETATM    8  C   UNL     1     -40.388  53.397 -50.094  1.00  0.00     0.272 C 
HETATM    9  O   UNL     1     -39.469  54.096 -49.673  1.00  0.00    -0.266 OA
HETATM   10  H   UNL     1     -42.327  53.445 -50.826  1.00  0.00     0.190 HD
BRANCH   8  11
HETATM   11  C   UNL     1     -40.183  52.047 -50.617  1.00  0.00     0.061 A 
HETATM   12  C   UNL     1     -40.055  51.680 -52.002  1.00  0.00     0.008 A 
HETATM   13  C   UNL     1     -39.861  50.299 -52.060  1.00  0.00     0.043 A 
HETATM   14  C   UNL     1     -40.092  52.398 -53.217  1.00  0.00     0.015 A 
HETATM   15  C   UNL     1     -39.701  49.603 -53.265  1.00  0.00     0.030 A 
HETATM   16  N   UNL     1     -39.862  49.837 -50.766  1.00  0.00    -0.364 N 
HETATM   17  C   UNL     1     -39.744  50.341 -54.451  1.00  0.00     0.002 A 
HETATM   18  C   UNL     1     -39.937  51.719 -54.432  1.00  0.00     0.001 A 
HETATM   19  H   UNL     1     -39.728  48.868 -50.508  1.00  0.00     0.165 HD
HETATM   20  C   UNL     1     -40.056  50.873 -49.889  1.00  0.00     0.106 A 
ENDBRANCH   8  11
ENDBRANCH   3   7
BRANCH   1  21
HETATM   21  C   UNL     1     -42.576  56.497 -53.284  1.00  0.00     0.086 C 
HETATM   22  C   UNL     1     -41.352  56.669 -54.191  1.00  0.00     0.026 C 
HETATM   23  C   UNL     1     -41.092  55.462 -55.093  1.00  0.00     0.006 C 
HETATM   24  C   UNL     1     -42.326  55.052 -55.912  1.00  0.00    -0.014 C 
HETATM   25  C   UNL     1     -43.504  54.799 -54.955  1.00  0.00     0.006 C 
HETATM   26  C   UNL     1     -43.809  56.002 -54.059  1.00  0.00     0.026 C 
BRANCH  24  27
HETATM   27  C   UNL     1     -42.723  56.067 -57.008  1.00  0.00     0.004 C 
BRANCH  27  28
HETATM   28  C   UNL     1     -43.374  55.430 -58.237  1.00  0.00    -0.004 C 
HETATM   29  C   UNL     1     -42.754  55.961 -59.522  1.00  0.00     0.005 C 
ENDBRANCH  27  28
ENDBRANCH  24  27
ENDBRANCH   1  21
TORSDOF 5
ENDMDL
MODEL 2
REMARK VINA RESULT:      -7.6      1.932      2.286
REMARK  5 active torsions:
REMARK  status: ('A' for Active; 'I' for Inactive)
REMARK    1  A    between atoms: C_2  and  C_3 
REMARK    2  A    between atoms: C_3  and  C_4 
REMARK    3  A    between atoms: C_7  and  N_8 
REMARK       I    between atoms: N_8  and  C_9 
REMARK       I    between atoms: C_9  and  N_10 
REMARK    4  A    between atoms: N_10  and  N_11 
REMARK       I    between atoms: N_11  and  C_12 
REMARK    5  A    between atoms: C_12  and  C_13 
ROOT
HETATM    1  N   UNL     1     -44.014  56.486 -52.422  1.00  0.00    -0.337 N 
HETATM    2  C   UNL     1     -44.513  56.628 -51.149  1.00  0.00     0.335 C 
HETATM    3  N   UNL     1     -44.386  55.516 -50.363  1.00  0.00    -0.249 N 
HETATM    4  O   UNL     1     -45.029  57.656 -50.721  1.00  0.00    -0.246 OA
HETATM    5  H   UNL     1     -44.069  55.533 -52.756  1.00  0.00     0.164 HD
HETATM    6  H   UNL     1     -44.732  55.563 -49.406  1.00  0.00     0.192 HD
ENDROOT
BRANCH   3   7
HETATM    7  N   UNL     1     -43.562  54.426 -50.691  1.00  0.00    -0.262 N 
HETATM    8  C   UNL     1     -42.238  54.517 -50.277  1.00  0.00     0.272 C 
HETATM    9  O   UNL     1     -41.863  55.394 -49.501  1.00  0.00    -0.266 OA
HETATM   10  H   UNL     1     -43.756  53.974 -51.580  1.00  0.00     0.190 HD
BRANCH   8  11
HETATM   11  C   UNL     1     -41.329  53.535 -50.865  1.00  0.00     0.061 A 
HETATM   12  C   UNL     1     -41.024  53.387 -52.263  1.00  0.00     0.008 A 
HETATM   13  C   UNL     1     -40.105  52.344 -52.390  1.00  0.00     0.043 A 
HETATM   14  C   UNL     1     -41.451  54.045 -53.438  1.00  0.00     0.015 A 
HETATM   15  C   UNL     1     -39.593  51.929 -53.625  1.00  0.00     0.030 A 
HETATM   16  N   UNL     1     -39.850  51.876 -51.124  1.00  0.00    -0.364 N 
HETATM   17  C   UNL     1     -40.036  52.597 -54.770  1.00  0.00     0.002 A 
HETATM   18  C   UNL     1     -40.952  53.640 -54.682  1.00  0.00     0.001 A 
HETATM   19  H   UNL     1     -39.207  51.124 -50.915  1.00  0.00     0.165 HD
HETATM   20  C   UNL     1     -40.578  52.579 -50.199  1.00  0.00     0.106 A 
ENDBRANCH   8  11
ENDBRANCH   3   7
BRANCH   1  21
HETATM   21  C   UNL     1     -44.202  57.555 -53.400  1.00  0.00     0.086 C 
HETATM   22  C   UNL     1     -42.953  58.438 -53.496  1.00  0.00     0.026 C 
HETATM   23  C   UNL     1     -41.817  57.796 -54.293  1.00  0.00     0.006 C 
HETATM   24  C   UNL     1     -42.259  57.320 -55.685  1.00  0.00    -0.014 C 
HETATM   25  C   UNL     1     -43.454  56.363 -55.534  1.00  0.00     0.006 C 
HETATM   26  C   UNL     1     -44.622  56.989 -54.766  1.00  0.00     0.026 C 
BRANCH  24  27
HETATM   27  C   UNL     1     -42.599  58.465 -56.666  1.00  0.00     0.004 C 
BRANCH  27  28
HETATM   28  C   UNL     1     -42.131  58.213 -58.101  1.00  0.00    -0.004 C 
HETATM   29  C   UNL     1     -43.293  58.302 -59.081  1.00  0.00     0.005 C 
ENDBRANCH  27  28
ENDBRANCH  24  27
ENDBRANCH   1  21
TORSDOF 5
ENDMDL
MODEL 3
REMARK VINA RESULT:      -7.5      3.648      8.304
REMARK  5 active torsions:
REMARK  status: ('A' for Active; 'I' for Inactive)
REMARK    1  A    between atoms: C_2  and  C_3 
REMARK    2  A    between atoms: C_3  and  C_4 
REMARK    3  A    between atoms: C_7  and  N_8 
REMARK       I    between atoms: N_8  and  C_9 
REMARK       I    between atoms: C_9  and  N_10 
REMARK    4  A    between atoms: N_10  and  N_11 
REMARK       I    between atoms: N_11  and  C_12 
REMARK    5  A    between atoms: C_12  and  C_13 
ROOT
HETATM    1  N   UNL     1     -41.942  56.209 -55.001  1.00  0.00    -0.337 N 
HETATM    2  C   UNL     1     -42.363  57.505 -54.816  1.00  0.00     0.335 C 
HETATM    3  N   UNL     1     -43.269  57.943 -55.741  1.00  0.00    -0.249 N 
HETATM    4  O   UNL     1     -41.983  58.229 -53.902  1.00  0.00    -0.246 OA
HETATM    5  H   UNL     1     -41.954  55.933 -55.973  1.00  0.00     0.164 HD
HETATM    6  H   UNL     1     -43.623  58.895 -55.653  1.00  0.00     0.192 HD
ENDROOT
BRANCH   3   7
HETATM    7  N   UNL     1     -43.950  57.088 -56.625  1.00  0.00    -0.262 N 
HETATM    8  C   UNL     1     -43.407  56.972 -57.899  1.00  0.00     0.272 C 
HETATM    9  O   UNL     1     -42.297  57.424 -58.173  1.00  0.00    -0.266 OA
HETATM   10  H   UNL     1     -44.961  57.066 -56.531  1.00  0.00     0.190 HD
BRANCH   8  11
HETATM   11  C   UNL     1     -44.267  56.327 -58.890  1.00  0.00     0.061 A 
HETATM   12  C   UNL     1     -45.404  56.916 -59.545  1.00  0.00     0.008 A 
HETATM   13  C   UNL     1     -45.931  55.966 -60.420  1.00  0.00     0.043 A 
HETATM   14  C   UNL     1     -46.038  58.176 -59.469  1.00  0.00     0.015 A 
HETATM   15  C   UNL     1     -47.054  56.210 -61.221  1.00  0.00     0.030 A 
HETATM   16  N   UNL     1     -45.148  54.842 -60.314  1.00  0.00    -0.364 N 
HETATM   17  C   UNL     1     -47.661  57.465 -61.123  1.00  0.00     0.002 A 
HETATM   18  C   UNL     1     -47.164  58.437 -60.260  1.00  0.00     0.001 A 
HETATM   19  H   UNL     1     -45.294  53.996 -60.848  1.00  0.00     0.165 HD
HETATM   20  C   UNL     1     -44.147  55.042 -59.398  1.00  0.00     0.106 A 
ENDBRANCH   8  11
ENDBRANCH   3   7
BRANCH   1  21
HETATM   21  C   UNL     1     -40.882  55.663 -54.158  1.00  0.00     0.086 C 
HETATM   22  C   UNL     1     -41.466  54.937 -52.940  1.00  0.00     0.026 C 
HETATM   23  C   UNL     1     -42.029  53.554 -53.272  1.00  0.00     0.006 C 
HETATM   24  C   UNL     1     -41.020  52.660 -54.010  1.00  0.00    -0.014 C 
HETATM   25  C   UNL     1     -40.532  53.390 -55.274  1.00  0.00     0.006 C 
HETATM   26  C   UNL     1     -39.933  54.766 -54.970  1.00  0.00     0.026 C 
BRANCH  24  27
HETATM   27  C   UNL     1     -39.822  52.210 -53.144  1.00  0.00     0.004 C 
BRANCH  27  28
HETATM   28  C   UNL     1     -39.713  50.694 -52.974  1.00  0.00    -0.004 C 
HETATM   29  C   UNL     1     -39.553  50.002 -54.321  1.00  0.00     0.005 C 
ENDBRANCH  27  28
ENDBRANCH  24  27
ENDBRANCH   1  21
TORSDOF 5
ENDMDL
MODEL 4
REMARK VINA RESULT:      -7.5      3.324      5.626
REMARK  5 active torsions:
REMARK  status: ('A' for Active; 'I' for Inactive)
REMARK    1  A    between atoms: C_2  and  C_3 
REMARK    2  A    between atoms: C_3  and  C_4 
REMARK    3  A    between atoms: C_7  and  N_8 
REMARK       I    between atoms: N_8  and  C_9 
REMARK       I    between atoms: C_9  and  N_10 
REMARK    4  A    between atoms: N_10  and  N_11 
REMARK       I    between atoms: N_11  and  C_12 
REMARK    5  A    between atoms: C_12  and  C_13 
ROOT
HETATM    1  N   UNL     1     -42.156  57.580 -54.960  1.00  0.00    -0.337 N 
HETATM    2  C   UNL     1     -42.637  57.133 -56.167  1.00  0.00     0.335 C 
HETATM    3  N   UNL     1     -42.069  55.969 -56.606  1.00  0.00    -0.249 N 
HETATM    4  O   UNL     1     -43.507  57.703 -56.817  1.00  0.00    -0.246 OA
HETATM    5  H   UNL     1     -41.195  57.311 -54.801  1.00  0.00     0.164 HD
HETATM    6  H   UNL     1     -42.390  55.583 -57.493  1.00  0.00     0.192 HD
ENDROOT
BRANCH   3   7
HETATM    7  N   UNL     1     -41.292  55.130 -55.789  1.00  0.00    -0.262 N 
HETATM    8  C   UNL     1     -41.978  54.112 -55.135  1.00  0.00     0.272 C 
HETATM    9  O   UNL     1     -43.145  53.839 -55.410  1.00  0.00    -0.266 OA
HETATM   10  H   UNL     1     -40.517  55.573 -55.305  1.00  0.00     0.190 HD
BRANCH   8  11
HETATM   11  C   UNL     1     -41.233  53.436 -54.074  1.00  0.00     0.061 A 
HETATM   12  C   UNL     1     -41.000  53.935 -52.746  1.00  0.00     0.008 A 
HETATM   13  C   UNL     1     -40.259  52.976 -52.054  1.00  0.00     0.043 A 
HETATM   14  C   UNL     1     -41.350  55.122 -52.065  1.00  0.00     0.015 A 
HETATM   15  C   UNL     1     -39.853  53.141 -50.724  1.00  0.00     0.030 A 
HETATM   16  N   UNL     1     -40.051  51.928 -52.918  1.00  0.00    -0.364 N 
HETATM   17  C   UNL     1     -40.213  54.328 -50.078  1.00  0.00     0.002 A 
HETATM   18  C   UNL     1     -40.950  55.307 -50.737  1.00  0.00     0.001 A 
HETATM   19  H   UNL     1     -39.549  51.084 -52.677  1.00  0.00     0.165 HD
HETATM   20  C   UNL     1     -40.627  52.191 -54.135  1.00  0.00     0.106 A 
ENDBRANCH   8  11
ENDBRANCH   3   7
BRANCH   1  21
HETATM   21  C   UNL     1     -42.586  58.877 -54.442  1.00  0.00     0.086 C 
HETATM   22  C   UNL     1     -43.754  58.718 -53.462  1.00  0.00     0.026 C 
HETATM   23  C   UNL     1     -43.324  58.218 -52.083  1.00  0.00     0.006 C 
HETATM   24  C   UNL     1     -42.201  59.064 -51.464  1.00  0.00    -0.014 C 
HETATM   25  C   UNL     1     -41.014  59.119 -52.441  1.00  0.00     0.006 C 
HETATM   26  C   UNL     1     -41.408  59.647 -53.823  1.00  0.00     0.026 C 
BRANCH  24  27
HETATM   27  C   UNL     1     -42.637  60.490 -51.056  1.00  0.00     0.004 C 
BRANCH  27  28
HETATM   28  C   UNL     1     -43.939  60.536 -50.254  1.00  0.00    -0.004 C 
HETATM   29  C   UNL     1     -44.094  61.871 -49.538  1.00  0.00     0.005 C 
ENDBRANCH  27  28
ENDBRANCH  24  27
ENDBRANCH   1  21
TORSDOF 5
ENDMDL
MODEL 5
REMARK VINA RESULT:      -7.4      3.282      5.179
REMARK  5 active torsions:
REMARK  status: ('A' for Active; 'I' for Inactive)
REMARK    1  A    between atoms: C_2  and  C_3 
REMARK    2  A    between atoms: C_3  and  C_4 
REMARK    3  A    between atoms: C_7  and  N_8 
REMARK       I    between atoms: N_8  and  C_9 
REMARK       I    between atoms: C_9  and  N_10 
REMARK    4  A    between atoms: N_10  and  N_11 
REMARK       I    between atoms: N_11  and  C_12 
REMARK    5  A    between atoms: C_12  and  C_13 
ROOT
HETATM    1  N   UNL     1     -42.240  57.601 -54.791  1.00  0.00    -0.337 N 
HETATM    2  C   UNL     1     -42.498  57.100 -56.045  1.00  0.00     0.335 C 
HETATM    3  N   UNL     1     -41.758  55.999 -56.377  1.00  0.00    -0.249 N 
HETATM    4  O   UNL     1     -43.321  57.573 -56.822  1.00  0.00    -0.246 OA
HETATM    5  H   UNL     1     -41.289  57.434 -54.494  1.00  0.00     0.164 HD
HETATM    6  H   UNL     1     -41.909  55.578 -57.293  1.00  0.00     0.192 HD
ENDROOT
BRANCH   3   7
HETATM    7  N   UNL     1     -41.022  55.249 -55.444  1.00  0.00    -0.262 N 
HETATM    8  C   UNL     1     -41.693  54.181 -54.858  1.00  0.00     0.272 C 
HETATM    9  O   UNL     1     -42.782  53.794 -55.275  1.00  0.00    -0.266 OA
HETATM   10  H   UNL     1     -40.363  55.771 -54.875  1.00  0.00     0.190 HD
BRANCH   8  11
HETATM   11  C   UNL     1     -41.036  53.594 -53.691  1.00  0.00     0.061 A 
HETATM   12  C   UNL     1     -40.555  52.245 -53.573  1.00  0.00     0.008 A 
HETATM   13  C   UNL     1     -39.988  52.104 -52.305  1.00  0.00     0.043 A 
HETATM   14  C   UNL     1     -40.553  51.122 -54.430  1.00  0.00     0.015 A 
HETATM   15  C   UNL     1     -39.420  50.905 -51.855  1.00  0.00     0.030 A 
HETATM   16  N   UNL     1     -40.108  53.318 -51.673  1.00  0.00    -0.364 N 
HETATM   17  C   UNL     1     -39.436  49.811 -52.725  1.00  0.00     0.002 A 
HETATM   18  C   UNL     1     -39.994  49.915 -53.996  1.00  0.00     0.001 A 
HETATM   19  H   UNL     1     -39.769  53.508 -50.740  1.00  0.00     0.165 HD
HETATM   20  C   UNL     1     -40.737  54.221 -52.491  1.00  0.00     0.106 A 
ENDBRANCH   8  11
ENDBRANCH   3   7
BRANCH   1  21
HETATM   21  C   UNL     1     -42.870  58.849 -54.365  1.00  0.00     0.086 C 
HETATM   22  C   UNL     1     -44.022  58.579 -53.390  1.00  0.00     0.026 C 
HETATM   23  C   UNL     1     -43.552  58.236 -51.977  1.00  0.00     0.006 C 
HETATM   24  C   UNL     1     -42.581  59.278 -51.401  1.00  0.00    -0.014 C 
HETATM   25  C   UNL     1     -41.395  59.449 -52.365  1.00  0.00     0.006 C 
HETATM   26  C   UNL     1     -41.832  59.824 -53.784  1.00  0.00     0.026 C 
BRANCH  24  27
HETATM   27  C   UNL     1     -43.232  60.646 -51.092  1.00  0.00     0.004 C 
BRANCH  27  28
HETATM   28  C   UNL     1     -44.493  60.553 -50.230  1.00  0.00    -0.004 C 
HETATM   29  C   UNL     1     -45.693  61.156 -50.947  1.00  0.00     0.005 C 
ENDBRANCH  27  28
ENDBRANCH  24  27
ENDBRANCH   1  21
TORSDOF 5
ENDMDL
MODEL 6
REMARK VINA RESULT:      -7.4      2.667      4.360
REMARK  5 active torsions:
REMARK  status: ('A' for Active; 'I' for Inactive)
REMARK    1  A    between atoms: C_2  and  C_3 
REMARK    2  A    between atoms: C_3  and  C_4 
REMARK    3  A    between atoms: C_7  and  N_8 
REMARK       I    between atoms: N_8  and  C_9 
REMARK       I    between atoms: C_9  and  N_10 
REMARK    4  A    between atoms: N_10  and  N_11 
REMARK       I    between atoms: N_11  and  C_12 
REMARK    5  A    between atoms: C_12  and  C_13 
ROOT
HETATM    1  N   UNL     1     -44.364  57.104 -56.048  1.00  0.00    -0.337 N 
HETATM    2  C   UNL     1     -44.861  57.499 -54.829  1.00  0.00     0.335 C 
HETATM    3  N   UNL     1     -44.747  56.562 -53.840  1.00  0.00    -0.249 N 
HETATM    4  O   UNL     1     -45.365  58.597 -54.612  1.00  0.00    -0.246 OA
HETATM    5  H   UNL     1     -44.430  56.105 -56.188  1.00  0.00     0.164 HD
HETATM    6  H   UNL     1     -45.092  56.800 -52.910  1.00  0.00     0.192 HD
ENDROOT
BRANCH   3   7
HETATM    7  N   UNL     1     -43.936  55.419 -53.945  1.00  0.00    -0.262 N 
HETATM    8  C   UNL     1     -42.705  55.485 -53.303  1.00  0.00     0.272 C 
HETATM    9  O   UNL     1     -42.429  56.398 -52.526  1.00  0.00    -0.266 OA
HETATM   10  H   UNL     1     -43.991  54.915 -54.825  1.00  0.00     0.190 HD
BRANCH   8  11
HETATM   11  C   UNL     1     -41.757  54.429 -53.655  1.00  0.00     0.061 A 
HETATM   12  C   UNL     1     -41.113  53.523 -52.743  1.00  0.00     0.008 A 
HETATM   13  C   UNL     1     -40.300  52.671 -53.492  1.00  0.00     0.043 A 
HETATM   14  C   UNL     1     -41.144  53.350 -51.342  1.00  0.00     0.015 A 
HETATM   15  C   UNL     1     -39.521  51.660 -52.915  1.00  0.00     0.030 A 
HETATM   16  N   UNL     1     -40.443  53.033 -54.810  1.00  0.00    -0.364 N 
HETATM   17  C   UNL     1     -39.571  51.516 -51.525  1.00  0.00     0.002 A 
HETATM   18  C   UNL     1     -40.370  52.348 -50.747  1.00  0.00     0.001 A 
HETATM   19  H   UNL     1     -39.975  52.574 -55.580  1.00  0.00     0.165 HD
HETATM   20  C   UNL     1     -41.312  54.088 -54.923  1.00  0.00     0.106 A 
ENDBRANCH   8  11
ENDBRANCH   3   7
BRANCH   1  21
HETATM   21  C   UNL     1     -44.540  57.962 -57.217  1.00  0.00     0.086 C 
HETATM   22  C   UNL     1     -43.290  58.813 -57.469  1.00  0.00     0.026 C 
HETATM   23  C   UNL     1     -42.145  58.031 -58.112  1.00  0.00     0.006 C 
HETATM   24  C   UNL     1     -42.570  57.292 -59.390  1.00  0.00    -0.014 C 
HETATM   25  C   UNL     1     -43.767  56.380 -59.070  1.00  0.00     0.006 C 
HETATM   26  C   UNL     1     -44.944  57.140 -58.453  1.00  0.00     0.026 C 
BRANCH  24  27
HETATM   27  C   UNL     1     -42.898  58.223 -60.579  1.00  0.00     0.004 C 
BRANCH  27  28
HETATM   28  C   UNL     1     -41.814  59.262 -60.872  1.00  0.00    -0.004 C 
HETATM   29  C   UNL     1     -42.375  60.675 -60.801  1.00  0.00     0.005 C 
ENDBRANCH  27  28
ENDBRANCH  24  27
ENDBRANCH   1  21
TORSDOF 5
ENDMDL
MODEL 7
REMARK VINA RESULT:      -7.4      3.161      7.730
REMARK  5 active torsions:
REMARK  status: ('A' for Active; 'I' for Inactive)
REMARK    1  A    between atoms: C_2  and  C_3 
REMARK    2  A    between atoms: C_3  and  C_4 
REMARK    3  A    between atoms: C_7  and  N_8 
REMARK       I    between atoms: N_8  and  C_9 
REMARK       I    between atoms: C_9  and  N_10 
REMARK    4  A    between atoms: N_10  and  N_11 
REMARK       I    between atoms: N_11  and  C_12 
REMARK    5  A    between atoms: C_12  and  C_13 
ROOT
HETATM    1  N   UNL     1     -42.027  56.792 -54.269  1.00  0.00    -0.337 N 
HETATM    2  C   UNL     1     -42.269  58.057 -53.789  1.00  0.00     0.335 C 
HETATM    3  N   UNL     1     -43.207  58.760 -54.494  1.00  0.00    -0.249 N 
HETATM    4  O   UNL     1     -41.714  58.541 -52.809  1.00  0.00    -0.246 OA
HETATM    5  H   UNL     1     -42.172  56.721 -55.267  1.00  0.00     0.164 HD
HETATM    6  H   UNL     1     -43.435  59.703 -54.182  1.00  0.00     0.192 HD
ENDROOT
BRANCH   3   7
HETATM    7  N   UNL     1     -44.073  58.171 -55.432  1.00  0.00    -0.262 N 
HETATM    8  C   UNL     1     -43.692  58.282 -56.765  1.00  0.00     0.272 C 
HETATM    9  O   UNL     1     -42.577  58.686 -57.087  1.00  0.00    -0.266 OA
HETATM   10  H   UNL     1     -45.063  58.215 -55.211  1.00  0.00     0.190 HD
BRANCH   8  11
HETATM   11  C   UNL     1     -44.724  57.935 -57.741  1.00  0.00     0.061 A 
HETATM   12  C   UNL     1     -44.662  56.868 -58.703  1.00  0.00     0.008 A 
HETATM   13  C   UNL     1     -45.855  56.879 -59.428  1.00  0.00     0.043 A 
HETATM   14  C   UNL     1     -43.695  55.891 -59.027  1.00  0.00     0.015 A 
HETATM   15  C   UNL     1     -46.129  55.967 -60.455  1.00  0.00     0.030 A 
HETATM   16  N   UNL     1     -46.620  57.905 -58.929  1.00  0.00    -0.364 N 
HETATM   17  C   UNL     1     -45.152  55.013 -60.755  1.00  0.00     0.002 A 
HETATM   18  C   UNL     1     -43.950  54.974 -60.053  1.00  0.00     0.001 A 
HETATM   19  H   UNL     1     -47.546  58.137 -59.262  1.00  0.00     0.165 HD
HETATM   20  C   UNL     1     -45.954  58.550 -57.918  1.00  0.00     0.106 A 
ENDBRANCH   8  11
ENDBRANCH   3   7
BRANCH   1  21
HETATM   21  C   UNL     1     -40.958  55.986 -53.685  1.00  0.00     0.086 C 
HETATM   22  C   UNL     1     -41.486  55.119 -52.536  1.00  0.00     0.026 C 
HETATM   23  C   UNL     1     -42.264  53.892 -53.012  1.00  0.00     0.006 C 
HETATM   24  C   UNL     1     -41.478  53.042 -54.022  1.00  0.00    -0.014 C 
HETATM   25  C   UNL     1     -41.048  53.931 -55.202  1.00  0.00     0.006 C 
HETATM   26  C   UNL     1     -40.240  55.153 -54.759  1.00  0.00     0.026 C 
BRANCH  24  27
HETATM   27  C   UNL     1     -40.257  52.311 -53.418  1.00  0.00     0.004 C 
BRANCH  27  28
HETATM   28  C   UNL     1     -39.741  51.153 -54.274  1.00  0.00    -0.004 C 
HETATM   29  C   UNL     1     -39.793  49.839 -53.507  1.00  0.00     0.005 C 
ENDBRANCH  27  28
ENDBRANCH  24  27
ENDBRANCH   1  21
TORSDOF 5
ENDMDL
MODEL 8
REMARK VINA RESULT:      -7.4      2.993      7.156
REMARK  5 active torsions:
REMARK  status: ('A' for Active; 'I' for Inactive)
REMARK    1  A    between atoms: C_2  and  C_3 
REMARK    2  A    between atoms: C_3  and  C_4 
REMARK    3  A    between atoms: C_7  and  N_8 
REMARK       I    between atoms: N_8  and  C_9 
REMARK       I    between atoms: C_9  and  N_10 
REMARK    4  A    between atoms: N_10  and  N_11 
REMARK       I    between atoms: N_11  and  C_12 
REMARK    5  A    between atoms: C_12  and  C_13 
ROOT
HETATM    1  N   UNL     1     -43.011  56.029 -52.468  1.00  0.00    -0.337 N 
HETATM    2  C   UNL     1     -43.593  56.551 -51.338  1.00  0.00     0.335 C 
HETATM    3  N   UNL     1     -43.343  57.880 -51.135  1.00  0.00    -0.249 N 
HETATM    4  O   UNL     1     -44.289  55.907 -50.560  1.00  0.00    -0.246 OA
HETATM    5  H   UNL     1     -42.150  56.499 -52.714  1.00  0.00     0.164 HD
HETATM    6  H   UNL     1     -43.754  58.326 -50.316  1.00  0.00     0.192 HD
ENDROOT
BRANCH   3   7
HETATM    7  N   UNL     1     -42.805  58.726 -52.120  1.00  0.00    -0.262 N 
HETATM    8  C   UNL     1     -43.727  59.386 -52.925  1.00  0.00     0.272 C 
HETATM    9  O   UNL     1     -44.928  59.389 -52.663  1.00  0.00    -0.266 OA
HETATM   10  H   UNL     1     -41.934  58.420 -52.541  1.00  0.00     0.190 HD
BRANCH   8  11
HETATM   11  C   UNL     1     -43.173  60.024 -54.118  1.00  0.00     0.061 A 
HETATM   12  C   UNL     1     -42.827  59.370 -55.351  1.00  0.00     0.008 A 
HETATM   13  C   UNL     1     -42.346  60.343 -56.228  1.00  0.00     0.043 A 
HETATM   14  C   UNL     1     -42.876  58.033 -55.802  1.00  0.00     0.015 A 
HETATM   15  C   UNL     1     -41.915  60.048 -57.528  1.00  0.00     0.030 A 
HETATM   16  N   UNL     1     -42.400  61.545 -55.566  1.00  0.00    -0.364 N 
HETATM   17  C   UNL     1     -41.973  58.715 -57.945  1.00  0.00     0.002 A 
HETATM   18  C   UNL     1     -42.446  57.719 -57.097  1.00  0.00     0.001 A 
HETATM   19  H   UNL     1     -42.121  62.429 -55.970  1.00  0.00     0.165 HD
HETATM   20  C   UNL     1     -42.891  61.370 -54.298  1.00  0.00     0.106 A 
ENDBRANCH   8  11
ENDBRANCH   3   7
BRANCH   1  21
HETATM   21  C   UNL     1     -43.094  54.594 -52.731  1.00  0.00     0.086 C 
HETATM   22  C   UNL     1     -43.106  54.310 -54.238  1.00  0.00     0.026 C 
HETATM   23  C   UNL     1     -41.728  54.434 -54.888  1.00  0.00     0.006 C 
HETATM   24  C   UNL     1     -40.655  53.591 -54.181  1.00  0.00    -0.014 C 
HETATM   25  C   UNL     1     -40.614  53.974 -52.692  1.00  0.00     0.006 C 
HETATM   26  C   UNL     1     -41.974  53.831 -52.004  1.00  0.00     0.026 C 
BRANCH  24  27
HETATM   27  C   UNL     1     -40.842  52.065 -54.345  1.00  0.00     0.004 C 
BRANCH  27  28
HETATM   28  C   UNL     1     -39.796  51.228 -53.607  1.00  0.00    -0.004 C 
HETATM   29  C   UNL     1     -39.500  49.936 -54.355  1.00  0.00     0.005 C 
ENDBRANCH  27  28
ENDBRANCH  24  27
ENDBRANCH   1  21
TORSDOF 5
ENDMDL
MODEL 9
REMARK VINA RESULT:      -7.2     13.397     15.555
REMARK  5 active torsions:
REMARK  status: ('A' for Active; 'I' for Inactive)
REMARK    1  A    between atoms: C_2  and  C_3 
REMARK    2  A    between atoms: C_3  and  C_4 
REMARK    3  A    between atoms: C_7  and  N_8 
REMARK       I    between atoms: N_8  and  C_9 
REMARK       I    between atoms: C_9  and  N_10 
REMARK    4  A    between atoms: N_10  and  N_11 
REMARK       I    between atoms: N_11  and  C_12 
REMARK    5  A    between atoms: C_12  and  C_13 
ROOT
HETATM    1  N   UNL     1     -35.786  41.224 -54.272  1.00  0.00    -0.337 N 
HETATM    2  C   UNL     1     -36.137  41.345 -52.948  1.00  0.00     0.335 C 
HETATM    3  N   UNL     1     -35.723  40.310 -52.156  1.00  0.00    -0.249 N 
HETATM    4  O   UNL     1     -36.762  42.293 -52.484  1.00  0.00    -0.246 OA
HETATM    5  H   UNL     1     -35.719  40.260 -54.569  1.00  0.00     0.164 HD
HETATM    6  H   UNL     1     -35.948  40.346 -51.163  1.00  0.00     0.192 HD
ENDROOT
BRANCH   3   7
HETATM    7  N   UNL     1     -34.773  39.356 -52.561  1.00  0.00    -0.262 N 
HETATM    8  C   UNL     1     -33.446  39.664 -52.283  1.00  0.00     0.272 C 
HETATM    9  O   UNL     1     -33.139  40.605 -51.555  1.00  0.00    -0.266 OA
HETATM   10  H   UNL     1     -34.980  38.861 -53.423  1.00  0.00     0.190 HD
BRANCH   8  11
HETATM   11  C   UNL     1     -32.455  38.825 -52.957  1.00  0.00     0.061 A 
HETATM   12  C   UNL     1     -31.900  39.047 -54.265  1.00  0.00     0.008 A 
HETATM   13  C   UNL     1     -30.986  38.023 -54.518  1.00  0.00     0.043 A 
HETATM   14  C   UNL     1     -32.095  40.027 -55.263  1.00  0.00     0.015 A 
HETATM   15  C   UNL     1     -30.260  37.930 -55.712  1.00  0.00     0.030 A 
HETATM   16  N   UNL     1     -30.974  37.210 -53.411  1.00  0.00    -0.364 N 
HETATM   17  C   UNL     1     -30.476  38.913 -56.682  1.00  0.00     0.002 A 
HETATM   18  C   UNL     1     -31.380  39.948 -56.464  1.00  0.00     0.001 A 
HETATM   19  H   UNL     1     -30.390  36.390 -53.313  1.00  0.00     0.165 HD
HETATM   20  C   UNL     1     -31.853  37.677 -52.467  1.00  0.00     0.106 A 
ENDBRANCH   8  11
ENDBRANCH   3   7
BRANCH   1  21
HETATM   21  C   UNL     1     -36.277  42.197 -55.245  1.00  0.00     0.086 C 
HETATM   22  C   UNL     1     -35.206  42.514 -56.295  1.00  0.00     0.026 C 
HETATM   23  C   UNL     1     -35.047  41.417 -57.348  1.00  0.00     0.006 C 
HETATM   24  C   UNL     1     -36.375  41.036 -58.019  1.00  0.00    -0.014 C 
HETATM   25  C   UNL     1     -37.391  40.636 -56.935  1.00  0.00     0.006 C 
HETATM   26  C   UNL     1     -37.596  41.728 -55.882  1.00  0.00     0.026 C 
BRANCH  24  27
HETATM   27  C   UNL     1     -36.960  42.138 -58.933  1.00  0.00     0.004 C 
BRANCH  27  28
HETATM   28  C   UNL     1     -37.637  41.602 -60.196  1.00  0.00    -0.004 C 
HETATM   29  C   UNL     1     -37.195  40.176 -60.492  1.00  0.00     0.005 C 
ENDBRANCH  27  28
ENDBRANCH  24  27
ENDBRANCH   1  21
TORSDOF 5
ENDMDL
MODEL 10
REMARK VINA RESULT:      -7.1      3.695      7.607
REMARK  5 active torsions:
REMARK  status: ('A' for Active; 'I' for Inactive)
REMARK    1  A    between atoms: C_2  and  C_3 
REMARK    2  A    between atoms: C_3  and  C_4 
REMARK    3  A    between atoms: C_7  and  N_8 
REMARK       I    between atoms: N_8  and  C_9 
REMARK       I    between atoms: C_9  and  N_10 
REMARK    4  A    between atoms: N_10  and  N_11 
REMARK       I    between atoms: N_11  and  C_12 
REMARK    5  A    between atoms: C_12  and  C_13 
ROOT
HETATM    1  N   UNL     1     -42.999  56.275 -55.650  1.00  0.00    -0.337 N 
HETATM    2  C   UNL     1     -43.081  56.896 -56.874  1.00  0.00     0.335 C 
HETATM    3  N   UNL     1     -43.551  58.179 -56.826  1.00  0.00    -0.249 N 
HETATM    4  O   UNL     1     -42.760  56.373 -57.935  1.00  0.00    -0.246 OA
HETATM    5  H   UNL     1     -43.693  56.612 -54.997  1.00  0.00     0.164 HD
HETATM    6  H   UNL     1     -43.628  58.695 -57.702  1.00  0.00     0.192 HD
ENDROOT
BRANCH   3   7
HETATM    7  N   UNL     1     -43.660  58.921 -55.638  1.00  0.00    -0.262 N 
HETATM    8  C   UNL     1     -42.570  59.723 -55.318  1.00  0.00     0.272 C 
HETATM    9  O   UNL     1     -41.660  59.926 -56.120  1.00  0.00    -0.266 OA
HETATM   10  H   UNL     1     -44.164  58.473 -54.879  1.00  0.00     0.190 HD
BRANCH   8  11
HETATM   11  C   UNL     1     -42.562  60.256 -53.957  1.00  0.00     0.061 A 
HETATM   12  C   UNL     1     -41.952  59.645 -52.806  1.00  0.00     0.008 A 
HETATM   13  C   UNL     1     -42.167  60.487 -51.714  1.00  0.00     0.043 A 
HETATM   14  C   UNL     1     -41.238  58.446 -52.592  1.00  0.00     0.015 A 
HETATM   15  C   UNL     1     -41.705  60.193 -50.425  1.00  0.00     0.030 A 
HETATM   16  N   UNL     1     -42.872  61.572 -52.174  1.00  0.00    -0.364 N 
HETATM   17  C   UNL     1     -41.003  58.997 -50.244  1.00  0.00     0.002 A 
HETATM   18  C   UNL     1     -40.771  58.134 -51.310  1.00  0.00     0.001 A 
HETATM   19  H   UNL     1     -43.157  62.352 -51.596  1.00  0.00     0.165 HD
HETATM   20  C   UNL     1     -43.119  61.447 -53.517  1.00  0.00     0.106 A 
ENDBRANCH   8  11
ENDBRANCH   3   7
BRANCH   1  21
HETATM   21  C   UNL     1     -42.635  54.862 -55.576  1.00  0.00     0.086 C 
HETATM   22  C   UNL     1     -41.113  54.682 -55.641  1.00  0.00     0.026 C 
HETATM   23  C   UNL     1     -40.408  55.019 -54.327  1.00  0.00     0.006 C 
HETATM   24  C   UNL     1     -40.997  54.268 -53.123  1.00  0.00    -0.014 C 
HETATM   25  C   UNL     1     -42.507  54.552 -53.042  1.00  0.00     0.006 C 
HETATM   26  C   UNL     1     -43.247  54.195 -54.333  1.00  0.00     0.026 C 
BRANCH  24  27
HETATM   27  C   UNL     1     -40.729  52.746 -53.135  1.00  0.00     0.004 C 
BRANCH  27  28
HETATM   28  C   UNL     1     -39.800  52.270 -52.016  1.00  0.00    -0.004 C 
HETATM   29  C   UNL     1     -40.087  53.006 -50.715  1.00  0.00     0.005 C 
ENDBRANCH  27  28
ENDBRANCH  24  27
ENDBRANCH   1  21
TORSDOF 5
ENDMDL
