MODEL 1
REMARK VINA RESULT:      -8.4      0.000      0.000
REMARK  8 active torsions:
REMARK  status: ('A' for Active; 'I' for Inactive)
REMARK    1  A    between atoms: C_2  and  O_3 
REMARK    2  A    between atoms: O_3  and  C_4 
REMARK    3  A    between atoms: C_5  and  N_6 
REMARK       I    between atoms: N_6  and  C_7 
REMARK    4  A    between atoms: C_7  and  C_8 
REMARK    5  A    between atoms: C_8  and  C_9 
REMARK    6  A    between atoms: C_9  and  S_10 
REMARK    7  A    between atoms: S_10  and  C_11 
REMARK    8  A    between atoms: N_12  and  C_13 
ROOT
HETATM    1  C   UNL     1     -43.168  58.611 -57.455  1.00  0.00     0.177 A 
HETATM    2  N   UNL     1     -43.228  58.418 -58.856  1.00  0.00    -0.276 N 
HETATM    3  C   UNL     1     -42.552  59.377 -59.696  1.00  0.00     0.124 A 
HETATM    4  N   UNL     1     -42.481  59.269 -61.008  1.00  0.00    -0.384 N 
HETATM    5  H   UNL     1     -41.979  59.949 -61.561  1.00  0.00     0.157 HD
HETATM    6  H   UNL     1     -42.911  58.483 -61.479  1.00  0.00     0.157 HD
HETATM    7  C   UNL     1     -41.907  60.462 -59.026  1.00  0.00     0.081 A 
HETATM    8  C   UNL     1     -41.918  60.488 -57.637  1.00  0.00     0.187 A 
HETATM    9  N   UNL     1     -41.293  61.546 -57.141  1.00  0.00    -0.153 NA
HETATM   10  N   UNL     1     -40.872  62.201 -58.239  1.00  0.00    -0.280 N 
HETATM   11  H   UNL     1     -40.357  63.067 -58.107  1.00  0.00     0.189 HD
HETATM   12  C   UNL     1     -41.220  61.585 -59.424  1.00  0.00     0.042 A 
HETATM   13  C   UNL     1     -40.850  62.163 -60.735  1.00  0.00     0.071 C 
HETATM   14  N   UNL     1     -42.535  59.554 -56.818  1.00  0.00    -0.202 NA
ENDROOT
BRANCH   1  15
HETATM   15  S   UNL     1     -44.044  57.477 -56.394  1.00  0.00    -0.091 SA
BRANCH  15  16
HETATM   16  C   UNL     1     -42.697  56.437 -55.735  1.00  0.00     0.091 C 
BRANCH  16  17
HETATM   17  C   UNL     1     -42.499  56.508 -54.224  1.00  0.00     0.113 C 
BRANCH  17  18
HETATM   18  C   UNL     1     -42.300  55.143 -53.606  1.00  0.00     0.223 C 
HETATM   19  N   UNL     1     -40.966  54.835 -53.403  1.00  0.00    -0.325 N 
HETATM   20  H   UNL     1     -40.348  55.618 -53.237  1.00  0.00     0.169 HD
HETATM   21  O   UNL     1     -43.268  54.455 -53.291  1.00  0.00    -0.273 OA
BRANCH  19  22
HETATM   22  C   UNL     1     -40.480  53.566 -53.016  1.00  0.00     0.068 A 
HETATM   23  C   UNL     1     -40.268  53.179 -51.682  1.00  0.00     0.095 A 
HETATM   24  C   UNL     1     -39.801  51.889 -51.396  1.00  0.00     0.039 A 
HETATM   25  C   UNL     1     -39.534  50.989 -52.428  1.00  0.00     0.003 A 
HETATM   26  C   UNL     1     -39.768  51.358 -53.750  1.00  0.00     0.002 A 
HETATM   27  C   UNL     1     -40.256  52.635 -54.041  1.00  0.00     0.032 A 
BRANCH  23  28
HETATM   28  O   UNL     1     -40.716  53.986 -50.666  1.00  0.00    -0.349 OA
BRANCH  28  29
HETATM   29  C   UNL     1     -39.726  54.284 -49.677  1.00  0.00     0.171 C 
HETATM   30  C   UNL     1     -40.299  54.019 -48.297  1.00  0.00     0.034 C 
ENDBRANCH  28  29
ENDBRANCH  23  28
ENDBRANCH  19  22
ENDBRANCH  17  18
ENDBRANCH  16  17
ENDBRANCH  15  16
ENDBRANCH   1  15
BRANCH   2  31
HETATM   31  C   UNL     1     -43.894  57.297 -59.437  1.00  0.00     0.044 A 
HETATM   32  C   UNL     1     -45.224  57.396 -59.871  1.00  0.00     0.054 A 
HETATM   33  C   UNL     1     -45.880  56.273 -60.372  1.00  0.00     0.036 A 
HETATM   34 CL   UNL     1     -47.512  56.405 -60.900  1.00  0.00    -0.084 Cl
HETATM   35  C   UNL     1     -45.233  55.040 -60.433  1.00  0.00     0.024 A 
HETATM   36  C   UNL     1     -43.912  54.930 -59.997  1.00  0.00     0.004 A 
HETATM   37  C   UNL     1     -43.245  56.052 -59.501  1.00  0.00     0.030 A 
ENDBRANCH   2  31
TORSDOF 8
ENDMDL
MODEL 2
REMARK VINA RESULT:      -8.4      4.019      7.483
REMARK  8 active torsions:
REMARK  status: ('A' for Active; 'I' for Inactive)
REMARK    1  A    between atoms: C_2  and  O_3 
REMARK    2  A    between atoms: O_3  and  C_4 
REMARK    3  A    between atoms: C_5  and  N_6 
REMARK       I    between atoms: N_6  and  C_7 
REMARK    4  A    between atoms: C_7  and  C_8 
REMARK    5  A    between atoms: C_8  and  C_9 
REMARK    6  A    between atoms: C_9  and  S_10 
REMARK    7  A    between atoms: S_10  and  C_11 
REMARK    8  A    between atoms: N_12  and  C_13 
ROOT
HETATM    1  C   UNL     1     -43.104  54.774 -52.944  1.00  0.00     0.177 A 
HETATM    2  N   UNL     1     -42.071  54.345 -53.811  1.00  0.00    -0.276 N 
HETATM    3  C   UNL     1     -41.985  54.966 -55.112  1.00  0.00     0.124 A 
HETATM    4  N   UNL     1     -41.029  54.700 -55.981  1.00  0.00    -0.384 N 
HETATM    5  H   UNL     1     -40.990  55.171 -56.872  1.00  0.00     0.157 HD
HETATM    6  H   UNL     1     -40.305  54.032 -55.753  1.00  0.00     0.157 HD
HETATM    7  C   UNL     1     -42.983  55.943 -55.414  1.00  0.00     0.081 A 
HETATM    8  C   UNL     1     -43.914  56.269 -54.435  1.00  0.00     0.187 A 
HETATM    9  N   UNL     1     -44.786  57.179 -54.844  1.00  0.00    -0.153 NA
HETATM   10  N   UNL     1     -44.397  57.440 -56.106  1.00  0.00    -0.280 N 
HETATM   11  H   UNL     1     -44.930  58.122 -56.637  1.00  0.00     0.189 HD
HETATM   12  C   UNL     1     -43.297  56.710 -56.512  1.00  0.00     0.042 A 
HETATM   13  C   UNL     1     -42.730  56.855 -57.870  1.00  0.00     0.071 C 
HETATM   14  N   UNL     1     -43.986  55.704 -53.171  1.00  0.00    -0.202 NA
ENDROOT
BRANCH   1  15
HETATM   15  S   UNL     1     -43.273  53.983 -51.355  1.00  0.00    -0.091 SA
BRANCH  15  16
HETATM   16  C   UNL     1     -43.137  55.390 -50.201  1.00  0.00     0.091 C 
BRANCH  16  17
HETATM   17  C   UNL     1     -41.721  55.907 -49.969  1.00  0.00     0.113 C 
BRANCH  17  18
HETATM   18  C   UNL     1     -41.483  57.246 -50.631  1.00  0.00     0.223 C 
HETATM   19  N   UNL     1     -42.644  57.815 -51.125  1.00  0.00    -0.325 N 
HETATM   20  H   UNL     1     -43.498  57.577 -50.639  1.00  0.00     0.169 HD
HETATM   21  O   UNL     1     -40.359  57.742 -50.643  1.00  0.00    -0.273 OA
BRANCH  19  22
HETATM   22  C   UNL     1     -42.695  58.963 -51.947  1.00  0.00     0.068 A 
HETATM   23  C   UNL     1     -43.332  60.161 -51.584  1.00  0.00     0.095 A 
HETATM   24  C   UNL     1     -43.311  61.255 -52.460  1.00  0.00     0.039 A 
HETATM   25  C   UNL     1     -42.671  61.158 -53.696  1.00  0.00     0.003 A 
HETATM   26  C   UNL     1     -42.015  59.983 -54.048  1.00  0.00     0.002 A 
HETATM   27  C   UNL     1     -42.011  58.896 -53.169  1.00  0.00     0.032 A 
BRANCH  23  28
HETATM   28  O   UNL     1     -43.785  60.322 -50.298  1.00  0.00    -0.349 OA
BRANCH  28  29
HETATM   29  C   UNL     1     -45.210  60.313 -50.175  1.00  0.00     0.171 C 
HETATM   30  C   UNL     1     -45.632  61.337 -49.137  1.00  0.00     0.034 C 
ENDBRANCH  28  29
ENDBRANCH  23  28
ENDBRANCH  19  22
ENDBRANCH  17  18
ENDBRANCH  16  17
ENDBRANCH  15  16
ENDBRANCH   1  15
BRANCH   2  31
HETATM   31  C   UNL     1     -41.111  53.365 -53.419  1.00  0.00     0.044 A 
HETATM   32  C   UNL     1     -40.938  52.189 -54.164  1.00  0.00     0.054 A 
HETATM   33  C   UNL     1     -40.046  51.210 -53.728  1.00  0.00     0.036 A 
HETATM   34 CL   UNL     1     -39.843  49.771 -54.649  1.00  0.00    -0.084 Cl
HETATM   35  C   UNL     1     -39.331  51.379 -52.544  1.00  0.00     0.024 A 
HETATM   36  C   UNL     1     -39.502  52.541 -51.792  1.00  0.00     0.004 A 
HETATM   37  C   UNL     1     -40.388  53.529 -52.226  1.00  0.00     0.030 A 
ENDBRANCH   2  31
TORSDOF 8
ENDMDL
MODEL 3
REMARK VINA RESULT:      -8.3      3.610      9.348
REMARK  8 active torsions:
REMARK  status: ('A' for Active; 'I' for Inactive)
REMARK    1  A    between atoms: C_2  and  O_3 
REMARK    2  A    between atoms: O_3  and  C_4 
REMARK    3  A    between atoms: C_5  and  N_6 
REMARK       I    between atoms: N_6  and  C_7 
REMARK    4  A    between atoms: C_7  and  C_8 
REMARK    5  A    between atoms: C_8  and  C_9 
REMARK    6  A    between atoms: C_9  and  S_10 
REMARK    7  A    between atoms: S_10  and  C_11 
REMARK    8  A    between atoms: N_12  and  C_13 
ROOT
HETATM    1  C   UNL     1     -40.982  54.871 -53.836  1.00  0.00     0.177 A 
HETATM    2  N   UNL     1     -41.409  55.088 -52.504  1.00  0.00    -0.276 N 
HETATM    3  C   UNL     1     -41.145  54.050 -51.536  1.00  0.00     0.124 A 
HETATM    4  N   UNL     1     -41.434  54.162 -50.255  1.00  0.00    -0.384 N 
HETATM    5  H   UNL     1     -41.214  53.423 -49.604  1.00  0.00     0.157 HD
HETATM    6  H   UNL     1     -41.862  55.008 -49.901  1.00  0.00     0.157 HD
HETATM    7  C   UNL     1     -40.499  52.874 -52.029  1.00  0.00     0.081 A 
HETATM    8  C   UNL     1     -40.119  52.834 -53.365  1.00  0.00     0.187 A 
HETATM    9  N   UNL     1     -39.538  51.689 -53.696  1.00  0.00    -0.153 NA
HETATM   10  N   UNL     1     -39.545  50.992 -52.544  1.00  0.00    -0.280 N 
HETATM   11  H   UNL     1     -39.145  50.059 -52.551  1.00  0.00     0.189 HD
HETATM   12  C   UNL     1     -40.122  51.667 -51.487  1.00  0.00     0.042 A 
HETATM   13  C   UNL     1     -40.228  51.058 -50.143  1.00  0.00     0.071 C 
HETATM   14  N   UNL     1     -40.337  53.838 -54.296  1.00  0.00    -0.202 NA
ENDROOT
BRANCH   1  15
HETATM   15  S   UNL     1     -41.347  56.108 -55.067  1.00  0.00    -0.091 SA
BRANCH  15  16
HETATM   16  C   UNL     1     -42.946  55.538 -55.734  1.00  0.00     0.091 C 
BRANCH  16  17
HETATM   17  C   UNL     1     -43.007  55.398 -57.251  1.00  0.00     0.113 C 
BRANCH  17  18
HETATM   18  C   UNL     1     -43.249  56.722 -57.941  1.00  0.00     0.223 C 
HETATM   19  N   UNL     1     -42.100  57.257 -58.497  1.00  0.00    -0.325 N 
HETATM   20  H   UNL     1     -41.399  56.592 -58.796  1.00  0.00     0.169 HD
HETATM   21  O   UNL     1     -44.383  57.188 -58.011  1.00  0.00    -0.273 OA
BRANCH  19  22
HETATM   22  C   UNL     1     -41.992  58.558 -59.036  1.00  0.00     0.068 A 
HETATM   23  C   UNL     1     -41.784  59.713 -58.263  1.00  0.00     0.095 A 
HETATM   24  C   UNL     1     -41.670  60.960 -58.892  1.00  0.00     0.039 A 
HETATM   25  C   UNL     1     -41.773  61.065 -60.279  1.00  0.00     0.003 A 
HETATM   26  C   UNL     1     -41.953  59.920 -61.050  1.00  0.00     0.002 A 
HETATM   27  C   UNL     1     -42.043  58.670 -60.433  1.00  0.00     0.032 A 
BRANCH  23  28
HETATM   28  O   UNL     1     -41.485  59.588 -56.930  1.00  0.00    -0.349 OA
BRANCH  28  29
HETATM   29  C   UNL     1     -42.536  60.005 -56.053  1.00  0.00     0.171 C 
HETATM   30  C   UNL     1     -42.076  59.862 -54.613  1.00  0.00     0.034 C 
ENDBRANCH  28  29
ENDBRANCH  23  28
ENDBRANCH  19  22
ENDBRANCH  17  18
ENDBRANCH  16  17
ENDBRANCH  15  16
ENDBRANCH   1  15
BRANCH   2  31
HETATM   31  C   UNL     1     -42.043  56.301 -52.101  1.00  0.00     0.044 A 
HETATM   32  C   UNL     1     -41.290  57.378 -51.611  1.00  0.00     0.054 A 
HETATM   33  C   UNL     1     -41.931  58.530 -51.157  1.00  0.00     0.036 A 
HETATM   34 CL   UNL     1     -40.998  59.844 -50.556  1.00  0.00    -0.084 Cl
HETATM   35  C   UNL     1     -43.322  58.619 -51.169  1.00  0.00     0.024 A 
HETATM   36  C   UNL     1     -44.080  57.551 -51.648  1.00  0.00     0.004 A 
HETATM   37  C   UNL     1     -43.444  56.397 -52.111  1.00  0.00     0.030 A 
ENDBRANCH   2  31
TORSDOF 8
ENDMDL
MODEL 4
REMARK VINA RESULT:      -8.2      1.074      2.167
REMARK  8 active torsions:
REMARK  status: ('A' for Active; 'I' for Inactive)
REMARK    1  A    between atoms: C_2  and  O_3 
REMARK    2  A    between atoms: O_3  and  C_4 
REMARK    3  A    between atoms: C_5  and  N_6 
REMARK       I    between atoms: N_6  and  C_7 
REMARK    4  A    between atoms: C_7  and  C_8 
REMARK    5  A    between atoms: C_8  and  C_9 
REMARK    6  A    between atoms: C_9  and  S_10 
REMARK    7  A    between atoms: S_10  and  C_11 
REMARK    8  A    between atoms: N_12  and  C_13 
ROOT
HETATM    1  C   UNL     1     -42.838  58.860 -57.709  1.00  0.00     0.177 A 
HETATM    2  N   UNL     1     -43.037  58.593 -59.084  1.00  0.00    -0.276 N 
HETATM    3  C   UNL     1     -42.457  59.508 -60.038  1.00  0.00     0.124 A 
HETATM    4  N   UNL     1     -42.517  59.330 -61.343  1.00  0.00    -0.384 N 
HETATM    5  H   UNL     1     -42.079  59.981 -61.978  1.00  0.00     0.157 HD
HETATM    6  H   UNL     1     -42.986  58.520 -61.726  1.00  0.00     0.157 HD
HETATM    7  C   UNL     1     -41.755  60.628 -59.494  1.00  0.00     0.081 A 
HETATM    8  C   UNL     1     -41.627  60.728 -58.114  1.00  0.00     0.187 A 
HETATM    9  N   UNL     1     -40.964  61.812 -57.740  1.00  0.00    -0.153 NA
HETATM   10  N   UNL     1     -40.660  62.410 -58.908  1.00  0.00    -0.280 N 
HETATM   11  H   UNL     1     -40.142  63.283 -58.874  1.00  0.00     0.189 HD
HETATM   12  C   UNL     1     -41.121  61.730 -60.018  1.00  0.00     0.042 A 
HETATM   13  C   UNL     1     -40.890  62.239 -61.388  1.00  0.00     0.071 C 
HETATM   14  N   UNL     1     -42.152  59.837 -57.190  1.00  0.00    -0.202 NA
ENDROOT
BRANCH   1  15
HETATM   15  S   UNL     1     -43.593  57.782 -56.507  1.00  0.00    -0.091 SA
BRANCH  15  16
HETATM   16  C   UNL     1     -42.219  56.666 -56.063  1.00  0.00     0.091 C 
BRANCH  16  17
HETATM   17  C   UNL     1     -42.579  55.186 -55.993  1.00  0.00     0.113 C 
BRANCH  17  18
HETATM   18  C   UNL     1     -42.530  54.649 -54.580  1.00  0.00     0.223 C 
HETATM   19  N   UNL     1     -41.257  54.677 -54.038  1.00  0.00    -0.325 N 
HETATM   20  H   UNL     1     -40.643  55.404 -54.381  1.00  0.00     0.169 HD
HETATM   21  O   UNL     1     -43.561  54.295 -54.013  1.00  0.00    -0.273 OA
BRANCH  19  22
HETATM   22  C   UNL     1     -40.885  54.073 -52.817  1.00  0.00     0.068 A 
HETATM   23  C   UNL     1     -40.224  52.837 -52.721  1.00  0.00     0.095 A 
HETATM   24  C   UNL     1     -39.877  52.328 -51.462  1.00  0.00     0.039 A 
HETATM   25  C   UNL     1     -40.193  53.035 -50.302  1.00  0.00     0.003 A 
HETATM   26  C   UNL     1     -40.824  54.272 -50.393  1.00  0.00     0.002 A 
HETATM   27  C   UNL     1     -41.152  54.797 -51.646  1.00  0.00     0.032 A 
BRANCH  23  28
HETATM   28  O   UNL     1     -39.737  52.242 -53.858  1.00  0.00    -0.349 OA
BRANCH  28  29
HETATM   29  C   UNL     1     -40.505  51.120 -54.304  1.00  0.00     0.171 C 
HETATM   30  C   UNL     1     -39.625  49.883 -54.321  1.00  0.00     0.034 C 
ENDBRANCH  28  29
ENDBRANCH  23  28
ENDBRANCH  19  22
ENDBRANCH  17  18
ENDBRANCH  16  17
ENDBRANCH  15  16
ENDBRANCH   1  15
BRANCH   2  31
HETATM   31  C   UNL     1     -43.749  57.441 -59.536  1.00  0.00     0.044 A 
HETATM   32  C   UNL     1     -45.113  57.517 -59.852  1.00  0.00     0.054 A 
HETATM   33  C   UNL     1     -45.808  56.367 -60.225  1.00  0.00     0.036 A 
HETATM   34 CL   UNL     1     -47.482  56.471 -60.610  1.00  0.00    -0.084 Cl
HETATM   35  C   UNL     1     -45.165  55.132 -60.271  1.00  0.00     0.024 A 
HETATM   36  C   UNL     1     -43.811  55.045 -59.951  1.00  0.00     0.004 A 
HETATM   37  C   UNL     1     -43.105  56.193 -59.585  1.00  0.00     0.030 A 
ENDBRANCH   2  31
TORSDOF 8
ENDMDL
MODEL 5
REMARK VINA RESULT:      -8.1      2.891      4.697
REMARK  8 active torsions:
REMARK  status: ('A' for Active; 'I' for Inactive)
REMARK    1  A    between atoms: C_2  and  O_3 
REMARK    2  A    between atoms: O_3  and  C_4 
REMARK    3  A    between atoms: C_5  and  N_6 
REMARK       I    between atoms: N_6  and  C_7 
REMARK    4  A    between atoms: C_7  and  C_8 
REMARK    5  A    between atoms: C_8  and  C_9 
REMARK    6  A    between atoms: C_9  and  S_10 
REMARK    7  A    between atoms: S_10  and  C_11 
REMARK    8  A    between atoms: N_12  and  C_13 
ROOT
HETATM    1  C   UNL     1     -43.481  56.698 -57.500  1.00  0.00     0.177 A 
HETATM    2  N   UNL     1     -44.530  57.648 -57.515  1.00  0.00    -0.276 N 
HETATM    3  C   UNL     1     -45.544  57.512 -58.534  1.00  0.00     0.124 A 
HETATM    4  N   UNL     1     -46.604  58.293 -58.610  1.00  0.00    -0.384 N 
HETATM    5  H   UNL     1     -47.304  58.153 -59.324  1.00  0.00     0.157 HD
HETATM    6  H   UNL     1     -46.742  59.033 -57.934  1.00  0.00     0.157 HD
HETATM    7  C   UNL     1     -45.371  56.438 -59.460  1.00  0.00     0.081 A 
HETATM    8  C   UNL     1     -44.296  55.576 -59.286  1.00  0.00     0.187 A 
HETATM    9  N   UNL     1     -44.245  54.630 -60.213  1.00  0.00    -0.153 NA
HETATM   10  N   UNL     1     -45.314  54.896 -60.988  1.00  0.00    -0.280 N 
HETATM   11  H   UNL     1     -45.484  54.290 -61.786  1.00  0.00     0.189 HD
HETATM   12  C   UNL     1     -46.042  55.994 -60.576  1.00  0.00     0.042 A 
HETATM   13  C   UNL     1     -47.246  56.444 -61.308  1.00  0.00     0.071 C 
HETATM   14  N   UNL     1     -43.334  55.676 -58.292  1.00  0.00    -0.202 NA
ENDROOT
BRANCH   1  15
HETATM   15  S   UNL     1     -42.181  56.875 -56.291  1.00  0.00    -0.091 SA
BRANCH  15  16
HETATM   16  C   UNL     1     -42.787  55.846 -54.912  1.00  0.00     0.091 C 
BRANCH  16  17
HETATM   17  C   UNL     1     -41.909  55.847 -53.665  1.00  0.00     0.113 C 
BRANCH  17  18
HETATM   18  C   UNL     1     -41.714  54.459 -53.098  1.00  0.00     0.223 C 
HETATM   19  N   UNL     1     -40.560  53.848 -53.557  1.00  0.00    -0.325 N 
HETATM   20  H   UNL     1     -39.796  54.465 -53.799  1.00  0.00     0.169 HD
HETATM   21  O   UNL     1     -42.506  54.005 -52.276  1.00  0.00    -0.273 OA
BRANCH  19  22
HETATM   22  C   UNL     1     -40.222  52.493 -53.343  1.00  0.00     0.068 A 
HETATM   23  C   UNL     1     -39.660  52.003 -52.152  1.00  0.00     0.095 A 
HETATM   24  C   UNL     1     -39.378  50.636 -52.025  1.00  0.00     0.039 A 
HETATM   25  C   UNL     1     -39.641  49.760 -53.079  1.00  0.00     0.003 A 
HETATM   26  C   UNL     1     -40.222  50.236 -54.250  1.00  0.00     0.002 A 
HETATM   27  C   UNL     1     -40.529  51.594 -54.374  1.00  0.00     0.032 A 
BRANCH  23  28
HETATM   28  O   UNL     1     -39.588  52.822 -51.053  1.00  0.00    -0.349 OA
BRANCH  28  29
HETATM   29  C   UNL     1     -40.438  52.426 -49.973  1.00  0.00     0.171 C 
HETATM   30  C   UNL     1     -40.650  53.606 -49.041  1.00  0.00     0.034 C 
ENDBRANCH  28  29
ENDBRANCH  23  28
ENDBRANCH  19  22
ENDBRANCH  17  18
ENDBRANCH  16  17
ENDBRANCH  15  16
ENDBRANCH   1  15
BRANCH   2  31
HETATM   31  C   UNL     1     -44.625  58.686 -56.541  1.00  0.00     0.044 A 
HETATM   32  C   UNL     1     -44.045  59.943 -56.771  1.00  0.00     0.054 A 
HETATM   33  C   UNL     1     -44.087  60.923 -55.781  1.00  0.00     0.036 A 
HETATM   34 CL   UNL     1     -43.371  62.460 -56.073  1.00  0.00    -0.084 Cl
HETATM   35  C   UNL     1     -44.687  60.664 -54.551  1.00  0.00     0.024 A 
HETATM   36  C   UNL     1     -45.260  59.416 -54.309  1.00  0.00     0.004 A 
HETATM   37  C   UNL     1     -45.229  58.431 -55.299  1.00  0.00     0.030 A 
ENDBRANCH   2  31
TORSDOF 8
ENDMDL
MODEL 6
REMARK VINA RESULT:      -7.9     16.501     18.849
REMARK  8 active torsions:
REMARK  status: ('A' for Active; 'I' for Inactive)
REMARK    1  A    between atoms: C_2  and  O_3 
REMARK    2  A    between atoms: O_3  and  C_4 
REMARK    3  A    between atoms: C_5  and  N_6 
REMARK       I    between atoms: N_6  and  C_7 
REMARK    4  A    between atoms: C_7  and  C_8 
REMARK    5  A    between atoms: C_8  and  C_9 
REMARK    6  A    between atoms: C_9  and  S_10 
REMARK    7  A    between atoms: S_10  and  C_11 
REMARK    8  A    between atoms: N_12  and  C_13 
ROOT
HETATM    1  C   UNL     1     -35.412  40.679 -57.678  1.00  0.00     0.177 A 
HETATM    2  N   UNL     1     -35.467  39.392 -58.262  1.00  0.00    -0.276 N 
HETATM    3  C   UNL     1     -34.403  38.467 -57.952  1.00  0.00     0.124 A 
HETATM    4  N   UNL     1     -34.377  37.221 -58.381  1.00  0.00    -0.384 N 
HETATM    5  H   UNL     1     -33.627  36.597 -58.124  1.00  0.00     0.157 HD
HETATM    6  H   UNL     1     -35.127  36.865 -58.959  1.00  0.00     0.157 HD
HETATM    7  C   UNL     1     -33.367  38.958 -57.098  1.00  0.00     0.081 A 
HETATM    8  C   UNL     1     -33.480  40.244 -56.585  1.00  0.00     0.187 A 
HETATM    9  N   UNL     1     -32.454  40.579 -55.816  1.00  0.00    -0.153 NA
HETATM   10  N   UNL     1     -31.676  39.480 -55.839  1.00  0.00    -0.280 N 
HETATM   11  H   UNL     1     -30.809  39.501 -55.311  1.00  0.00     0.189 HD
HETATM   12  C   UNL     1     -32.184  38.453 -56.610  1.00  0.00     0.042 A 
HETATM   13  C   UNL     1     -31.464  37.170 -56.762  1.00  0.00     0.071 C 
HETATM   14  N   UNL     1     -34.515  41.129 -56.849  1.00  0.00    -0.202 NA
ENDROOT
BRANCH   1  15
HETATM   15  S   UNL     1     -36.680  41.864 -58.090  1.00  0.00    -0.091 SA
BRANCH  15  16
HETATM   16  C   UNL     1     -37.507  42.129 -56.485  1.00  0.00     0.091 C 
BRANCH  16  17
HETATM   17  C   UNL     1     -37.833  40.861 -55.704  1.00  0.00     0.113 C 
BRANCH  17  18
HETATM   18  C   UNL     1     -37.322  40.915 -54.282  1.00  0.00     0.223 C 
HETATM   19  N   UNL     1     -35.943  40.988 -54.208  1.00  0.00    -0.325 N 
HETATM   20  H   UNL     1     -35.478  41.440 -54.985  1.00  0.00     0.169 HD
HETATM   21  O   UNL     1     -38.110  40.945 -53.339  1.00  0.00    -0.273 OA
BRANCH  19  22
HETATM   22  C   UNL     1     -35.189  40.865 -53.019  1.00  0.00     0.068 A 
HETATM   23  C   UNL     1     -34.401  39.747 -52.701  1.00  0.00     0.095 A 
HETATM   24  C   UNL     1     -33.671  39.726 -51.505  1.00  0.00     0.039 A 
HETATM   25  C   UNL     1     -33.730  40.804 -50.622  1.00  0.00     0.003 A 
HETATM   26  C   UNL     1     -34.488  41.926 -50.946  1.00  0.00     0.002 A 
HETATM   27  C   UNL     1     -35.199  41.964 -52.148  1.00  0.00     0.032 A 
BRANCH  23  28
HETATM   28  O   UNL     1     -34.185  38.781 -53.652  1.00  0.00    -0.349 OA
BRANCH  28  29
HETATM   29  C   UNL     1     -34.980  37.604 -53.480  1.00  0.00     0.171 C 
HETATM   30  C   UNL     1     -35.726  37.308 -54.769  1.00  0.00     0.034 C 
ENDBRANCH  28  29
ENDBRANCH  23  28
ENDBRANCH  19  22
ENDBRANCH  17  18
ENDBRANCH  16  17
ENDBRANCH  15  16
ENDBRANCH   1  15
BRANCH   2  31
HETATM   31  C   UNL     1     -36.549  38.987 -59.100  1.00  0.00     0.044 A 
HETATM   32  C   UNL     1     -36.456  39.094 -60.496  1.00  0.00     0.054 A 
HETATM   33  C   UNL     1     -37.548  38.759 -61.296  1.00  0.00     0.036 A 
HETATM   34 CL   UNL     1     -37.425  38.895 -63.007  1.00  0.00    -0.084 Cl
HETATM   35  C   UNL     1     -38.744  38.332 -60.722  1.00  0.00     0.024 A 
HETATM   36  C   UNL     1     -38.848  38.229 -59.335  1.00  0.00     0.004 A 
HETATM   37  C   UNL     1     -37.756  38.555 -58.527  1.00  0.00     0.030 A 
ENDBRANCH   2  31
TORSDOF 8
ENDMDL
MODEL 7
REMARK VINA RESULT:      -7.8      3.560      6.341
REMARK  8 active torsions:
REMARK  status: ('A' for Active; 'I' for Inactive)
REMARK    1  A    between atoms: C_2  and  O_3 
REMARK    2  A    between atoms: O_3  and  C_4 
REMARK    3  A    between atoms: C_5  and  N_6 
REMARK       I    between atoms: N_6  and  C_7 
REMARK    4  A    between atoms: C_7  and  C_8 
REMARK    5  A    between atoms: C_8  and  C_9 
REMARK    6  A    between atoms: C_9  and  S_10 
REMARK    7  A    between atoms: S_10  and  C_11 
REMARK    8  A    between atoms: N_12  and  C_13 
ROOT
HETATM    1  C   UNL     1     -44.253  57.316 -55.314  1.00  0.00     0.177 A 
HETATM    2  N   UNL     1     -43.231  56.668 -56.046  1.00  0.00    -0.276 N 
HETATM    3  C   UNL     1     -42.310  55.829 -55.317  1.00  0.00     0.124 A 
HETATM    4  N   UNL     1     -41.358  55.123 -55.895  1.00  0.00    -0.384 N 
HETATM    5  H   UNL     1     -40.748  54.529 -55.353  1.00  0.00     0.157 HD
HETATM    6  H   UNL     1     -41.244  55.148 -56.900  1.00  0.00     0.157 HD
HETATM    7  C   UNL     1     -42.502  55.758 -53.903  1.00  0.00     0.081 A 
HETATM    8  C   UNL     1     -43.577  56.438 -53.342  1.00  0.00     0.187 A 
HETATM    9  N   UNL     1     -43.639  56.297 -52.026  1.00  0.00    -0.153 NA
HETATM   10  N   UNL     1     -42.584  55.508 -51.747  1.00  0.00    -0.280 N 
HETATM   11  H   UNL     1     -42.421  55.260 -50.775  1.00  0.00     0.189 HD
HETATM   12  C   UNL     1     -41.849  55.147 -52.858  1.00  0.00     0.042 A 
HETATM   13  C   UNL     1     -40.649  54.289 -52.747  1.00  0.00     0.071 C 
HETATM   14  N   UNL     1     -44.488  57.219 -54.037  1.00  0.00    -0.202 NA
ENDROOT
BRANCH   1  15
HETATM   15  S   UNL     1     -45.369  58.407 -56.178  1.00  0.00    -0.091 SA
BRANCH  15  16
HETATM   16  C   UNL     1     -45.286  59.928 -55.174  1.00  0.00     0.091 C 
BRANCH  16  17
HETATM   17  C   UNL     1     -44.155  60.886 -55.534  1.00  0.00     0.113 C 
BRANCH  17  18
HETATM   18  C   UNL     1     -43.189  61.092 -54.388  1.00  0.00     0.223 C 
HETATM   19  N   UNL     1     -42.829  59.907 -53.770  1.00  0.00    -0.325 N 
HETATM   20  H   UNL     1     -42.835  59.081 -54.352  1.00  0.00     0.169 HD
HETATM   21  O   UNL     1     -42.766  62.215 -54.126  1.00  0.00    -0.273 OA
BRANCH  19  22
HETATM   22  C   UNL     1     -42.093  59.815 -52.567  1.00  0.00     0.068 A 
HETATM   23  C   UNL     1     -42.511  60.372 -51.347  1.00  0.00     0.095 A 
HETATM   24  C   UNL     1     -41.722  60.209 -50.200  1.00  0.00     0.039 A 
HETATM   25  C   UNL     1     -40.517  59.507 -50.265  1.00  0.00     0.003 A 
HETATM   26  C   UNL     1     -40.113  58.931 -51.465  1.00  0.00     0.002 A 
HETATM   27  C   UNL     1     -40.907  59.069 -52.607  1.00  0.00     0.032 A 
BRANCH  23  28
HETATM   28  O   UNL     1     -43.779  60.885 -51.238  1.00  0.00    -0.349 OA
BRANCH  28  29
HETATM   29  C   UNL     1     -44.660  60.099 -50.429  1.00  0.00     0.171 C 
HETATM   30  C   UNL     1     -45.623  59.340 -51.325  1.00  0.00     0.034 C 
ENDBRANCH  28  29
ENDBRANCH  23  28
ENDBRANCH  19  22
ENDBRANCH  17  18
ENDBRANCH  16  17
ENDBRANCH  15  16
ENDBRANCH   1  15
BRANCH   2  31
HETATM   31  C   UNL     1     -43.120  56.793 -57.464  1.00  0.00     0.044 A 
HETATM   32  C   UNL     1     -43.804  55.915 -58.318  1.00  0.00     0.054 A 
HETATM   33  C   UNL     1     -43.630  56.008 -59.698  1.00  0.00     0.036 A 
HETATM   34 CL   UNL     1     -44.472  54.926 -60.738  1.00  0.00    -0.084 Cl
HETATM   35  C   UNL     1     -42.767  56.957 -60.243  1.00  0.00     0.024 A 
HETATM   36  C   UNL     1     -42.077  57.829 -59.401  1.00  0.00     0.004 A 
HETATM   37  C   UNL     1     -42.252  57.748 -58.018  1.00  0.00     0.030 A 
ENDBRANCH   2  31
TORSDOF 8
ENDMDL
MODEL 8
REMARK VINA RESULT:      -7.7      4.180      9.360
REMARK  8 active torsions:
REMARK  status: ('A' for Active; 'I' for Inactive)
REMARK    1  A    between atoms: C_2  and  O_3 
REMARK    2  A    between atoms: O_3  and  C_4 
REMARK    3  A    between atoms: C_5  and  N_6 
REMARK       I    between atoms: N_6  and  C_7 
REMARK    4  A    between atoms: C_7  and  C_8 
REMARK    5  A    between atoms: C_8  and  C_9 
REMARK    6  A    between atoms: C_9  and  S_10 
REMARK    7  A    between atoms: S_10  and  C_11 
REMARK    8  A    between atoms: N_12  and  C_13 
ROOT
HETATM    1  C   UNL     1     -40.794  54.223 -53.982  1.00  0.00     0.177 A 
HETATM    2  N   UNL     1     -41.156  54.377 -52.623  1.00  0.00    -0.276 N 
HETATM    3  C   UNL     1     -40.850  53.294 -51.719  1.00  0.00     0.124 A 
HETATM    4  N   UNL     1     -41.077  53.347 -50.421  1.00  0.00    -0.384 N 
HETATM    5  H   UNL     1     -40.828  52.577 -49.817  1.00  0.00     0.157 HD
HETATM    6  H   UNL     1     -41.486  54.175 -50.008  1.00  0.00     0.157 HD
HETATM    7  C   UNL     1     -40.231  52.143 -52.296  1.00  0.00     0.081 A 
HETATM    8  C   UNL     1     -39.915  52.165 -53.650  1.00  0.00     0.187 A 
HETATM    9  N   UNL     1     -39.353  51.038 -54.061  1.00  0.00    -0.153 NA
HETATM   10  N   UNL     1     -39.307  50.287 -52.944  1.00  0.00    -0.280 N 
HETATM   11  H   UNL     1     -38.910  49.355 -53.015  1.00  0.00     0.189 HD
HETATM   12  C   UNL     1     -39.832  50.912 -51.830  1.00  0.00     0.042 A 
HETATM   13  C   UNL     1     -39.875  50.240 -50.514  1.00  0.00     0.071 C 
HETATM   14  N   UNL     1     -40.174  53.213 -54.521  1.00  0.00    -0.202 NA
ENDROOT
BRANCH   1  15
HETATM   15  S   UNL     1     -41.214  55.517 -55.134  1.00  0.00    -0.091 SA
BRANCH  15  16
HETATM   16  C   UNL     1     -42.690  54.838 -55.966  1.00  0.00     0.091 C 
BRANCH  16  17
HETATM   17  C   UNL     1     -43.027  55.470 -57.312  1.00  0.00     0.113 C 
BRANCH  17  18
HETATM   18  C   UNL     1     -43.291  56.954 -57.201  1.00  0.00     0.223 C 
HETATM   19  N   UNL     1     -44.457  57.243 -56.514  1.00  0.00    -0.325 N 
HETATM   20  H   UNL     1     -44.737  56.572 -55.811  1.00  0.00     0.169 HD
HETATM   21  O   UNL     1     -42.482  57.765 -57.647  1.00  0.00    -0.273 OA
BRANCH  19  22
HETATM   22  C   UNL     1     -45.043  58.525 -56.419  1.00  0.00     0.068 A 
HETATM   23  C   UNL     1     -44.927  59.361 -55.296  1.00  0.00     0.095 A 
HETATM   24  C   UNL     1     -45.527  60.627 -55.304  1.00  0.00     0.039 A 
HETATM   25  C   UNL     1     -46.250  61.059 -56.417  1.00  0.00     0.003 A 
HETATM   26  C   UNL     1     -46.345  60.246 -57.542  1.00  0.00     0.002 A 
HETATM   27  C   UNL     1     -45.728  58.992 -57.550  1.00  0.00     0.032 A 
BRANCH  23  28
HETATM   28  O   UNL     1     -44.057  59.022 -54.290  1.00  0.00    -0.349 OA
BRANCH  28  29
HETATM   29  C   UNL     1     -42.980  59.947 -54.113  1.00  0.00     0.171 C 
HETATM   30  C   UNL     1     -41.667  59.257 -54.438  1.00  0.00     0.034 C 
ENDBRANCH  28  29
ENDBRANCH  23  28
ENDBRANCH  19  22
ENDBRANCH  17  18
ENDBRANCH  16  17
ENDBRANCH  15  16
ENDBRANCH   1  15
BRANCH   2  31
HETATM   31  C   UNL     1     -41.768  55.570 -52.133  1.00  0.00     0.044 A 
HETATM   32  C   UNL     1     -40.992  56.606 -51.591  1.00  0.00     0.054 A 
HETATM   33  C   UNL     1     -41.610  57.734 -51.054  1.00  0.00     0.036 A 
HETATM   34 CL   UNL     1     -40.649  58.997 -50.390  1.00  0.00    -0.084 Cl
HETATM   35  C   UNL     1     -42.999  57.841 -51.035  1.00  0.00     0.024 A 
HETATM   36  C   UNL     1     -43.780  56.814 -51.566  1.00  0.00     0.004 A 
HETATM   37  C   UNL     1     -43.167  55.683 -52.112  1.00  0.00     0.030 A 
ENDBRANCH   2  31
TORSDOF 8
ENDMDL
MODEL 9
REMARK VINA RESULT:      -7.7      2.760      4.759
REMARK  8 active torsions:
REMARK  status: ('A' for Active; 'I' for Inactive)
REMARK    1  A    between atoms: C_2  and  O_3 
REMARK    2  A    between atoms: O_3  and  C_4 
REMARK    3  A    between atoms: C_5  and  N_6 
REMARK       I    between atoms: N_6  and  C_7 
REMARK    4  A    between atoms: C_7  and  C_8 
REMARK    5  A    between atoms: C_8  and  C_9 
REMARK    6  A    between atoms: C_9  and  S_10 
REMARK    7  A    between atoms: S_10  and  C_11 
REMARK    8  A    between atoms: N_12  and  C_13 
ROOT
HETATM    1  C   UNL     1     -42.820  58.866 -57.555  1.00  0.00     0.177 A 
HETATM    2  N   UNL     1     -43.330  59.117 -58.851  1.00  0.00    -0.276 N 
HETATM    3  C   UNL     1     -43.863  57.999 -59.592  1.00  0.00     0.124 A 
HETATM    4  N   UNL     1     -44.425  58.118 -60.779  1.00  0.00    -0.384 N 
HETATM    5  H   UNL     1     -44.807  57.315 -61.257  1.00  0.00     0.157 HD
HETATM    6  H   UNL     1     -44.502  59.026 -61.218  1.00  0.00     0.157 HD
HETATM    7  C   UNL     1     -43.794  56.724 -58.951  1.00  0.00     0.081 A 
HETATM    8  C   UNL     1     -43.286  56.655 -57.659  1.00  0.00     0.187 A 
HETATM    9  N   UNL     1     -43.271  55.418 -57.182  1.00  0.00    -0.153 NA
HETATM   10  N   UNL     1     -43.784  54.689 -58.191  1.00  0.00    -0.280 N 
HETATM   11  H   UNL     1     -43.870  53.686 -58.057  1.00  0.00     0.189 HD
HETATM   12  C   UNL     1     -44.122  55.436 -59.303  1.00  0.00     0.042 A 
HETATM   13  C   UNL     1     -44.693  54.806 -60.513  1.00  0.00     0.071 C 
HETATM   14  N   UNL     1     -42.803  57.727 -56.924  1.00  0.00    -0.202 NA
ENDROOT
BRANCH   1  15
HETATM   15  S   UNL     1     -42.099  60.216 -56.639  1.00  0.00    -0.091 SA
BRANCH  15  16
HETATM   16  C   UNL     1     -42.808  59.982 -54.974  1.00  0.00     0.091 C 
BRANCH  16  17
HETATM   17  C   UNL     1     -41.819  60.115 -53.821  1.00  0.00     0.113 C 
BRANCH  17  18
HETATM   18  C   UNL     1     -41.023  58.850 -53.597  1.00  0.00     0.223 C 
HETATM   19  N   UNL     1     -41.729  57.705 -53.924  1.00  0.00    -0.325 N 
HETATM   20  H   UNL     1     -42.426  57.805 -54.650  1.00  0.00     0.169 HD
HETATM   21  O   UNL     1     -39.856  58.908 -53.216  1.00  0.00    -0.273 OA
BRANCH  19  22
HETATM   22  C   UNL     1     -41.306  56.387 -53.644  1.00  0.00     0.068 A 
HETATM   23  C   UNL     1     -41.380  55.791 -52.374  1.00  0.00     0.095 A 
HETATM   24  C   UNL     1     -40.954  54.468 -52.198  1.00  0.00     0.039 A 
HETATM   25  C   UNL     1     -40.446  53.741 -53.275  1.00  0.00     0.003 A 
HETATM   26  C   UNL     1     -40.396  54.317 -54.541  1.00  0.00     0.002 A 
HETATM   27  C   UNL     1     -40.841  55.628 -54.728  1.00  0.00     0.032 A 
BRANCH  23  28
HETATM   28  O   UNL     1     -42.059  56.431 -51.367  1.00  0.00    -0.349 OA
BRANCH  28  29
HETATM   29  C   UNL     1     -43.401  55.970 -51.182  1.00  0.00     0.171 C 
HETATM   30  C   UNL     1     -44.365  57.119 -51.420  1.00  0.00     0.034 C 
ENDBRANCH  28  29
ENDBRANCH  23  28
ENDBRANCH  19  22
ENDBRANCH  17  18
ENDBRANCH  16  17
ENDBRANCH  15  16
ENDBRANCH   1  15
BRANCH   2  31
HETATM   31  C   UNL     1     -43.363  60.430 -59.409  1.00  0.00     0.044 A 
HETATM   32  C   UNL     1     -44.480  61.260 -59.228  1.00  0.00     0.054 A 
HETATM   33  C   UNL     1     -44.525  62.513 -59.838  1.00  0.00     0.036 A 
HETATM   34 CL   UNL     1     -45.900  63.522 -59.612  1.00  0.00    -0.084 Cl
HETATM   35  C   UNL     1     -43.474  62.948 -60.643  1.00  0.00     0.024 A 
HETATM   36  C   UNL     1     -42.363  62.128 -60.835  1.00  0.00     0.004 A 
HETATM   37  C   UNL     1     -42.307  60.875 -60.221  1.00  0.00     0.030 A 
ENDBRANCH   2  31
TORSDOF 8
ENDMDL
MODEL 10
REMARK VINA RESULT:      -7.6      5.577      7.809
REMARK  8 active torsions:
REMARK  status: ('A' for Active; 'I' for Inactive)
REMARK    1  A    between atoms: C_2  and  O_3 
REMARK    2  A    between atoms: O_3  and  C_4 
REMARK    3  A    between atoms: C_5  and  N_6 
REMARK       I    between atoms: N_6  and  C_7 
REMARK    4  A    between atoms: C_7  and  C_8 
REMARK    5  A    between atoms: C_8  and  C_9 
REMARK    6  A    between atoms: C_9  and  S_10 
REMARK    7  A    between atoms: S_10  and  C_11 
REMARK    8  A    between atoms: N_12  and  C_13 
ROOT
HETATM    1  C   UNL     1     -44.035  61.236 -52.375  1.00  0.00     0.177 A 
HETATM    2  N   UNL     1     -43.719  60.710 -51.101  1.00  0.00    -0.276 N 
HETATM    3  C   UNL     1     -44.571  61.072 -49.993  1.00  0.00     0.124 A 
HETATM    4  N   UNL     1     -44.418  60.594 -48.774  1.00  0.00    -0.384 N 
HETATM    5  H   UNL     1     -45.048  60.854 -48.029  1.00  0.00     0.157 HD
HETATM    6  H   UNL     1     -43.675  59.937 -48.573  1.00  0.00     0.157 HD
HETATM    7  C   UNL     1     -45.647  61.964 -50.288  1.00  0.00     0.081 A 
HETATM    8  C   UNL     1     -45.836  62.367 -51.605  1.00  0.00     0.187 A 
HETATM    9  N   UNL     1     -46.860  63.197 -51.742  1.00  0.00    -0.153 NA
HETATM   10  N   UNL     1     -47.333  63.319 -50.488  1.00  0.00    -0.280 N 
HETATM   11  H   UNL     1     -48.136  63.923 -50.339  1.00  0.00     0.189 HD
HETATM   12  C   UNL     1     -46.629  62.587 -49.553  1.00  0.00     0.042 A 
HETATM   13  C   UNL     1     -46.997  62.602 -48.120  1.00  0.00     0.071 C 
HETATM   14  N   UNL     1     -45.044  61.999 -52.682  1.00  0.00    -0.202 NA
ENDROOT
BRANCH   1  15
HETATM   15  S   UNL     1     -42.966  60.855 -53.751  1.00  0.00    -0.091 SA
BRANCH  15  16
HETATM   16  C   UNL     1     -43.678  59.298 -54.381  1.00  0.00     0.091 C 
BRANCH  16  17
HETATM   17  C   UNL     1     -42.945  58.680 -55.567  1.00  0.00     0.113 C 
BRANCH  17  18
HETATM   18  C   UNL     1     -42.836  57.176 -55.454  1.00  0.00     0.223 C 
HETATM   19  N   UNL     1     -41.956  56.773 -54.465  1.00  0.00    -0.325 N 
HETATM   20  H   UNL     1     -41.852  57.400 -53.679  1.00  0.00     0.169 HD
HETATM   21  O   UNL     1     -43.530  56.447 -56.160  1.00  0.00    -0.273 OA
BRANCH  19  22
HETATM   22  C   UNL     1     -41.521  55.444 -54.263  1.00  0.00     0.068 A 
HETATM   23  C   UNL     1     -42.066  54.577 -53.300  1.00  0.00     0.095 A 
HETATM   24  C   UNL     1     -41.582  53.267 -53.188  1.00  0.00     0.039 A 
HETATM   25  C   UNL     1     -40.554  52.820 -54.019  1.00  0.00     0.003 A 
HETATM   26  C   UNL     1     -40.030  53.666 -54.992  1.00  0.00     0.002 A 
HETATM   27  C   UNL     1     -40.524  54.966 -55.126  1.00  0.00     0.032 A 
BRANCH  23  28
HETATM   28  O   UNL     1     -43.202  54.947 -52.625  1.00  0.00    -0.349 OA
BRANCH  28  29
HETATM   29  C   UNL     1     -43.619  54.012 -51.627  1.00  0.00     0.171 C 
HETATM   30  C   UNL     1     -43.962  54.759 -50.350  1.00  0.00     0.034 C 
ENDBRANCH  28  29
ENDBRANCH  23  28
ENDBRANCH  19  22
ENDBRANCH  17  18
ENDBRANCH  16  17
ENDBRANCH  15  16
ENDBRANCH   1  15
BRANCH   2  31
HETATM   31  C   UNL     1     -42.623  59.816 -50.902  1.00  0.00     0.044 A 
HETATM   32  C   UNL     1     -41.350  60.303 -50.570  1.00  0.00     0.054 A 
HETATM   33  C   UNL     1     -40.276  59.422 -50.448  1.00  0.00     0.036 A 
HETATM   34 CL   UNL     1     -38.718  60.029 -50.043  1.00  0.00    -0.084 Cl
HETATM   35  C   UNL     1     -40.449  58.057 -50.668  1.00  0.00     0.024 A 
HETATM   36  C   UNL     1     -41.710  57.564 -51.005  1.00  0.00     0.004 A 
HETATM   37  C   UNL     1     -42.792  58.440 -51.122  1.00  0.00     0.030 A 
ENDBRANCH   2  31
TORSDOF 8
ENDMDL
