MODEL 1
REMARK VINA RESULT:      -8.6      0.000      0.000
REMARK  3 active torsions:
REMARK  status: ('A' for Active; 'I' for Inactive)
REMARK    1  A    between atoms: C_4  and  C_5 
REMARK    2  A    between atoms: C_11  and  C_12 
REMARK    3  A    between atoms: C_21  and  N_22 
ROOT
HETATM    1  C   UNL     1     -41.192  54.679 -54.447  1.00  0.00     0.071 A 
HETATM    2  N   UNL     1     -41.646  54.760 -55.750  1.00  0.00    -0.274 N 
HETATM    3  H   UNL     1     -41.677  54.015 -56.436  1.00  0.00     0.189 HD
HETATM    4  N   UNL     1     -42.015  55.995 -56.135  1.00  0.00    -0.148 NA
HETATM    5  C   UNL     1     -41.809  56.702 -55.033  1.00  0.00     0.199 A 
HETATM    6  C   UNL     1     -41.351  55.955 -53.936  1.00  0.00     0.036 A 
HETATM    7  C   UNL     1     -41.093  56.629 -52.622  1.00  0.00     0.079 C 
HETATM    8  C   UNL     1     -40.946  58.141 -52.878  1.00  0.00     0.063 C 
HETATM    9  C   UNL     1     -40.243  58.941 -51.793  1.00  0.00     0.020 C 
HETATM   10  N   UNL     1     -39.661  59.606 -50.893  1.00  0.00    -0.096 N 
HETATM   11  C   UNL     1     -41.383  58.760 -54.003  1.00  0.00     0.139 C 
HETATM   12  O   UNL     1     -41.955  58.040 -55.058  1.00  0.00    -0.277 OA
ENDROOT
BRANCH   7  13
HETATM   13  C   UNL     1     -42.201  56.412 -51.524  1.00  0.00     0.022 C 
HETATM   14  C   UNL     1     -43.289  55.429 -51.900  1.00  0.00    -0.025 C 
HETATM   15  C   UNL     1     -43.609  54.349 -51.173  1.00  0.00    -0.030 C 
HETATM   16  C   UNL     1     -42.911  53.969 -49.904  1.00  0.00     0.027 C 
HETATM   17  C   UNL     1     -41.570  54.673 -49.721  1.00  0.00     0.004 C 
HETATM   18  C   UNL     1     -41.622  56.144 -50.113  1.00  0.00     0.010 C 
ENDBRANCH   7  13
BRANCH  11  19
HETATM   19  N   UNL     1     -41.305  60.112 -54.253  1.00  0.00    -0.282 NA
HETATM   20  H   UNL     1     -42.064  60.508 -54.800  1.00  0.00     0.126 HD
HETATM   21  H   UNL     1     -41.108  60.640 -53.404  1.00  0.00     0.126 HD
ENDBRANCH  11  19
BRANCH   1  22
HETATM   22  C   UNL     1     -40.643  53.441 -53.906  1.00  0.00    -0.007 A 
HETATM   23  C   UNL     1     -40.485  52.315 -54.722  1.00  0.00     0.014 A 
HETATM   24  C   UNL     1     -39.960  51.131 -54.200  1.00  0.00     0.001 A 
HETATM   25  C   UNL     1     -39.593  51.061 -52.858  1.00  0.00     0.000 A 
HETATM   26  C   UNL     1     -39.751  52.173 -52.035  1.00  0.00     0.001 A 
HETATM   27  C   UNL     1     -40.277  53.358 -52.555  1.00  0.00     0.014 A 
ENDBRANCH   1  22
TORSDOF 3
ENDMDL
MODEL 2
REMARK VINA RESULT:      -7.9      3.037      6.285
REMARK  3 active torsions:
REMARK  status: ('A' for Active; 'I' for Inactive)
REMARK    1  A    between atoms: C_4  and  C_5 
REMARK    2  A    between atoms: C_11  and  C_12 
REMARK    3  A    between atoms: C_21  and  N_22 
ROOT
HETATM    1  C   UNL     1     -41.123  55.788 -50.570  1.00  0.00     0.071 A 
HETATM    2  N   UNL     1     -41.316  55.749 -49.202  1.00  0.00    -0.274 N 
HETATM    3  H   UNL     1     -41.434  56.538 -48.576  1.00  0.00     0.189 HD
HETATM    4  N   UNL     1     -41.266  54.515 -48.668  1.00  0.00    -0.148 NA
HETATM    5  C   UNL     1     -41.062  53.759 -49.737  1.00  0.00     0.199 A 
HETATM    6  C   UNL     1     -41.013  54.462 -50.950  1.00  0.00     0.036 A 
HETATM    7  C   UNL     1     -40.803  53.725 -52.239  1.00  0.00     0.079 C 
HETATM    8  C   UNL     1     -40.211  52.341 -51.911  1.00  0.00     0.063 C 
HETATM    9  C   UNL     1     -39.507  51.623 -53.051  1.00  0.00     0.020 C 
HETATM   10  N   UNL     1     -38.924  51.027 -53.997  1.00  0.00    -0.096 N 
HETATM   11  C   UNL     1     -40.271  51.769 -50.682  1.00  0.00     0.139 C 
HETATM   12  O   UNL     1     -40.833  52.440 -49.590  1.00  0.00    -0.277 OA
ENDROOT
BRANCH   7  13
HETATM   13  C   UNL     1     -42.094  53.523 -53.117  1.00  0.00     0.022 C 
HETATM   14  C   UNL     1     -43.251  54.438 -52.774  1.00  0.00    -0.025 C 
HETATM   15  C   UNL     1     -43.853  55.248 -53.655  1.00  0.00    -0.030 C 
HETATM   16  C   UNL     1     -43.440  55.365 -55.089  1.00  0.00     0.027 C 
HETATM   17  C   UNL     1     -42.051  54.796 -55.363  1.00  0.00     0.004 C 
HETATM   18  C   UNL     1     -41.802  53.481 -54.637  1.00  0.00     0.010 C 
ENDBRANCH   7  13
BRANCH  11  19
HETATM   19  N   UNL     1     -39.788  50.521 -50.357  1.00  0.00    -0.282 NA
HETATM   20  H   UNL     1     -39.280  50.455 -49.480  1.00  0.00     0.126 HD
HETATM   21  H   UNL     1     -40.505  49.803 -50.458  1.00  0.00     0.126 HD
ENDBRANCH  11  19
BRANCH   1  22
HETATM   22  C   UNL     1     -41.029  57.051 -51.290  1.00  0.00    -0.007 A 
HETATM   23  C   UNL     1     -40.911  57.070 -52.685  1.00  0.00     0.014 A 
HETATM   24  C   UNL     1     -40.819  58.282 -53.372  1.00  0.00     0.001 A 
HETATM   25  C   UNL     1     -40.841  59.486 -52.671  1.00  0.00     0.000 A 
HETATM   26  C   UNL     1     -40.952  59.481 -51.284  1.00  0.00     0.001 A 
HETATM   27  C   UNL     1     -41.042  58.269 -50.594  1.00  0.00     0.014 A 
ENDBRANCH   1  22
TORSDOF 3
ENDMDL
MODEL 3
REMARK VINA RESULT:      -7.8      2.732      4.529
REMARK  3 active torsions:
REMARK  status: ('A' for Active; 'I' for Inactive)
REMARK    1  A    between atoms: C_4  and  C_5 
REMARK    2  A    between atoms: C_11  and  C_12 
REMARK    3  A    between atoms: C_21  and  N_22 
ROOT
HETATM    1  C   UNL     1     -43.224  56.603 -51.292  1.00  0.00     0.071 A 
HETATM    2  N   UNL     1     -44.413  56.528 -50.592  1.00  0.00    -0.274 N 
HETATM    3  H   UNL     1     -44.644  55.888 -49.841  1.00  0.00     0.189 HD
HETATM    4  N   UNL     1     -45.371  57.367 -51.029  1.00  0.00    -0.148 NA
HETATM    5  C   UNL     1     -44.753  58.002 -52.014  1.00  0.00     0.199 A 
HETATM    6  C   UNL     1     -43.415  57.625 -52.206  1.00  0.00     0.036 A 
HETATM    7  C   UNL     1     -42.595  58.277 -53.279  1.00  0.00     0.079 C 
HETATM    8  C   UNL     1     -43.557  58.933 -54.287  1.00  0.00     0.063 C 
HETATM    9  C   UNL     1     -42.983  59.246 -55.659  1.00  0.00     0.020 C 
HETATM   10  N   UNL     1     -42.507  59.505 -56.798  1.00  0.00    -0.096 N 
HETATM   11  C   UNL     1     -44.856  59.213 -54.014  1.00  0.00     0.139 C 
HETATM   12  O   UNL     1     -45.440  58.859 -52.792  1.00  0.00    -0.277 OA
ENDROOT
BRANCH   7  13
HETATM   13  C   UNL     1     -41.574  59.366 -52.777  1.00  0.00     0.022 C 
HETATM   14  C   UNL     1     -42.063  60.219 -51.626  1.00  0.00    -0.025 C 
HETATM   15  C   UNL     1     -41.415  60.348 -50.460  1.00  0.00    -0.030 C 
HETATM   16  C   UNL     1     -40.132  59.644 -50.143  1.00  0.00     0.027 C 
HETATM   17  C   UNL     1     -39.837  58.480 -51.084  1.00  0.00     0.004 C 
HETATM   18  C   UNL     1     -40.150  58.807 -52.538  1.00  0.00     0.010 C 
ENDBRANCH   7  13
BRANCH  11  19
HETATM   19  N   UNL     1     -45.738  59.833 -54.873  1.00  0.00    -0.282 NA
HETATM   20  H   UNL     1     -46.443  60.421 -54.439  1.00  0.00     0.126 HD
HETATM   21  H   UNL     1     -45.252  60.294 -55.641  1.00  0.00     0.126 HD
ENDBRANCH  11  19
BRANCH   1  22
HETATM   22  C   UNL     1     -42.125  55.684 -51.027  1.00  0.00    -0.007 A 
HETATM   23  C   UNL     1     -41.648  54.834 -52.031  1.00  0.00     0.014 A 
HETATM   24  C   UNL     1     -40.595  53.953 -51.774  1.00  0.00     0.001 A 
HETATM   25  C   UNL     1     -40.011  53.913 -50.509  1.00  0.00     0.000 A 
HETATM   26  C   UNL     1     -40.480  54.750 -49.500  1.00  0.00     0.001 A 
HETATM   27  C   UNL     1     -41.535  55.630 -49.756  1.00  0.00     0.014 A 
ENDBRANCH   1  22
TORSDOF 3
ENDMDL
MODEL 4
REMARK VINA RESULT:      -7.7      2.077      2.501
REMARK  3 active torsions:
REMARK  status: ('A' for Active; 'I' for Inactive)
REMARK    1  A    between atoms: C_4  and  C_5 
REMARK    2  A    between atoms: C_11  and  C_12 
REMARK    3  A    between atoms: C_21  and  N_22 
ROOT
HETATM    1  C   UNL     1     -43.178  55.891 -54.142  1.00  0.00     0.071 A 
HETATM    2  N   UNL     1     -44.301  55.928 -54.946  1.00  0.00    -0.274 N 
HETATM    3  H   UNL     1     -44.526  55.307 -55.715  1.00  0.00     0.189 HD
HETATM    4  N   UNL     1     -45.131  56.958 -54.697  1.00  0.00    -0.148 NA
HETATM    5  C   UNL     1     -44.521  57.566 -53.690  1.00  0.00     0.199 A 
HETATM    6  C   UNL     1     -43.340  56.943 -53.257  1.00  0.00     0.036 A 
HETATM    7  C   UNL     1     -42.559  57.520 -52.115  1.00  0.00     0.079 C 
HETATM    8  C   UNL     1     -42.987  58.989 -51.933  1.00  0.00     0.063 C 
HETATM    9  C   UNL     1     -42.027  59.877 -51.159  1.00  0.00     0.020 C 
HETATM   10  N   UNL     1     -41.231  60.615 -50.518  1.00  0.00    -0.096 N 
HETATM   11  C   UNL     1     -44.135  59.506 -52.437  1.00  0.00     0.139 C 
HETATM   12  O   UNL     1     -44.998  58.738 -53.228  1.00  0.00    -0.277 OA
ENDROOT
BRANCH   7  13
HETATM   13  C   UNL     1     -42.729  56.774 -50.739  1.00  0.00     0.022 C 
HETATM   14  C   UNL     1     -43.671  55.589 -50.766  1.00  0.00    -0.025 C 
HETATM   15  C   UNL     1     -43.328  54.349 -50.387  1.00  0.00    -0.030 C 
HETATM   16  C   UNL     1     -41.959  53.978 -49.909  1.00  0.00     0.027 C 
HETATM   17  C   UNL     1     -40.898  55.017 -50.260  1.00  0.00     0.004 C 
HETATM   18  C   UNL     1     -41.382  56.445 -50.049  1.00  0.00     0.010 C 
ENDBRANCH   7  13
BRANCH  11  19
HETATM   19  N   UNL     1     -44.571  60.801 -52.265  1.00  0.00    -0.282 NA
HETATM   20  H   UNL     1     -45.569  60.918 -52.116  1.00  0.00     0.126 HD
HETATM   21  H   UNL     1     -44.005  61.300 -51.581  1.00  0.00     0.126 HD
ENDBRANCH  11  19
BRANCH   1  22
HETATM   22  C   UNL     1     -42.119  54.913 -54.356  1.00  0.00    -0.007 A 
HETATM   23  C   UNL     1     -42.270  53.591 -53.923  1.00  0.00     0.014 A 
HETATM   24  C   UNL     1     -41.253  52.657 -54.128  1.00  0.00     0.001 A 
HETATM   25  C   UNL     1     -40.074  53.037 -54.766  1.00  0.00     0.000 A 
HETATM   26  C   UNL     1     -39.909  54.350 -55.198  1.00  0.00     0.001 A 
HETATM   27  C   UNL     1     -40.926  55.286 -54.991  1.00  0.00     0.014 A 
ENDBRANCH   1  22
TORSDOF 3
ENDMDL
MODEL 5
REMARK VINA RESULT:      -7.6      2.607      4.815
REMARK  3 active torsions:
REMARK  status: ('A' for Active; 'I' for Inactive)
REMARK    1  A    between atoms: C_4  and  C_5 
REMARK    2  A    between atoms: C_11  and  C_12 
REMARK    3  A    between atoms: C_21  and  N_22 
ROOT
HETATM    1  C   UNL     1     -43.585  57.077 -55.794  1.00  0.00     0.071 A 
HETATM    2  N   UNL     1     -44.942  56.994 -55.548  1.00  0.00    -0.274 N 
HETATM    3  H   UNL     1     -45.684  56.889 -56.230  1.00  0.00     0.189 HD
HETATM    4  N   UNL     1     -45.284  57.142 -54.254  1.00  0.00    -0.148 NA
HETATM    5  C   UNL     1     -44.103  57.297 -53.672  1.00  0.00     0.199 A 
HETATM    6  C   UNL     1     -43.006  57.219 -54.544  1.00  0.00     0.036 A 
HETATM    7  C   UNL     1     -41.611  57.361 -54.013  1.00  0.00     0.079 C 
HETATM    8  C   UNL     1     -41.690  58.040 -52.632  1.00  0.00     0.063 C 
HETATM    9  C   UNL     1     -40.409  58.685 -52.127  1.00  0.00     0.020 C 
HETATM   10  N   UNL     1     -39.347  59.220 -51.707  1.00  0.00    -0.096 N 
HETATM   11  C   UNL     1     -42.821  58.102 -51.888  1.00  0.00     0.139 C 
HETATM   12  O   UNL     1     -44.037  57.597 -52.362  1.00  0.00    -0.277 OA
ENDROOT
BRANCH   7  13
HETATM   13  C   UNL     1     -40.806  56.016 -53.866  1.00  0.00     0.022 C 
HETATM   14  C   UNL     1     -41.213  55.153 -52.690  1.00  0.00    -0.025 C 
HETATM   15  C   UNL     1     -41.605  53.876 -52.797  1.00  0.00    -0.030 C 
HETATM   16  C   UNL     1     -41.710  53.148 -54.101  1.00  0.00     0.027 C 
HETATM   17  C   UNL     1     -41.719  54.079 -55.310  1.00  0.00     0.004 C 
HETATM   18  C   UNL     1     -40.709  55.212 -55.186  1.00  0.00     0.010 C 
ENDBRANCH   7  13
BRANCH  11  19
HETATM   19  N   UNL     1     -42.924  58.666 -50.634  1.00  0.00    -0.282 NA
HETATM   20  H   UNL     1     -42.860  59.679 -50.596  1.00  0.00     0.126 HD
HETATM   21  H   UNL     1     -43.723  58.297 -50.122  1.00  0.00     0.126 HD
ENDBRANCH  11  19
BRANCH   1  22
HETATM   22  C   UNL     1     -43.054  57.057 -57.150  1.00  0.00    -0.007 A 
HETATM   23  C   UNL     1     -42.329  58.146 -57.649  1.00  0.00     0.014 A 
HETATM   24  C   UNL     1     -41.823  58.124 -58.950  1.00  0.00     0.001 A 
HETATM   25  C   UNL     1     -42.038  57.014 -59.765  1.00  0.00     0.000 A 
HETATM   26  C   UNL     1     -42.762  55.927 -59.283  1.00  0.00     0.001 A 
HETATM   27  C   UNL     1     -43.271  55.949 -57.982  1.00  0.00     0.014 A 
ENDBRANCH   1  22
TORSDOF 3
ENDMDL
MODEL 6
REMARK VINA RESULT:      -7.5      2.407      4.282
REMARK  3 active torsions:
REMARK  status: ('A' for Active; 'I' for Inactive)
REMARK    1  A    between atoms: C_4  and  C_5 
REMARK    2  A    between atoms: C_11  and  C_12 
REMARK    3  A    between atoms: C_21  and  N_22 
ROOT
HETATM    1  C   UNL     1     -40.663  54.079 -51.665  1.00  0.00     0.071 A 
HETATM    2  N   UNL     1     -40.203  54.271 -50.376  1.00  0.00    -0.274 N 
HETATM    3  H   UNL     1     -39.619  53.646 -49.833  1.00  0.00     0.189 HD
HETATM    4  N   UNL     1     -40.658  55.391 -49.784  1.00  0.00    -0.148 NA
HETATM    5  C   UNL     1     -41.403  55.926 -50.740  1.00  0.00     0.199 A 
HETATM    6  C   UNL     1     -41.417  55.206 -51.944  1.00  0.00     0.036 A 
HETATM    7  C   UNL     1     -42.208  55.710 -53.114  1.00  0.00     0.079 C 
HETATM    8  C   UNL     1     -43.248  56.719 -52.591  1.00  0.00     0.063 C 
HETATM    9  C   UNL     1     -44.429  57.002 -53.506  1.00  0.00     0.020 C 
HETATM   10  N   UNL     1     -45.409  57.236 -54.264  1.00  0.00    -0.096 N 
HETATM   11  C   UNL     1     -43.165  57.327 -51.382  1.00  0.00     0.139 C 
HETATM   12  O   UNL     1     -42.139  57.024 -50.480  1.00  0.00    -0.277 OA
ENDROOT
BRANCH   7  13
HETATM   13  C   UNL     1     -41.365  56.401 -54.250  1.00  0.00     0.022 C 
HETATM   14  C   UNL     1     -41.983  56.342 -55.631  1.00  0.00    -0.025 C 
HETATM   15  C   UNL     1     -42.238  57.420 -56.385  1.00  0.00    -0.030 C 
HETATM   16  C   UNL     1     -41.961  58.824 -55.944  1.00  0.00     0.027 C 
HETATM   17  C   UNL     1     -41.742  58.949 -54.440  1.00  0.00     0.004 C 
HETATM   18  C   UNL     1     -40.883  57.824 -53.876  1.00  0.00     0.010 C 
ENDBRANCH   7  13
BRANCH  11  19
HETATM   19  N   UNL     1     -44.052  58.262 -50.894  1.00  0.00    -0.282 NA
HETATM   20  H   UNL     1     -45.027  57.975 -50.862  1.00  0.00     0.126 HD
HETATM   21  H   UNL     1     -43.726  58.667 -50.018  1.00  0.00     0.126 HD
ENDBRANCH  11  19
BRANCH   1  22
HETATM   22  C   UNL     1     -40.363  52.862 -52.408  1.00  0.00    -0.007 A 
HETATM   23  C   UNL     1     -40.681  52.758 -53.767  1.00  0.00     0.014 A 
HETATM   24  C   UNL     1     -40.394  51.590 -54.475  1.00  0.00     0.001 A 
HETATM   25  C   UNL     1     -39.789  50.513 -53.830  1.00  0.00     0.000 A 
HETATM   26  C   UNL     1     -39.472  50.601 -52.477  1.00  0.00     0.001 A 
HETATM   27  C   UNL     1     -39.761  51.769 -51.767  1.00  0.00     0.014 A 
ENDBRANCH   1  22
TORSDOF 3
ENDMDL
MODEL 7
REMARK VINA RESULT:      -7.5      3.230      4.806
REMARK  3 active torsions:
REMARK  status: ('A' for Active; 'I' for Inactive)
REMARK    1  A    between atoms: C_4  and  C_5 
REMARK    2  A    between atoms: C_11  and  C_12 
REMARK    3  A    between atoms: C_21  and  N_22 
ROOT
HETATM    1  C   UNL     1     -43.417  56.533 -52.205  1.00  0.00     0.071 A 
HETATM    2  N   UNL     1     -44.116  55.997 -51.140  1.00  0.00    -0.274 N 
HETATM    3  H   UNL     1     -44.028  55.063 -50.756  1.00  0.00     0.189 HD
HETATM    4  N   UNL     1     -45.058  56.810 -50.626  1.00  0.00    -0.148 NA
HETATM    5  C   UNL     1     -44.925  57.895 -51.375  1.00  0.00     0.199 A 
HETATM    6  C   UNL     1     -43.904  57.822 -52.335  1.00  0.00     0.036 A 
HETATM    7  C   UNL     1     -43.637  58.988 -53.239  1.00  0.00     0.079 C 
HETATM    8  C   UNL     1     -44.882  59.896 -53.233  1.00  0.00     0.063 C 
HETATM    9  C   UNL     1     -45.013  60.864 -54.398  1.00  0.00     0.020 C 
HETATM   10  N   UNL     1     -45.123  61.667 -55.364  1.00  0.00    -0.096 N 
HETATM   11  C   UNL     1     -45.841  59.851 -52.275  1.00  0.00     0.139 C 
HETATM   12  O   UNL     1     -45.795  58.913 -51.238  1.00  0.00    -0.277 OA
ENDROOT
BRANCH   7  13
HETATM   13  C   UNL     1     -42.380  59.858 -52.863  1.00  0.00     0.022 C 
HETATM   14  C   UNL     1     -42.223  60.149 -51.385  1.00  0.00    -0.025 C 
HETATM   15  C   UNL     1     -41.127  59.851 -50.674  1.00  0.00    -0.030 C 
HETATM   16  C   UNL     1     -39.924  59.171 -51.252  1.00  0.00     0.027 C 
HETATM   17  C   UNL     1     -40.201  58.497 -52.593  1.00  0.00     0.004 C 
HETATM   18  C   UNL     1     -41.067  59.350 -53.510  1.00  0.00     0.010 C 
ENDBRANCH   7  13
BRANCH  11  19
HETATM   19  N   UNL     1     -46.947  60.670 -52.213  1.00  0.00    -0.282 NA
HETATM   20  H   UNL     1     -47.084  61.294 -53.003  1.00  0.00     0.126 HD
HETATM   21  H   UNL     1     -47.787  60.148 -51.968  1.00  0.00     0.126 HD
ENDBRANCH  11  19
BRANCH   1  22
HETATM   22  C   UNL     1     -42.446  55.745 -52.953  1.00  0.00    -0.007 A 
HETATM   23  C   UNL     1     -42.354  55.861 -54.345  1.00  0.00     0.014 A 
HETATM   24  C   UNL     1     -41.424  55.103 -55.059  1.00  0.00     0.001 A 
HETATM   25  C   UNL     1     -40.578  54.222 -54.388  1.00  0.00     0.000 A 
HETATM   26  C   UNL     1     -40.663  54.094 -53.005  1.00  0.00     0.001 A 
HETATM   27  C   UNL     1     -41.595  54.850 -52.289  1.00  0.00     0.014 A 
ENDBRANCH   1  22
TORSDOF 3
ENDMDL
MODEL 8
REMARK VINA RESULT:      -7.3      3.089      4.437
REMARK  3 active torsions:
REMARK  status: ('A' for Active; 'I' for Inactive)
REMARK    1  A    between atoms: C_4  and  C_5 
REMARK    2  A    between atoms: C_11  and  C_12 
REMARK    3  A    between atoms: C_21  and  N_22 
ROOT
HETATM    1  C   UNL     1     -42.922  55.431 -52.090  1.00  0.00     0.071 A 
HETATM    2  N   UNL     1     -43.421  54.756 -50.992  1.00  0.00    -0.274 N 
HETATM    3  H   UNL     1     -43.236  53.796 -50.725  1.00  0.00     0.189 HD
HETATM    4  N   UNL     1     -44.300  55.462 -50.257  1.00  0.00    -0.148 NA
HETATM    5  C   UNL     1     -44.331  56.620 -50.900  1.00  0.00     0.199 A 
HETATM    6  C   UNL     1     -43.474  56.698 -52.008  1.00  0.00     0.036 A 
HETATM    7  C   UNL     1     -43.400  57.959 -52.816  1.00  0.00     0.079 C 
HETATM    8  C   UNL     1     -44.662  58.792 -52.523  1.00  0.00     0.063 C 
HETATM    9  C   UNL     1     -45.015  59.860 -53.546  1.00  0.00     0.020 C 
HETATM   10  N   UNL     1     -45.308  60.746 -54.394  1.00  0.00    -0.096 N 
HETATM   11  C   UNL     1     -45.454  58.602 -51.439  1.00  0.00     0.139 C 
HETATM   12  O   UNL     1     -45.208  57.571 -50.525  1.00  0.00    -0.277 OA
ENDROOT
BRANCH   7  13
HETATM   13  C   UNL     1     -42.134  58.856 -52.549  1.00  0.00     0.022 C 
HETATM   14  C   UNL     1     -42.370  60.040 -51.634  1.00  0.00    -0.025 C 
HETATM   15  C   UNL     1     -41.675  60.271 -50.512  1.00  0.00    -0.030 C 
HETATM   16  C   UNL     1     -40.589  59.371 -50.010  1.00  0.00     0.027 C 
HETATM   17  C   UNL     1     -40.608  57.988 -50.654  1.00  0.00     0.004 C 
HETATM   18  C   UNL     1     -40.877  58.042 -52.152  1.00  0.00     0.010 C 
ENDBRANCH   7  13
BRANCH  11  19
HETATM   19  N   UNL     1     -46.568  59.348 -51.122  1.00  0.00    -0.282 NA
HETATM   20  H   UNL     1     -46.591  59.736 -50.184  1.00  0.00     0.126 HD
HETATM   21  H   UNL     1     -46.776  60.036 -51.844  1.00  0.00     0.126 HD
ENDBRANCH  11  19
BRANCH   1  22
HETATM   22  C   UNL     1     -42.051  54.775 -53.057  1.00  0.00    -0.007 A 
HETATM   23  C   UNL     1     -41.230  53.709 -52.670  1.00  0.00     0.014 A 
HETATM   24  C   UNL     1     -40.396  53.084 -53.599  1.00  0.00     0.001 A 
HETATM   25  C   UNL     1     -40.374  53.520 -54.923  1.00  0.00     0.000 A 
HETATM   26  C   UNL     1     -41.182  54.582 -55.319  1.00  0.00     0.001 A 
HETATM   27  C   UNL     1     -42.015  55.210 -54.389  1.00  0.00     0.014 A 
ENDBRANCH   1  22
TORSDOF 3
ENDMDL
MODEL 9
REMARK VINA RESULT:      -7.2      2.673      4.096
REMARK  3 active torsions:
REMARK  status: ('A' for Active; 'I' for Inactive)
REMARK    1  A    between atoms: C_4  and  C_5 
REMARK    2  A    between atoms: C_11  and  C_12 
REMARK    3  A    between atoms: C_21  and  N_22 
ROOT
HETATM    1  C   UNL     1     -43.301  56.305 -54.523  1.00  0.00     0.071 A 
HETATM    2  N   UNL     1     -44.640  56.037 -54.308  1.00  0.00    -0.274 N 
HETATM    3  H   UNL     1     -45.049  55.162 -54.003  1.00  0.00     0.189 HD
HETATM    4  N   UNL     1     -45.467  57.054 -54.615  1.00  0.00    -0.148 NA
HETATM    5  C   UNL     1     -44.618  57.992 -55.008  1.00  0.00     0.199 A 
HETATM    6  C   UNL     1     -43.265  57.627 -54.933  1.00  0.00     0.036 A 
HETATM    7  C   UNL     1     -42.198  58.601 -55.333  1.00  0.00     0.079 C 
HETATM    8  C   UNL     1     -42.847  59.691 -56.207  1.00  0.00     0.063 C 
HETATM    9  C   UNL     1     -41.904  60.502 -57.080  1.00  0.00     0.020 C 
HETATM   10  N   UNL     1     -41.121  61.175 -57.805  1.00  0.00    -0.096 N 
HETATM   11  C   UNL     1     -44.181  59.932 -56.243  1.00  0.00     0.139 C 
HETATM   12  O   UNL     1     -45.086  59.147 -55.519  1.00  0.00    -0.277 OA
ENDROOT
BRANCH   7  13
HETATM   13  C   UNL     1     -41.442  59.298 -54.141  1.00  0.00     0.022 C 
HETATM   14  C   UNL     1     -42.321  60.108 -53.212  1.00  0.00    -0.025 C 
HETATM   15  C   UNL     1     -42.393  59.913 -51.888  1.00  0.00    -0.030 C 
HETATM   16  C   UNL     1     -41.626  58.850 -51.164  1.00  0.00     0.027 C 
HETATM   17  C   UNL     1     -41.073  57.772 -52.091  1.00  0.00     0.004 C 
HETATM   18  C   UNL     1     -40.491  58.344 -53.377  1.00  0.00     0.010 C 
ENDBRANCH   7  13
BRANCH  11  19
HETATM   19  N   UNL     1     -44.796  60.920 -56.981  1.00  0.00    -0.282 NA
HETATM   20  H   UNL     1     -45.291  61.630 -56.448  1.00  0.00     0.126 HD
HETATM   21  H   UNL     1     -44.167  61.312 -57.680  1.00  0.00     0.126 HD
ENDBRANCH  11  19
BRANCH   1  22
HETATM   22  C   UNL     1     -42.282  55.277 -54.355  1.00  0.00    -0.007 A 
HETATM   23  C   UNL     1     -42.303  54.425 -53.245  1.00  0.00     0.014 A 
HETATM   24  C   UNL     1     -41.324  53.442 -53.086  1.00  0.00     0.001 A 
HETATM   25  C   UNL     1     -40.313  53.305 -54.035  1.00  0.00     0.000 A 
HETATM   26  C   UNL     1     -40.277  54.149 -55.141  1.00  0.00     0.001 A 
HETATM   27  C   UNL     1     -41.255  55.134 -55.299  1.00  0.00     0.014 A 
ENDBRANCH   1  22
TORSDOF 3
ENDMDL
MODEL 10
REMARK VINA RESULT:      -7.1      3.227      4.797
REMARK  3 active torsions:
REMARK  status: ('A' for Active; 'I' for Inactive)
REMARK    1  A    between atoms: C_4  and  C_5 
REMARK    2  A    between atoms: C_11  and  C_12 
REMARK    3  A    between atoms: C_21  and  N_22 
ROOT
HETATM    1  C   UNL     1     -42.939  55.465 -56.864  1.00  0.00     0.071 A 
HETATM    2  N   UNL     1     -43.573  54.655 -57.786  1.00  0.00    -0.274 N 
HETATM    3  H   UNL     1     -43.707  53.651 -57.733  1.00  0.00     0.189 HD
HETATM    4  N   UNL     1     -43.985  55.293 -58.897  1.00  0.00    -0.148 NA
HETATM    5  C   UNL     1     -43.620  56.542 -58.650  1.00  0.00     0.199 A 
HETATM    6  C   UNL     1     -43.016  56.739 -57.399  1.00  0.00     0.036 A 
HETATM    7  C   UNL     1     -42.569  58.109 -56.986  1.00  0.00     0.079 C 
HETATM    8  C   UNL     1     -42.450  58.978 -58.252  1.00  0.00     0.063 C 
HETATM    9  C   UNL     1     -41.596  60.230 -58.131  1.00  0.00     0.020 C 
HETATM   10  N   UNL     1     -40.886  61.268 -58.032  1.00  0.00    -0.096 N 
HETATM   11  C   UNL     1     -43.039  58.670 -59.434  1.00  0.00     0.139 C 
HETATM   12  O   UNL     1     -43.760  57.482 -59.604  1.00  0.00    -0.277 OA
ENDROOT
BRANCH   7  13
HETATM   13  C   UNL     1     -43.510  58.844 -55.960  1.00  0.00     0.022 C 
HETATM   14  C   UNL     1     -44.851  58.178 -55.731  1.00  0.00    -0.025 C 
HETATM   15  C   UNL     1     -45.306  57.801 -54.528  1.00  0.00    -0.030 C 
HETATM   16  C   UNL     1     -44.533  57.976 -53.258  1.00  0.00     0.027 C 
HETATM   17  C   UNL     1     -43.049  58.245 -53.490  1.00  0.00     0.004 C 
HETATM   18  C   UNL     1     -42.801  59.218 -54.635  1.00  0.00     0.010 C 
ENDBRANCH   7  13
BRANCH  11  19
HETATM   19  N   UNL     1     -42.989  59.438 -60.577  1.00  0.00    -0.282 NA
HETATM   20  H   UNL     1     -43.343  60.386 -60.491  1.00  0.00     0.126 HD
HETATM   21  H   UNL     1     -42.072  59.393 -61.019  1.00  0.00     0.126 HD
ENDBRANCH  11  19
BRANCH   1  22
HETATM   22  C   UNL     1     -42.327  54.916 -55.660  1.00  0.00    -0.007 A 
HETATM   23  C   UNL     1     -43.098  54.656 -54.522  1.00  0.00     0.014 A 
HETATM   24  C   UNL     1     -42.508  54.132 -53.370  1.00  0.00     0.001 A 
HETATM   25  C   UNL     1     -41.141  53.865 -53.346  1.00  0.00     0.000 A 
HETATM   26  C   UNL     1     -40.361  54.123 -54.470  1.00  0.00     0.001 A 
HETATM   27  C   UNL     1     -40.950  54.650 -55.622  1.00  0.00     0.014 A 
ENDBRANCH   1  22
TORSDOF 3
ENDMDL
