MODEL 1
REMARK VINA RESULT:      -9.2      0.000      0.000
REMARK  6 active torsions:
REMARK  status: ('A' for Active; 'I' for Inactive)
REMARK    1  A    between atoms: N_2  and  C_4 
REMARK    2  A    between atoms: N_2  and  C_23 
REMARK    3  A    between atoms: C_4  and  C_5 
REMARK       I    between atoms: C_5  and  N_6 
REMARK    4  A    between atoms: N_6  and  C_7 
REMARK    5  A    between atoms: C_8  and  O_9 
REMARK    6  A    between atoms: C_23  and  C_24 
ROOT
HETATM    1  C   UNL     1     -42.473  56.108 -56.589  1.00  0.00     0.248 C 
HETATM    2  N   UNL     1     -41.362  56.128 -55.777  1.00  0.00    -0.323 N 
HETATM    3  O   UNL     1     -43.174  55.121 -56.811  1.00  0.00    -0.271 OA
HETATM    4  H   UNL     1     -40.638  56.831 -55.912  1.00  0.00     0.169 HD
ENDROOT
BRANCH   2   5
HETATM    5  C   UNL     1     -40.995  55.117 -54.857  1.00  0.00     0.071 A 
HETATM    6  C   UNL     1     -41.078  55.431 -53.488  1.00  0.00     0.096 A 
HETATM    7  C   UNL     1     -40.834  54.472 -52.492  1.00  0.00     0.054 A 
HETATM    8  C   UNL     1     -40.469  53.172 -52.894  1.00  0.00     0.014 A 
HETATM    9  C   UNL     1     -40.369  52.906 -54.253  1.00  0.00     0.089 A 
HETATM   10  C   UNL     1     -40.158  51.946 -52.233  1.00  0.00     0.011 A 
HETATM   11  O   UNL     1     -40.024  51.607 -54.465  1.00  0.00    -0.309 OA
HETATM   12  C   UNL     1     -40.612  53.835 -55.264  1.00  0.00     0.070 A 
HETATM   13  C   UNL     1     -39.898  51.025 -53.242  1.00  0.00     0.087 A 
HETATM   14  C   UNL     1     -39.559  49.692 -53.019  1.00  0.00     0.038 A 
HETATM   15  C   UNL     1     -39.482  49.283 -51.685  1.00  0.00     0.003 A 
HETATM   16  C   UNL     1     -39.733  50.176 -50.641  1.00  0.00     0.001 A 
HETATM   17  C   UNL     1     -40.073  51.513 -50.896  1.00  0.00     0.015 A 
BRANCH   6  18
HETATM   18  O   UNL     1     -41.439  56.722 -53.164  1.00  0.00    -0.354 OA
HETATM   19  C   UNL     1     -42.638  56.747 -52.383  1.00  0.00     0.210 C 
ENDBRANCH   6  18
ENDBRANCH   2   5
BRANCH   1  20
HETATM   20  C   UNL     1     -42.795  57.447 -57.256  1.00  0.00     0.337 C 
BRANCH  20  21
HETATM   21  N   UNL     1     -41.894  57.777 -58.456  1.00  0.00    -0.063 N 
HETATM   22  C   UNL     1     -41.692  59.254 -58.598  1.00  0.00     0.270 C 
HETATM   23  H   UNL     1     -40.984  57.358 -58.220  1.00  0.00     0.280 HD
BRANCH  21  24
HETATM   24  C   UNL     1     -42.257  57.102 -59.769  1.00  0.00     0.273 C 
BRANCH  24  25
HETATM   25  C   UNL     1     -43.715  56.798 -59.985  1.00  0.00    -0.032 A 
HETATM   26  C   UNL     1     -44.657  57.839 -60.067  1.00  0.00     0.012 A 
HETATM   27  C   UNL     1     -46.004  57.558 -60.300  1.00  0.00     0.043 A 
HETATM   28  C   UNL     1     -46.416  56.240 -60.448  1.00  0.00     0.116 A 
HETATM   29  F   UNL     1     -47.707  55.974 -60.677  1.00  0.00    -0.206 F 
HETATM   30  C   UNL     1     -45.503  55.195 -60.374  1.00  0.00     0.043 A 
HETATM   31  C   UNL     1     -44.153  55.472 -60.149  1.00  0.00     0.012 A 
ENDBRANCH  24  25
ENDBRANCH  21  24
ENDBRANCH  20  21
ENDBRANCH   1  20
TORSDOF 6
ENDMDL
MODEL 2
REMARK VINA RESULT:      -9.0      3.133      8.333
REMARK  6 active torsions:
REMARK  status: ('A' for Active; 'I' for Inactive)
REMARK    1  A    between atoms: N_2  and  C_4 
REMARK    2  A    between atoms: N_2  and  C_23 
REMARK    3  A    between atoms: C_4  and  C_5 
REMARK       I    between atoms: C_5  and  N_6 
REMARK    4  A    between atoms: N_6  and  C_7 
REMARK    5  A    between atoms: C_8  and  O_9 
REMARK    6  A    between atoms: C_23  and  C_24 
ROOT
HETATM    1  C   UNL     1     -42.767  54.900 -51.419  1.00  0.00     0.248 C 
HETATM    2  N   UNL     1     -42.612  56.083 -52.105  1.00  0.00    -0.323 N 
HETATM    3  O   UNL     1     -43.483  53.964 -51.771  1.00  0.00    -0.271 OA
HETATM    4  H   UNL     1     -42.320  56.928 -51.616  1.00  0.00     0.169 HD
ENDROOT
BRANCH   2   5
HETATM    5  C   UNL     1     -43.016  56.322 -53.440  1.00  0.00     0.071 A 
HETATM    6  C   UNL     1     -43.933  57.366 -53.660  1.00  0.00     0.096 A 
HETATM    7  C   UNL     1     -44.322  57.749 -54.953  1.00  0.00     0.054 A 
HETATM    8  C   UNL     1     -43.791  57.039 -56.047  1.00  0.00     0.014 A 
HETATM    9  C   UNL     1     -42.911  55.995 -55.791  1.00  0.00     0.089 A 
HETATM   10  C   UNL     1     -43.910  57.108 -57.467  1.00  0.00     0.011 A 
HETATM   11  O   UNL     1     -42.486  55.429 -56.953  1.00  0.00    -0.309 OA
HETATM   12  C   UNL     1     -42.501  55.596 -54.520  1.00  0.00     0.070 A 
HETATM   13  C   UNL     1     -43.088  56.105 -57.968  1.00  0.00     0.087 A 
HETATM   14  C   UNL     1     -42.912  55.838 -59.324  1.00  0.00     0.038 A 
HETATM   15  C   UNL     1     -43.621  56.648 -60.216  1.00  0.00     0.003 A 
HETATM   16  C   UNL     1     -44.460  57.666 -59.756  1.00  0.00     0.001 A 
HETATM   17  C   UNL     1     -44.616  57.911 -58.383  1.00  0.00     0.015 A 
BRANCH   6  18
HETATM   18  O   UNL     1     -44.414  58.019 -52.545  1.00  0.00    -0.354 OA
HETATM   19  C   UNL     1     -45.106  59.220 -52.903  1.00  0.00     0.210 C 
ENDBRANCH   6  18
ENDBRANCH   2   5
BRANCH   1  20
HETATM   20  C   UNL     1     -41.975  54.817 -50.111  1.00  0.00     0.337 C 
BRANCH  20  21
HETATM   21  N   UNL     1     -41.049  53.595 -50.021  1.00  0.00    -0.063 N 
HETATM   22  C   UNL     1     -40.602  53.351 -48.614  1.00  0.00     0.270 C 
HETATM   23  H   UNL     1     -41.638  52.801 -50.306  1.00  0.00     0.280 HD
BRANCH  21  24
HETATM   24  C   UNL     1     -39.903  53.552 -51.021  1.00  0.00     0.273 C 
BRANCH  24  25
HETATM   25  C   UNL     1     -39.958  52.461 -52.056  1.00  0.00    -0.032 A 
HETATM   26  C   UNL     1     -40.375  52.743 -53.369  1.00  0.00     0.012 A 
HETATM   27  C   UNL     1     -40.394  51.737 -54.337  1.00  0.00     0.043 A 
HETATM   28  C   UNL     1     -40.002  50.449 -53.997  1.00  0.00     0.116 A 
HETATM   29  F   UNL     1     -40.016  49.489 -54.929  1.00  0.00    -0.206 F 
HETATM   30  C   UNL     1     -39.583  50.147 -52.707  1.00  0.00     0.043 A 
HETATM   31  C   UNL     1     -39.555  51.152 -51.738  1.00  0.00     0.012 A 
ENDBRANCH  24  25
ENDBRANCH  21  24
ENDBRANCH  20  21
ENDBRANCH   1  20
TORSDOF 6
ENDMDL
MODEL 3
REMARK VINA RESULT:      -8.9      3.844      5.312
REMARK  6 active torsions:
REMARK  status: ('A' for Active; 'I' for Inactive)
REMARK    1  A    between atoms: N_2  and  C_4 
REMARK    2  A    between atoms: N_2  and  C_23 
REMARK    3  A    between atoms: C_4  and  C_5 
REMARK       I    between atoms: C_5  and  N_6 
REMARK    4  A    between atoms: N_6  and  C_7 
REMARK    5  A    between atoms: C_8  and  O_9 
REMARK    6  A    between atoms: C_23  and  C_24 
ROOT
HETATM    1  C   UNL     1     -41.018  58.106 -50.552  1.00  0.00     0.248 C 
HETATM    2  N   UNL     1     -41.621  56.893 -50.308  1.00  0.00    -0.323 N 
HETATM    3  O   UNL     1     -39.875  58.258 -50.981  1.00  0.00    -0.271 OA
HETATM    4  H   UNL     1     -42.386  56.823 -49.640  1.00  0.00     0.169 HD
ENDROOT
BRANCH   2   5
HETATM    5  C   UNL     1     -41.153  55.635 -50.757  1.00  0.00     0.071 A 
HETATM    6  C   UNL     1     -40.756  54.708 -49.775  1.00  0.00     0.096 A 
HETATM    7  C   UNL     1     -40.371  53.399 -50.106  1.00  0.00     0.054 A 
HETATM    8  C   UNL     1     -40.360  53.030 -51.465  1.00  0.00     0.014 A 
HETATM    9  C   UNL     1     -40.731  53.980 -52.409  1.00  0.00     0.089 A 
HETATM   10  C   UNL     1     -40.059  51.847 -52.202  1.00  0.00     0.011 A 
HETATM   11  O   UNL     1     -40.679  53.458 -53.664  1.00  0.00    -0.309 OA
HETATM   12  C   UNL     1     -41.124  55.284 -52.110  1.00  0.00     0.070 A 
HETATM   13  C   UNL     1     -40.275  52.164 -53.539  1.00  0.00     0.087 A 
HETATM   14  C   UNL     1     -40.101  51.274 -54.596  1.00  0.00     0.038 A 
HETATM   15  C   UNL     1     -39.679  49.984 -54.261  1.00  0.00     0.003 A 
HETATM   16  C   UNL     1     -39.448  49.623 -52.932  1.00  0.00     0.001 A 
HETATM   17  C   UNL     1     -39.634  50.542 -51.887  1.00  0.00     0.015 A 
BRANCH   6  18
HETATM   18  O   UNL     1     -40.788  55.134 -48.464  1.00  0.00    -0.354 OA
HETATM   19  C   UNL     1     -40.364  54.101 -47.570  1.00  0.00     0.210 C 
ENDBRANCH   6  18
ENDBRANCH   2   5
BRANCH   1  20
HETATM   20  C   UNL     1     -41.885  59.323 -50.221  1.00  0.00     0.337 C 
BRANCH  20  21
HETATM   21  N   UNL     1     -42.592  59.934 -51.440  1.00  0.00    -0.063 N 
HETATM   22  C   UNL     1     -42.900  61.383 -51.224  1.00  0.00     0.270 C 
HETATM   23  H   UNL     1     -41.901  59.870 -52.199  1.00  0.00     0.280 HD
BRANCH  21  24
HETATM   24  C   UNL     1     -43.779  59.153 -51.984  1.00  0.00     0.273 C 
BRANCH  24  25
HETATM   25  C   UNL     1     -43.492  58.200 -53.113  1.00  0.00    -0.032 A 
HETATM   26  C   UNL     1     -42.390  58.410 -53.962  1.00  0.00     0.012 A 
HETATM   27  C   UNL     1     -42.106  57.507 -54.989  1.00  0.00     0.043 A 
HETATM   28  C   UNL     1     -42.919  56.397 -55.172  1.00  0.00     0.116 A 
HETATM   29  F   UNL     1     -42.641  55.531 -56.154  1.00  0.00    -0.206 F 
HETATM   30  C   UNL     1     -44.011  56.167 -54.344  1.00  0.00     0.043 A 
HETATM   31  C   UNL     1     -44.294  57.063 -53.312  1.00  0.00     0.012 A 
ENDBRANCH  24  25
ENDBRANCH  21  24
ENDBRANCH  20  21
ENDBRANCH   1  20
TORSDOF 6
ENDMDL
MODEL 4
REMARK VINA RESULT:      -8.8      1.869      2.688
REMARK  6 active torsions:
REMARK  status: ('A' for Active; 'I' for Inactive)
REMARK    1  A    between atoms: N_2  and  C_4 
REMARK    2  A    between atoms: N_2  and  C_23 
REMARK    3  A    between atoms: C_4  and  C_5 
REMARK       I    between atoms: C_5  and  N_6 
REMARK    4  A    between atoms: N_6  and  C_7 
REMARK    5  A    between atoms: C_8  and  O_9 
REMARK    6  A    between atoms: C_23  and  C_24 
ROOT
HETATM    1  C   UNL     1     -41.340  58.891 -54.024  1.00  0.00     0.248 C 
HETATM    2  N   UNL     1     -42.056  57.722 -53.905  1.00  0.00    -0.323 N 
HETATM    3  O   UNL     1     -40.231  59.099 -53.531  1.00  0.00    -0.271 OA
HETATM    4  H   UNL     1     -43.069  57.725 -54.005  1.00  0.00     0.169 HD
ENDROOT
BRANCH   2   5
HETATM    5  C   UNL     1     -41.543  56.484 -53.446  1.00  0.00     0.071 A 
HETATM    6  C   UNL     1     -41.512  56.275 -52.055  1.00  0.00     0.096 A 
HETATM    7  C   UNL     1     -41.118  55.048 -51.500  1.00  0.00     0.054 A 
HETATM    8  C   UNL     1     -40.718  54.019 -52.373  1.00  0.00     0.014 A 
HETATM    9  C   UNL     1     -40.734  54.270 -53.740  1.00  0.00     0.089 A 
HETATM   10  C   UNL     1     -40.273  52.671 -52.231  1.00  0.00     0.011 A 
HETATM   11  O   UNL     1     -40.334  53.172 -54.436  1.00  0.00    -0.309 OA
HETATM   12  C   UNL     1     -41.127  55.475 -54.320  1.00  0.00     0.070 A 
HETATM   13  C   UNL     1     -40.058  52.201 -53.523  1.00  0.00     0.087 A 
HETATM   14  C   UNL     1     -39.621  50.914 -53.828  1.00  0.00     0.038 A 
HETATM   15  C   UNL     1     -39.392  50.061 -52.746  1.00  0.00     0.003 A 
HETATM   16  C   UNL     1     -39.593  50.491 -51.432  1.00  0.00     0.001 A 
HETATM   17  C   UNL     1     -40.034  51.794 -51.155  1.00  0.00     0.015 A 
BRANCH   6  18
HETATM   18  O   UNL     1     -41.916  57.325 -51.257  1.00  0.00    -0.354 OA
HETATM   19  C   UNL     1     -40.880  57.719 -50.351  1.00  0.00     0.210 C 
ENDBRANCH   6  18
ENDBRANCH   2   5
BRANCH   1  20
HETATM   20  C   UNL     1     -42.045  59.988 -54.825  1.00  0.00     0.337 C 
BRANCH  20  21
HETATM   21  N   UNL     1     -42.280  59.629 -56.299  1.00  0.00    -0.063 N 
HETATM   22  C   UNL     1     -41.823  60.726 -57.209  1.00  0.00     0.270 C 
HETATM   23  H   UNL     1     -41.677  58.812 -56.466  1.00  0.00     0.280 HD
BRANCH  21  24
HETATM   24  C   UNL     1     -43.667  59.112 -56.648  1.00  0.00     0.273 C 
BRANCH  24  25
HETATM   25  C   UNL     1     -43.727  57.906 -57.548  1.00  0.00    -0.032 A 
HETATM   26  C   UNL     1     -43.084  56.711 -57.181  1.00  0.00     0.012 A 
HETATM   27  C   UNL     1     -43.167  55.583 -58.000  1.00  0.00     0.043 A 
HETATM   28  C   UNL     1     -43.887  55.647 -59.186  1.00  0.00     0.116 A 
HETATM   29  F   UNL     1     -43.969  54.563 -59.966  1.00  0.00    -0.206 F 
HETATM   30  C   UNL     1     -44.532  56.816 -59.567  1.00  0.00     0.043 A 
HETATM   31  C   UNL     1     -44.458  57.944 -58.747  1.00  0.00     0.012 A 
ENDBRANCH  24  25
ENDBRANCH  21  24
ENDBRANCH  20  21
ENDBRANCH   1  20
TORSDOF 6
ENDMDL
MODEL 5
REMARK VINA RESULT:      -8.7      3.879      6.749
REMARK  6 active torsions:
REMARK  status: ('A' for Active; 'I' for Inactive)
REMARK    1  A    between atoms: N_2  and  C_4 
REMARK    2  A    between atoms: N_2  and  C_23 
REMARK    3  A    between atoms: C_4  and  C_5 
REMARK       I    between atoms: C_5  and  N_6 
REMARK    4  A    between atoms: N_6  and  C_7 
REMARK    5  A    between atoms: C_8  and  O_9 
REMARK    6  A    between atoms: C_23  and  C_24 
ROOT
HETATM    1  C   UNL     1     -45.008  57.969 -51.217  1.00  0.00     0.248 C 
HETATM    2  N   UNL     1     -44.249  57.728 -52.340  1.00  0.00    -0.323 N 
HETATM    3  O   UNL     1     -45.383  57.114 -50.416  1.00  0.00    -0.271 OA
HETATM    4  H   UNL     1     -44.277  58.370 -53.129  1.00  0.00     0.169 HD
ENDROOT
BRANCH   2   5
HETATM    5  C   UNL     1     -43.546  56.531 -52.618  1.00  0.00     0.071 A 
HETATM    6  C   UNL     1     -43.694  55.981 -53.905  1.00  0.00     0.096 A 
HETATM    7  C   UNL     1     -42.965  54.854 -54.316  1.00  0.00     0.054 A 
HETATM    8  C   UNL     1     -42.088  54.253 -53.392  1.00  0.00     0.014 A 
HETATM    9  C   UNL     1     -41.989  54.806 -52.122  1.00  0.00     0.089 A 
HETATM   10  C   UNL     1     -41.189  53.146 -53.406  1.00  0.00     0.011 A 
HETATM   11  O   UNL     1     -41.093  54.116 -51.365  1.00  0.00    -0.309 OA
HETATM   12  C   UNL     1     -42.694  55.928 -51.687  1.00  0.00     0.070 A 
HETATM   13  C   UNL     1     -40.606  53.112 -52.143  1.00  0.00     0.087 A 
HETATM   14  C   UNL     1     -39.654  52.177 -51.742  1.00  0.00     0.038 A 
HETATM   15  C   UNL     1     -39.281  51.222 -52.692  1.00  0.00     0.003 A 
HETATM   16  C   UNL     1     -39.843  51.217 -53.971  1.00  0.00     0.001 A 
HETATM   17  C   UNL     1     -40.799  52.173 -54.346  1.00  0.00     0.015 A 
BRANCH   6  18
HETATM   18  O   UNL     1     -44.569  56.617 -54.759  1.00  0.00    -0.354 OA
HETATM   19  C   UNL     1     -43.880  57.206 -55.867  1.00  0.00     0.210 C 
ENDBRANCH   6  18
ENDBRANCH   2   5
BRANCH   1  20
HETATM   20  C   UNL     1     -45.402  59.435 -51.022  1.00  0.00     0.337 C 
BRANCH  20  21
HETATM   21  N   UNL     1     -44.595  60.157 -49.932  1.00  0.00    -0.063 N 
HETATM   22  C   UNL     1     -45.489  60.915 -49.002  1.00  0.00     0.270 C 
HETATM   23  H   UNL     1     -44.152  59.400 -49.394  1.00  0.00     0.280 HD
BRANCH  21  24
HETATM   24  C   UNL     1     -43.410  60.979 -50.414  1.00  0.00     0.273 C 
BRANCH  24  25
HETATM   25  C   UNL     1     -42.355  60.242 -51.195  1.00  0.00    -0.032 A 
HETATM   26  C   UNL     1     -42.319  60.326 -52.599  1.00  0.00     0.012 A 
HETATM   27  C   UNL     1     -41.320  59.668 -53.320  1.00  0.00     0.043 A 
HETATM   28  C   UNL     1     -40.362  58.923 -52.646  1.00  0.00     0.116 A 
HETATM   29  F   UNL     1     -39.404  58.298 -53.340  1.00  0.00    -0.206 F 
HETATM   30  C   UNL     1     -40.377  58.829 -51.260  1.00  0.00     0.043 A 
HETATM   31  C   UNL     1     -41.368  59.491 -50.533  1.00  0.00     0.012 A 
ENDBRANCH  24  25
ENDBRANCH  21  24
ENDBRANCH  20  21
ENDBRANCH   1  20
TORSDOF 6
ENDMDL
MODEL 6
REMARK VINA RESULT:      -8.6      3.315      9.425
REMARK  6 active torsions:
REMARK  status: ('A' for Active; 'I' for Inactive)
REMARK    1  A    between atoms: N_2  and  C_4 
REMARK    2  A    between atoms: N_2  and  C_23 
REMARK    3  A    between atoms: C_4  and  C_5 
REMARK       I    between atoms: C_5  and  N_6 
REMARK    4  A    between atoms: N_6  and  C_7 
REMARK    5  A    between atoms: C_8  and  O_9 
REMARK    6  A    between atoms: C_23  and  C_24 
ROOT
HETATM    1  C   UNL     1     -42.924  55.414 -55.727  1.00  0.00     0.248 C 
HETATM    2  N   UNL     1     -43.585  56.556 -56.122  1.00  0.00    -0.323 N 
HETATM    3  O   UNL     1     -41.915  54.956 -56.263  1.00  0.00    -0.271 OA
HETATM    4  H   UNL     1     -44.570  56.684 -55.899  1.00  0.00     0.169 HD
ENDROOT
BRANCH   2   5
HETATM    5  C   UNL     1     -43.080  57.534 -57.011  1.00  0.00     0.071 A 
HETATM    6  C   UNL     1     -43.466  57.439 -58.361  1.00  0.00     0.096 A 
HETATM    7  C   UNL     1     -43.104  58.413 -59.305  1.00  0.00     0.054 A 
HETATM    8  C   UNL     1     -42.309  59.493 -58.877  1.00  0.00     0.014 A 
HETATM    9  C   UNL     1     -41.922  59.539 -57.543  1.00  0.00     0.089 A 
HETATM   10  C   UNL     1     -41.751  60.657 -59.484  1.00  0.00     0.011 A 
HETATM   11  O   UNL     1     -41.174  60.649 -57.298  1.00  0.00    -0.309 OA
HETATM   12  C   UNL     1     -42.272  58.592 -56.582  1.00  0.00     0.070 A 
HETATM   13  C   UNL     1     -41.073  61.328 -58.472  1.00  0.00     0.087 A 
HETATM   14  C   UNL     1     -40.389  62.529 -58.647  1.00  0.00     0.038 A 
HETATM   15  C   UNL     1     -40.402  63.071 -59.935  1.00  0.00     0.003 A 
HETATM   16  C   UNL     1     -41.069  62.430 -60.982  1.00  0.00     0.001 A 
HETATM   17  C   UNL     1     -41.751  61.221 -60.774  1.00  0.00     0.015 A 
BRANCH   6  18
HETATM   18  O   UNL     1     -44.244  56.356 -58.713  1.00  0.00    -0.354 OA
HETATM   19  C   UNL     1     -43.537  55.469 -59.586  1.00  0.00     0.210 C 
ENDBRANCH   6  18
ENDBRANCH   2   5
BRANCH   1  20
HETATM   20  C   UNL     1     -43.560  54.693 -54.536  1.00  0.00     0.337 C 
BRANCH  20  21
HETATM   21  N   UNL     1     -42.783  54.858 -53.222  1.00  0.00    -0.063 N 
HETATM   22  C   UNL     1     -43.223  56.079 -52.476  1.00  0.00     0.270 C 
HETATM   23  H   UNL     1     -43.045  54.036 -52.661  1.00  0.00     0.280 HD
BRANCH  21  24
HETATM   24  C   UNL     1     -41.270  54.740 -53.322  1.00  0.00     0.273 C 
BRANCH  24  25
HETATM   25  C   UNL     1     -40.692  53.360 -53.154  1.00  0.00    -0.032 A 
HETATM   26  C   UNL     1     -40.226  52.930 -51.898  1.00  0.00     0.012 A 
HETATM   27  C   UNL     1     -39.721  51.639 -51.737  1.00  0.00     0.043 A 
HETATM   28  C   UNL     1     -39.677  50.776 -52.824  1.00  0.00     0.116 A 
HETATM   29  F   UNL     1     -39.197  49.538 -52.664  1.00  0.00    -0.206 F 
HETATM   30  C   UNL     1     -40.135  51.178 -54.073  1.00  0.00     0.043 A 
HETATM   31  C   UNL     1     -40.648  52.466 -54.238  1.00  0.00     0.012 A 
ENDBRANCH  24  25
ENDBRANCH  21  24
ENDBRANCH  20  21
ENDBRANCH   1  20
TORSDOF 6
ENDMDL
MODEL 7
REMARK VINA RESULT:      -8.4      2.926      4.395
REMARK  6 active torsions:
REMARK  status: ('A' for Active; 'I' for Inactive)
REMARK    1  A    between atoms: N_2  and  C_4 
REMARK    2  A    between atoms: N_2  and  C_23 
REMARK    3  A    between atoms: C_4  and  C_5 
REMARK       I    between atoms: C_5  and  N_6 
REMARK    4  A    between atoms: N_6  and  C_7 
REMARK    5  A    between atoms: C_8  and  O_9 
REMARK    6  A    between atoms: C_23  and  C_24 
ROOT
HETATM    1  C   UNL     1     -41.623  59.360 -53.858  1.00  0.00     0.248 C 
HETATM    2  N   UNL     1     -42.460  58.267 -53.883  1.00  0.00    -0.323 N 
HETATM    3  O   UNL     1     -40.424  59.330 -53.583  1.00  0.00    -0.271 OA
HETATM    4  H   UNL     1     -43.463  58.383 -53.756  1.00  0.00     0.169 HD
ENDROOT
BRANCH   2   5
HETATM    5  C   UNL     1     -42.048  56.912 -53.871  1.00  0.00     0.071 A 
HETATM    6  C   UNL     1     -42.005  56.241 -55.106  1.00  0.00     0.096 A 
HETATM    7  C   UNL     1     -41.516  54.930 -55.219  1.00  0.00     0.054 A 
HETATM    8  C   UNL     1     -41.089  54.274 -54.048  1.00  0.00     0.014 A 
HETATM    9  C   UNL     1     -41.172  54.958 -52.842  1.00  0.00     0.089 A 
HETATM   10  C   UNL     1     -40.537  52.997 -53.734  1.00  0.00     0.011 A 
HETATM   11  O   UNL     1     -40.708  54.189 -51.820  1.00  0.00    -0.309 OA
HETATM   12  C   UNL     1     -41.646  56.262 -52.700  1.00  0.00     0.070 A 
HETATM   13  C   UNL     1     -40.320  53.002 -52.360  1.00  0.00     0.087 A 
HETATM   14  C   UNL     1     -39.778  51.936 -51.646  1.00  0.00     0.038 A 
HETATM   15  C   UNL     1     -39.441  50.799 -52.385  1.00  0.00     0.003 A 
HETATM   16  C   UNL     1     -39.643  50.749 -53.766  1.00  0.00     0.001 A 
HETATM   17  C   UNL     1     -40.190  51.841 -54.459  1.00  0.00     0.015 A 
BRANCH   6  18
HETATM   18  O   UNL     1     -42.439  56.940 -56.213  1.00  0.00    -0.354 OA
HETATM   19  C   UNL     1     -42.983  56.062 -57.203  1.00  0.00     0.210 C 
ENDBRANCH   6  18
ENDBRANCH   2   5
BRANCH   1  20
HETATM   20  C   UNL     1     -42.307  60.689 -54.186  1.00  0.00     0.337 C 
BRANCH  20  21
HETATM   21  N   UNL     1     -42.546  60.913 -55.687  1.00  0.00    -0.063 N 
HETATM   22  C   UNL     1     -44.005  60.893 -56.018  1.00  0.00     0.270 C 
HETATM   23  H   UNL     1     -42.197  61.864 -55.866  1.00  0.00     0.280 HD
BRANCH  21  24
HETATM   24  C   UNL     1     -41.715  60.055 -56.630  1.00  0.00     0.273 C 
BRANCH  24  25
HETATM   25  C   UNL     1     -41.605  60.537 -58.051  1.00  0.00    -0.032 A 
HETATM   26  C   UNL     1     -40.915  61.726 -58.350  1.00  0.00     0.012 A 
HETATM   27  C   UNL     1     -40.786  62.154 -59.673  1.00  0.00     0.043 A 
HETATM   28  C   UNL     1     -41.345  61.402 -60.697  1.00  0.00     0.116 A 
HETATM   29  F   UNL     1     -41.214  61.813 -61.964  1.00  0.00    -0.206 F 
HETATM   30  C   UNL     1     -42.027  60.223 -60.426  1.00  0.00     0.043 A 
HETATM   31  C   UNL     1     -42.153  59.786 -59.106  1.00  0.00     0.012 A 
ENDBRANCH  24  25
ENDBRANCH  21  24
ENDBRANCH  20  21
ENDBRANCH   1  20
TORSDOF 6
ENDMDL
MODEL 8
REMARK VINA RESULT:      -8.3      1.756      2.428
REMARK  6 active torsions:
REMARK  status: ('A' for Active; 'I' for Inactive)
REMARK    1  A    between atoms: N_2  and  C_4 
REMARK    2  A    between atoms: N_2  and  C_23 
REMARK    3  A    between atoms: C_4  and  C_5 
REMARK       I    between atoms: C_5  and  N_6 
REMARK    4  A    between atoms: N_6  and  C_7 
REMARK    5  A    between atoms: C_8  and  O_9 
REMARK    6  A    between atoms: C_23  and  C_24 
ROOT
HETATM    1  C   UNL     1     -42.154  59.085 -55.115  1.00  0.00     0.248 C 
HETATM    2  N   UNL     1     -42.757  57.867 -54.895  1.00  0.00    -0.323 N 
HETATM    3  O   UNL     1     -41.165  59.507 -54.518  1.00  0.00    -0.271 OA
HETATM    4  H   UNL     1     -43.736  57.725 -55.134  1.00  0.00     0.169 HD
ENDROOT
BRANCH   2   5
HETATM    5  C   UNL     1     -42.199  56.792 -54.161  1.00  0.00     0.071 A 
HETATM    6  C   UNL     1     -42.405  56.787 -52.769  1.00  0.00     0.096 A 
HETATM    7  C   UNL     1     -41.982  55.720 -51.962  1.00  0.00     0.054 A 
HETATM    8  C   UNL     1     -41.309  54.646 -52.576  1.00  0.00     0.014 A 
HETATM    9  C   UNL     1     -41.098  54.698 -53.948  1.00  0.00     0.089 A 
HETATM   10  C   UNL     1     -40.745  53.409 -52.142  1.00  0.00     0.011 A 
HETATM   11  O   UNL     1     -40.450  53.582 -54.378  1.00  0.00    -0.309 OA
HETATM   12  C   UNL     1     -41.512  55.741 -54.776  1.00  0.00     0.070 A 
HETATM   13  C   UNL     1     -40.238  52.799 -53.285  1.00  0.00     0.087 A 
HETATM   14  C   UNL     1     -39.606  51.558 -53.298  1.00  0.00     0.038 A 
HETATM   15  C   UNL     1     -39.486  50.907 -52.068  1.00  0.00     0.003 A 
HETATM   16  C   UNL     1     -39.979  51.484 -50.894  1.00  0.00     0.001 A 
HETATM   17  C   UNL     1     -40.612  52.736 -50.913  1.00  0.00     0.015 A 
BRANCH   6  18
HETATM   18  O   UNL     1     -43.071  57.870 -52.232  1.00  0.00    -0.354 OA
HETATM   19  C   UNL     1     -44.343  57.488 -51.701  1.00  0.00     0.210 C 
ENDBRANCH   6  18
ENDBRANCH   2   5
BRANCH   1  20
HETATM   20  C   UNL     1     -42.833  59.943 -56.186  1.00  0.00     0.337 C 
BRANCH  20  21
HETATM   21  N   UNL     1     -42.438  59.573 -57.623  1.00  0.00    -0.063 N 
HETATM   22  C   UNL     1     -41.464  60.556 -58.193  1.00  0.00     0.270 C 
HETATM   23  H   UNL     1     -41.955  58.669 -57.534  1.00  0.00     0.280 HD
BRANCH  21  24
HETATM   24  C   UNL     1     -43.586  59.261 -58.571  1.00  0.00     0.273 C 
BRANCH  24  25
HETATM   25  C   UNL     1     -43.815  57.807 -58.890  1.00  0.00    -0.032 A 
HETATM   26  C   UNL     1     -43.116  56.806 -58.194  1.00  0.00     0.012 A 
HETATM   27  C   UNL     1     -43.354  55.457 -58.467  1.00  0.00     0.043 A 
HETATM   28  C   UNL     1     -44.285  55.106 -59.435  1.00  0.00     0.116 A 
HETATM   29  F   UNL     1     -44.514  53.813 -59.691  1.00  0.00    -0.206 F 
HETATM   30  C   UNL     1     -44.990  56.078 -60.133  1.00  0.00     0.043 A 
HETATM   31  C   UNL     1     -44.761  57.428 -59.858  1.00  0.00     0.012 A 
ENDBRANCH  24  25
ENDBRANCH  21  24
ENDBRANCH  20  21
ENDBRANCH   1  20
TORSDOF 6
ENDMDL
MODEL 9
REMARK VINA RESULT:      -8.3      3.677      5.478
REMARK  6 active torsions:
REMARK  status: ('A' for Active; 'I' for Inactive)
REMARK    1  A    between atoms: N_2  and  C_4 
REMARK    2  A    between atoms: N_2  and  C_23 
REMARK    3  A    between atoms: C_4  and  C_5 
REMARK       I    between atoms: C_5  and  N_6 
REMARK    4  A    between atoms: N_6  and  C_7 
REMARK    5  A    between atoms: C_8  and  O_9 
REMARK    6  A    between atoms: C_23  and  C_24 
ROOT
HETATM    1  C   UNL     1     -42.679  56.613 -55.721  1.00  0.00     0.248 C 
HETATM    2  N   UNL     1     -41.530  56.507 -54.970  1.00  0.00    -0.323 N 
HETATM    3  O   UNL     1     -43.391  55.671 -56.065  1.00  0.00    -0.271 OA
HETATM    4  H   UNL     1     -40.812  57.227 -55.023  1.00  0.00     0.169 HD
ENDROOT
BRANCH   2   5
HETATM    5  C   UNL     1     -41.123  55.364 -54.242  1.00  0.00     0.071 A 
HETATM    6  C   UNL     1     -41.275  55.402 -52.844  1.00  0.00     0.096 A 
HETATM    7  C   UNL     1     -40.996  54.287 -52.038  1.00  0.00     0.054 A 
HETATM    8  C   UNL     1     -40.525  53.115 -52.661  1.00  0.00     0.014 A 
HETATM    9  C   UNL     1     -40.361  53.123 -54.041  1.00  0.00     0.089 A 
HETATM   10  C   UNL     1     -40.149  51.808 -52.232  1.00  0.00     0.011 A 
HETATM   11  O   UNL     1     -39.915  51.914 -54.479  1.00  0.00    -0.309 OA
HETATM   12  C   UNL     1     -40.635  54.212 -54.867  1.00  0.00     0.070 A 
HETATM   13  C   UNL     1     -39.790  51.116 -53.384  1.00  0.00     0.087 A 
HETATM   14  C   UNL     1     -39.363  49.790 -53.403  1.00  0.00     0.038 A 
HETATM   15  C   UNL     1     -39.302  49.137 -52.169  1.00  0.00     0.003 A 
HETATM   16  C   UNL     1     -39.652  49.794 -50.987  1.00  0.00     0.001 A 
HETATM   17  C   UNL     1     -40.079  51.131 -50.999  1.00  0.00     0.015 A 
BRANCH   6  18
HETATM   18  O   UNL     1     -41.738  56.581 -52.298  1.00  0.00    -0.354 OA
HETATM   19  C   UNL     1     -42.956  56.376 -51.574  1.00  0.00     0.210 C 
ENDBRANCH   6  18
ENDBRANCH   2   5
BRANCH   1  20
HETATM   20  C   UNL     1     -43.028  58.040 -56.149  1.00  0.00     0.337 C 
BRANCH  20  21
HETATM   21  N   UNL     1     -43.300  58.992 -54.975  1.00  0.00    -0.063 N 
HETATM   22  C   UNL     1     -44.597  59.720 -55.150  1.00  0.00     0.270 C 
HETATM   23  H   UNL     1     -43.395  58.375 -54.157  1.00  0.00     0.280 HD
BRANCH  21  24
HETATM   24  C   UNL     1     -42.155  59.914 -54.583  1.00  0.00     0.273 C 
BRANCH  24  25
HETATM   25  C   UNL     1     -41.687  59.831 -53.154  1.00  0.00    -0.032 A 
HETATM   26  C   UNL     1     -42.508  60.288 -52.108  1.00  0.00     0.012 A 
HETATM   27  C   UNL     1     -42.087  60.180 -50.781  1.00  0.00     0.043 A 
HETATM   28  C   UNL     1     -40.848  59.621 -50.496  1.00  0.00     0.116 A 
HETATM   29  F   UNL     1     -40.449  59.515 -49.223  1.00  0.00    -0.206 F 
HETATM   30  C   UNL     1     -40.022  59.160 -51.514  1.00  0.00     0.043 A 
HETATM   31  C   UNL     1     -40.442  59.259 -52.841  1.00  0.00     0.012 A 
ENDBRANCH  24  25
ENDBRANCH  21  24
ENDBRANCH  20  21
ENDBRANCH   1  20
TORSDOF 6
ENDMDL
MODEL 10
REMARK VINA RESULT:      -8.3      3.599      8.801
REMARK  6 active torsions:
REMARK  status: ('A' for Active; 'I' for Inactive)
REMARK    1  A    between atoms: N_2  and  C_4 
REMARK    2  A    between atoms: N_2  and  C_23 
REMARK    3  A    between atoms: C_4  and  C_5 
REMARK       I    between atoms: C_5  and  N_6 
REMARK    4  A    between atoms: N_6  and  C_7 
REMARK    5  A    between atoms: C_8  and  O_9 
REMARK    6  A    between atoms: C_23  and  C_24 
ROOT
HETATM    1  C   UNL     1     -43.358  57.368 -52.462  1.00  0.00     0.248 C 
HETATM    2  N   UNL     1     -42.252  57.565 -53.258  1.00  0.00    -0.323 N 
HETATM    3  O   UNL     1     -44.458  57.893 -52.632  1.00  0.00    -0.271 OA
HETATM    4  H   UNL     1     -41.316  57.414 -52.886  1.00  0.00     0.169 HD
ENDROOT
BRANCH   2   5
HETATM    5  C   UNL     1     -42.254  58.169 -54.538  1.00  0.00     0.071 A 
HETATM    6  C   UNL     1     -42.071  59.563 -54.594  1.00  0.00     0.096 A 
HETATM    7  C   UNL     1     -41.957  60.246 -55.815  1.00  0.00     0.054 A 
HETATM    8  C   UNL     1     -42.061  59.503 -57.007  1.00  0.00     0.014 A 
HETATM    9  C   UNL     1     -42.271  58.133 -56.914  1.00  0.00     0.089 A 
HETATM   10  C   UNL     1     -41.994  59.792 -58.402  1.00  0.00     0.011 A 
HETATM   11  O   UNL     1     -42.333  57.570 -58.151  1.00  0.00    -0.309 OA
HETATM   12  C   UNL     1     -42.381  57.426 -55.717  1.00  0.00     0.070 A 
HETATM   13  C   UNL     1     -42.162  58.575 -59.053  1.00  0.00     0.087 A 
HETATM   14  C   UNL     1     -42.153  58.416 -60.437  1.00  0.00     0.038 A 
HETATM   15  C   UNL     1     -41.962  59.574 -61.196  1.00  0.00     0.003 A 
HETATM   16  C   UNL     1     -41.791  60.818 -60.584  1.00  0.00     0.001 A 
HETATM   17  C   UNL     1     -41.804  60.946 -59.186  1.00  0.00     0.015 A 
BRANCH   6  18
HETATM   18  O   UNL     1     -41.978  60.229 -53.390  1.00  0.00    -0.354 OA
HETATM   19  C   UNL     1     -42.908  61.315 -53.323  1.00  0.00     0.210 C 
ENDBRANCH   6  18
ENDBRANCH   2   5
BRANCH   1  20
HETATM   20  C   UNL     1     -43.127  56.428 -51.277  1.00  0.00     0.337 C 
BRANCH  20  21
HETATM   21  N   UNL     1     -42.678  55.016 -51.680  1.00  0.00    -0.063 N 
HETATM   22  C   UNL     1     -43.625  53.975 -51.169  1.00  0.00     0.270 C 
HETATM   23  H   UNL     1     -42.732  55.011 -52.708  1.00  0.00     0.280 HD
BRANCH  21  24
HETATM   24  C   UNL     1     -41.221  54.675 -51.407  1.00  0.00     0.273 C 
BRANCH  24  25
HETATM   25  C   UNL     1     -40.643  53.530 -52.194  1.00  0.00    -0.032 A 
HETATM   26  C   UNL     1     -39.948  52.495 -51.541  1.00  0.00     0.012 A 
HETATM   27  C   UNL     1     -39.440  51.416 -52.268  1.00  0.00     0.043 A 
HETATM   28  C   UNL     1     -39.620  51.369 -53.644  1.00  0.00     0.116 A 
HETATM   29  F   UNL     1     -39.137  50.331 -54.337  1.00  0.00    -0.206 F 
HETATM   30  C   UNL     1     -40.305  52.378 -54.310  1.00  0.00     0.043 A 
HETATM   31  C   UNL     1     -40.822  53.455 -53.586  1.00  0.00     0.012 A 
ENDBRANCH  24  25
ENDBRANCH  21  24
ENDBRANCH  20  21
ENDBRANCH   1  20
TORSDOF 6
ENDMDL
