MODEL 1
REMARK VINA RESULT:      -9.5      0.000      0.000
REMARK  6 active torsions:
REMARK  status: ('A' for Active; 'I' for Inactive)
REMARK    1  A    between atoms: C_6  and  C_8 
REMARK    2  A    between atoms: C_6  and  O_7 
REMARK    3  A    between atoms: C_8  and  N_9 
REMARK       I    between atoms: N_9  and  C_10 
REMARK    4  A    between atoms: C_10  and  C_11 
REMARK       I    between atoms: C_11  and  N_12 
REMARK    5  A    between atoms: N_12  and  C_13 
REMARK       I    between atoms: N_17  and  C_18 
REMARK    6  A    between atoms: C_18  and  C_19 
ROOT
HETATM    1  C   UNL     1     -42.045  59.899 -50.904  1.00  0.00     0.313 C 
HETATM    2  N   UNL     1     -42.558  60.440 -52.064  1.00  0.00    -0.319 N 
HETATM    3  O   UNL     1     -42.264  60.374 -49.795  1.00  0.00    -0.262 OA
HETATM    4  H   UNL     1     -42.795  61.421 -51.984  1.00  0.00     0.169 HD
ENDROOT
BRANCH   1   5
HETATM    5  C   UNL     1     -41.051  58.735 -51.041  1.00  0.00     0.309 C 
HETATM    6  N   UNL     1     -41.410  57.579 -50.383  1.00  0.00    -0.350 N 
HETATM    7  H   UNL     1     -42.324  57.515 -49.946  1.00  0.00     0.163 HD
HETATM    8  O   UNL     1     -40.036  58.875 -51.711  1.00  0.00    -0.262 OA
BRANCH   6   9
HETATM    9  C   UNL     1     -40.625  56.370 -50.545  1.00  0.00     0.161 C 
BRANCH   9  10
HETATM   10  C   UNL     1     -41.306  55.118 -49.951  1.00  0.00     0.078 C 
HETATM   11  C   UNL     1     -40.547  53.819 -50.285  1.00  0.00     0.078 C 
HETATM   12  C   UNL     1     -40.719  53.372 -51.714  1.00  0.00    -0.049 A 
HETATM   13  C   UNL     1     -41.820  53.788 -52.485  1.00  0.00    -0.052 A 
HETATM   14  C   UNL     1     -39.778  52.492 -52.268  1.00  0.00     0.007 A 
HETATM   15  C   UNL     1     -41.933  53.343 -53.811  1.00  0.00     0.007 A 
HETATM   16  C   UNL     1     -42.844  54.761 -51.954  1.00  0.00     0.042 C 
HETATM   17  C   UNL     1     -40.983  52.479 -54.356  1.00  0.00     0.001 A 
HETATM   18  C   UNL     1     -39.908  52.051 -53.583  1.00  0.00     0.001 A 
HETATM   19  C   UNL     1     -42.755  54.986 -50.444  1.00  0.00     0.044 C 
BRANCH  10  20
HETATM   20  O   UNL     1     -41.329  55.286 -48.519  1.00  0.00    -0.388 OA
HETATM   21  H   UNL     1     -40.677  54.674 -48.137  1.00  0.00     0.210 HD
ENDBRANCH  10  20
ENDBRANCH   9  10
ENDBRANCH   6   9
ENDBRANCH   1   5
BRANCH   2  22
HETATM   22  C   UNL     1     -42.632  59.840 -53.329  1.00  0.00     0.035 A 
HETATM   23  C   UNL     1     -42.299  60.523 -54.497  1.00  0.00     0.039 A 
HETATM   24  C   UNL     1     -42.347  59.885 -55.752  1.00  0.00    -0.029 A 
HETATM   25  C   UNL     1     -42.783  58.548 -55.859  1.00  0.00     0.043 A 
HETATM   26  C   UNL     1     -41.941  60.697 -56.953  1.00  0.00     0.042 C 
HETATM   27  N   UNL     1     -42.938  57.944 -57.161  1.00  0.00    -0.313 N 
HETATM   28  C   UNL     1     -43.090  57.874 -54.667  1.00  0.00     0.032 A 
HETATM   29  C   UNL     1     -43.295  56.586 -57.346  1.00  0.00     0.265 C 
HETATM   30  C   UNL     1     -42.687  58.799 -58.330  1.00  0.00     0.133 C 
HETATM   31  O   UNL     1     -43.067  55.712 -56.511  1.00  0.00    -0.267 OA
HETATM   32  C   UNL     1     -41.562  59.790 -58.104  1.00  0.00     0.025 C 
HETATM   33  C   UNL     1     -42.983  58.499 -53.416  1.00  0.00     0.032 A 
BRANCH  29  34
HETATM   34  C   UNL     1     -43.963  56.253 -58.606  1.00  0.00     0.073 A 
HETATM   35  S   UNL     1     -45.466  56.986 -58.978  1.00  0.00    -0.097 SA
HETATM   36  C   UNL     1     -45.580  56.153 -60.467  1.00  0.00     0.050 A 
HETATM   37  C   UNL     1     -44.483  55.354 -60.698  1.00  0.00     0.009 A 
HETATM   38  C   UNL     1     -43.539  55.427 -59.632  1.00  0.00     0.025 A 
ENDBRANCH  29  34
ENDBRANCH   2  22
TORSDOF 6
ENDMDL
MODEL 2
REMARK VINA RESULT:      -9.5      1.994      2.404
REMARK  6 active torsions:
REMARK  status: ('A' for Active; 'I' for Inactive)
REMARK    1  A    between atoms: C_6  and  C_8 
REMARK    2  A    between atoms: C_6  and  O_7 
REMARK    3  A    between atoms: C_8  and  N_9 
REMARK       I    between atoms: N_9  and  C_10 
REMARK    4  A    between atoms: C_10  and  C_11 
REMARK       I    between atoms: C_11  and  N_12 
REMARK    5  A    between atoms: N_12  and  C_13 
REMARK       I    between atoms: N_17  and  C_18 
REMARK    6  A    between atoms: C_18  and  C_19 
ROOT
HETATM    1  C   UNL     1     -42.530  60.668 -51.534  1.00  0.00     0.313 C 
HETATM    2  N   UNL     1     -43.008  61.223 -52.702  1.00  0.00    -0.319 N 
HETATM    3  O   UNL     1     -42.438  61.298 -50.487  1.00  0.00    -0.262 OA
HETATM    4  H   UNL     1     -42.920  62.231 -52.738  1.00  0.00     0.169 HD
ENDROOT
BRANCH   1   5
HETATM    5  C   UNL     1     -41.967  59.239 -51.604  1.00  0.00     0.309 C 
HETATM    6  N   UNL     1     -42.728  58.280 -50.970  1.00  0.00    -0.350 N 
HETATM    7  H   UNL     1     -43.637  58.530 -50.595  1.00  0.00     0.163 HD
HETATM    8  O   UNL     1     -40.923  59.023 -52.204  1.00  0.00    -0.262 OA
BRANCH   6   9
HETATM    9  C   UNL     1     -42.376  56.878 -51.078  1.00  0.00     0.161 C 
BRANCH   9  10
HETATM   10  C   UNL     1     -43.473  56.025 -51.753  1.00  0.00     0.078 C 
HETATM   11  C   UNL     1     -43.051  54.554 -51.932  1.00  0.00     0.078 C 
HETATM   12  C   UNL     1     -42.050  54.346 -53.040  1.00  0.00    -0.049 A 
HETATM   13  C   UNL     1     -41.916  55.273 -54.090  1.00  0.00    -0.052 A 
HETATM   14  C   UNL     1     -41.268  53.182 -53.038  1.00  0.00     0.007 A 
HETATM   15  C   UNL     1     -40.969  55.032 -55.097  1.00  0.00     0.007 A 
HETATM   16  C   UNL     1     -42.705  56.559 -54.126  1.00  0.00     0.042 C 
HETATM   17  C   UNL     1     -40.185  53.877 -55.077  1.00  0.00     0.001 A 
HETATM   18  C   UNL     1     -40.337  52.951 -54.050  1.00  0.00     0.001 A 
HETATM   19  C   UNL     1     -43.860  56.601 -53.124  1.00  0.00     0.044 C 
BRANCH  10  20
HETATM   20  O   UNL     1     -44.634  56.073 -50.899  1.00  0.00    -0.388 OA
HETATM   21  H   UNL     1     -45.021  55.181 -50.873  1.00  0.00     0.210 HD
ENDBRANCH  10  20
ENDBRANCH   9  10
ENDBRANCH   6   9
ENDBRANCH   1   5
BRANCH   2  22
HETATM   22  C   UNL     1     -43.436  60.551 -53.857  1.00  0.00     0.035 A 
HETATM   23  C   UNL     1     -42.574  60.268 -54.914  1.00  0.00     0.039 A 
HETATM   24  C   UNL     1     -43.021  59.560 -56.046  1.00  0.00    -0.029 A 
HETATM   25  C   UNL     1     -44.370  59.163 -56.157  1.00  0.00     0.043 A 
HETATM   26  C   UNL     1     -42.009  59.276 -57.124  1.00  0.00     0.042 C 
HETATM   27  N   UNL     1     -44.840  58.542 -57.372  1.00  0.00    -0.313 N 
HETATM   28  C   UNL     1     -45.213  59.439 -55.069  1.00  0.00     0.032 A 
HETATM   29  C   UNL     1     -46.158  58.047 -57.528  1.00  0.00     0.265 C 
HETATM   30  C   UNL     1     -43.877  58.413 -58.475  1.00  0.00     0.133 C 
HETATM   31  O   UNL     1     -46.854  57.680 -56.581  1.00  0.00    -0.267 OA
HETATM   32  C   UNL     1     -42.468  58.125 -57.994  1.00  0.00     0.025 C 
HETATM   33  C   UNL     1     -44.745  60.093 -53.919  1.00  0.00     0.032 A 
BRANCH  29  34
HETATM   34  C   UNL     1     -46.673  57.984 -58.896  1.00  0.00     0.073 A 
HETATM   35  S   UNL     1     -47.188  59.426 -59.667  1.00  0.00    -0.097 SA
HETATM   36  C   UNL     1     -47.618  58.589 -61.095  1.00  0.00     0.050 A 
HETATM   37  C   UNL     1     -47.347  57.243 -61.006  1.00  0.00     0.009 A 
HETATM   38  C   UNL     1     -46.784  56.895 -59.743  1.00  0.00     0.025 A 
ENDBRANCH  29  34
ENDBRANCH   2  22
TORSDOF 6
ENDMDL
MODEL 3
REMARK VINA RESULT:      -9.4      1.715      2.148
REMARK  6 active torsions:
REMARK  status: ('A' for Active; 'I' for Inactive)
REMARK    1  A    between atoms: C_6  and  C_8 
REMARK    2  A    between atoms: C_6  and  O_7 
REMARK    3  A    between atoms: C_8  and  N_9 
REMARK       I    between atoms: N_9  and  C_10 
REMARK    4  A    between atoms: C_10  and  C_11 
REMARK       I    between atoms: C_11  and  N_12 
REMARK    5  A    between atoms: N_12  and  C_13 
REMARK       I    between atoms: N_17  and  C_18 
REMARK    6  A    between atoms: C_18  and  C_19 
ROOT
HETATM    1  C   UNL     1     -41.936  60.144 -50.923  1.00  0.00     0.313 C 
HETATM    2  N   UNL     1     -42.291  60.822 -52.069  1.00  0.00    -0.319 N 
HETATM    3  O   UNL     1     -41.860  60.686 -49.826  1.00  0.00    -0.262 OA
HETATM    4  H   UNL     1     -42.119  61.819 -52.021  1.00  0.00     0.169 HD
ENDROOT
BRANCH   1   5
HETATM    5  C   UNL     1     -41.489  58.681 -51.071  1.00  0.00     0.309 C 
HETATM    6  N   UNL     1     -42.412  57.744 -50.660  1.00  0.00    -0.350 N 
HETATM    7  H   UNL     1     -43.343  58.043 -50.391  1.00  0.00     0.163 HD
HETATM    8  O   UNL     1     -40.388  58.424 -51.540  1.00  0.00    -0.262 OA
BRANCH   6   9
HETATM    9  C   UNL     1     -42.164  56.331 -50.873  1.00  0.00     0.161 C 
BRANCH   9  10
HETATM   10  C   UNL     1     -43.299  55.623 -51.647  1.00  0.00     0.078 C 
HETATM   11  C   UNL     1     -42.963  54.156 -51.976  1.00  0.00     0.078 C 
HETATM   12  C   UNL     1     -41.958  54.004 -53.089  1.00  0.00    -0.049 A 
HETATM   13  C   UNL     1     -41.749  55.026 -54.034  1.00  0.00    -0.052 A 
HETATM   14  C   UNL     1     -41.248  52.800 -53.202  1.00  0.00     0.007 A 
HETATM   15  C   UNL     1     -40.801  54.834 -55.050  1.00  0.00     0.007 A 
HETATM   16  C   UNL     1     -42.459  56.355 -53.941  1.00  0.00     0.042 C 
HETATM   17  C   UNL     1     -40.090  53.637 -55.144  1.00  0.00     0.001 A 
HETATM   18  C   UNL     1     -40.316  52.620 -54.222  1.00  0.00     0.001 A 
HETATM   19  C   UNL     1     -43.626  56.363 -52.953  1.00  0.00     0.044 C 
BRANCH  10  20
HETATM   20  O   UNL     1     -44.469  55.654 -50.805  1.00  0.00    -0.388 OA
HETATM   21  H   UNL     1     -44.903  56.516 -50.931  1.00  0.00     0.210 HD
ENDBRANCH  10  20
ENDBRANCH   9  10
ENDBRANCH   6   9
ENDBRANCH   1   5
BRANCH   2  22
HETATM   22  C   UNL     1     -42.697  60.277 -53.296  1.00  0.00     0.035 A 
HETATM   23  C   UNL     1     -44.032  60.257 -53.695  1.00  0.00     0.039 A 
HETATM   24  C   UNL     1     -44.408  59.736 -54.949  1.00  0.00    -0.029 A 
HETATM   25  C   UNL     1     -43.443  59.176 -55.811  1.00  0.00     0.043 A 
HETATM   26  C   UNL     1     -45.870  59.784 -55.303  1.00  0.00     0.042 C 
HETATM   27  N   UNL     1     -43.856  58.541 -57.039  1.00  0.00    -0.313 N 
HETATM   28  C   UNL     1     -42.103  59.229 -55.397  1.00  0.00     0.032 A 
HETATM   29  C   UNL     1     -42.941  58.027 -57.991  1.00  0.00     0.265 C 
HETATM   30  C   UNL     1     -45.301  58.458 -57.297  1.00  0.00     0.133 C 
HETATM   31  O   UNL     1     -41.791  58.446 -58.110  1.00  0.00    -0.267 OA
HETATM   32  C   UNL     1     -46.058  59.675 -56.801  1.00  0.00     0.025 C 
HETATM   33  C   UNL     1     -41.730  59.803 -54.173  1.00  0.00     0.032 A 
BRANCH  29  34
HETATM   34  C   UNL     1     -43.433  56.949 -58.851  1.00  0.00     0.073 A 
HETATM   35  S   UNL     1     -44.036  57.329 -60.410  1.00  0.00    -0.097 SA
HETATM   36  C   UNL     1     -44.388  55.690 -60.747  1.00  0.00     0.050 A 
HETATM   37  C   UNL     1     -44.026  54.860 -59.710  1.00  0.00     0.009 A 
HETATM   38  C   UNL     1     -43.457  55.585 -58.622  1.00  0.00     0.025 A 
ENDBRANCH  29  34
ENDBRANCH   2  22
TORSDOF 6
ENDMDL
MODEL 4
REMARK VINA RESULT:      -9.3      4.011      7.303
REMARK  6 active torsions:
REMARK  status: ('A' for Active; 'I' for Inactive)
REMARK    1  A    between atoms: C_6  and  C_8 
REMARK    2  A    between atoms: C_6  and  O_7 
REMARK    3  A    between atoms: C_8  and  N_9 
REMARK       I    between atoms: N_9  and  C_10 
REMARK    4  A    between atoms: C_10  and  C_11 
REMARK       I    between atoms: C_11  and  N_12 
REMARK    5  A    between atoms: N_12  and  C_13 
REMARK       I    between atoms: N_17  and  C_18 
REMARK    6  A    between atoms: C_18  and  C_19 
ROOT
HETATM    1  C   UNL     1     -42.115  59.803 -55.408  1.00  0.00     0.313 C 
HETATM    2  N   UNL     1     -43.147  60.661 -55.091  1.00  0.00    -0.319 N 
HETATM    3  O   UNL     1     -41.684  59.673 -56.548  1.00  0.00    -0.262 OA
HETATM    4  H   UNL     1     -43.749  60.877 -55.875  1.00  0.00     0.169 HD
ENDROOT
BRANCH   1   5
HETATM    5  C   UNL     1     -41.589  58.881 -54.296  1.00  0.00     0.309 C 
HETATM    6  N   UNL     1     -42.260  57.684 -54.164  1.00  0.00    -0.350 N 
HETATM    7  H   UNL     1     -42.970  57.430 -54.843  1.00  0.00     0.163 HD
HETATM    8  O   UNL     1     -40.631  59.228 -53.617  1.00  0.00    -0.262 OA
BRANCH   6   9
HETATM    9  C   UNL     1     -41.778  56.673 -53.243  1.00  0.00     0.161 C 
BRANCH   9  10
HETATM   10  C   UNL     1     -42.848  55.620 -52.879  1.00  0.00     0.078 C 
HETATM   11  C   UNL     1     -42.335  54.584 -51.861  1.00  0.00     0.078 C 
HETATM   12  C   UNL     1     -41.384  53.577 -52.454  1.00  0.00    -0.049 A 
HETATM   13  C   UNL     1     -41.372  53.304 -53.834  1.00  0.00    -0.052 A 
HETATM   14  C   UNL     1     -40.524  52.870 -51.600  1.00  0.00     0.007 A 
HETATM   15  C   UNL     1     -40.467  52.357 -54.336  1.00  0.00     0.007 A 
HETATM   16  C   UNL     1     -42.249  54.058 -54.804  1.00  0.00     0.042 C 
HETATM   17  C   UNL     1     -39.605  51.671 -53.479  1.00  0.00     0.001 A 
HETATM   18  C   UNL     1     -39.636  51.926 -52.111  1.00  0.00     0.001 A 
HETATM   19  C   UNL     1     -43.348  54.880 -54.130  1.00  0.00     0.044 C 
BRANCH  10  20
HETATM   20  O   UNL     1     -43.961  56.330 -52.299  1.00  0.00    -0.388 OA
HETATM   21  H   UNL     1     -44.766  56.063 -52.778  1.00  0.00     0.210 HD
ENDBRANCH  10  20
ENDBRANCH   9  10
ENDBRANCH   6   9
ENDBRANCH   1   5
BRANCH   2  22
HETATM   22  C   UNL     1     -43.522  61.115 -53.818  1.00  0.00     0.035 A 
HETATM   23  C   UNL     1     -43.068  62.324 -53.297  1.00  0.00     0.039 A 
HETATM   24  C   UNL     1     -43.490  62.775 -52.031  1.00  0.00    -0.029 A 
HETATM   25  C   UNL     1     -44.347  61.984 -51.238  1.00  0.00     0.043 A 
HETATM   26  C   UNL     1     -42.966  64.107 -51.565  1.00  0.00     0.042 C 
HETATM   27  N   UNL     1     -44.678  62.403 -49.898  1.00  0.00    -0.313 N 
HETATM   28  C   UNL     1     -44.810  60.782 -51.795  1.00  0.00     0.032 A 
HETATM   29  C   UNL     1     -45.592  61.704 -49.072  1.00  0.00     0.265 C 
HETATM   30  C   UNL     1     -44.035  63.628 -49.400  1.00  0.00     0.133 C 
HETATM   31  O   UNL     1     -46.497  60.999 -49.518  1.00  0.00    -0.267 OA
HETATM   32  C   UNL     1     -43.855  64.678 -50.480  1.00  0.00     0.025 C 
HETATM   33  C   UNL     1     -44.432  60.369 -53.081  1.00  0.00     0.032 A 
BRANCH  29  34
HETATM   34  C   UNL     1     -45.416  61.859 -47.627  1.00  0.00     0.073 A 
HETATM   35  S   UNL     1     -46.213  63.142 -46.817  1.00  0.00    -0.097 SA
HETATM   36  C   UNL     1     -45.555  62.686 -45.306  1.00  0.00     0.050 A 
HETATM   37  C   UNL     1     -44.768  61.561 -45.403  1.00  0.00     0.009 A 
HETATM   38  C   UNL     1     -44.703  61.071 -46.740  1.00  0.00     0.025 A 
ENDBRANCH  29  34
ENDBRANCH   2  22
TORSDOF 6
ENDMDL
MODEL 5
REMARK VINA RESULT:      -8.8      2.718      7.484
REMARK  6 active torsions:
REMARK  status: ('A' for Active; 'I' for Inactive)
REMARK    1  A    between atoms: C_6  and  C_8 
REMARK    2  A    between atoms: C_6  and  O_7 
REMARK    3  A    between atoms: C_8  and  N_9 
REMARK       I    between atoms: N_9  and  C_10 
REMARK    4  A    between atoms: C_10  and  C_11 
REMARK       I    between atoms: C_11  and  N_12 
REMARK    5  A    between atoms: N_12  and  C_13 
REMARK       I    between atoms: N_17  and  C_18 
REMARK    6  A    between atoms: C_18  and  C_19 
ROOT
HETATM    1  C   UNL     1     -42.854  60.773 -53.454  1.00  0.00     0.313 C 
HETATM    2  N   UNL     1     -42.272  59.964 -52.502  1.00  0.00    -0.319 N 
HETATM    3  O   UNL     1     -42.683  61.986 -53.491  1.00  0.00    -0.262 OA
HETATM    4  H   UNL     1     -42.021  60.453 -51.652  1.00  0.00     0.169 HD
ENDROOT
BRANCH   1   5
HETATM    5  C   UNL     1     -43.863  60.126 -54.417  1.00  0.00     0.309 C 
HETATM    6  N   UNL     1     -43.439  60.024 -55.724  1.00  0.00    -0.350 N 
HETATM    7  H   UNL     1     -42.484  60.270 -55.962  1.00  0.00     0.163 HD
HETATM    8  O   UNL     1     -44.944  59.734 -53.997  1.00  0.00    -0.262 OA
BRANCH   6   9
HETATM    9  C   UNL     1     -44.242  59.312 -56.700  1.00  0.00     0.161 C 
BRANCH   9  10
HETATM   10  C   UNL     1     -43.896  59.682 -58.160  1.00  0.00     0.078 C 
HETATM   11  C   UNL     1     -44.864  59.046 -59.176  1.00  0.00     0.078 C 
HETATM   12  C   UNL     1     -44.640  57.570 -59.378  1.00  0.00    -0.049 A 
HETATM   13  C   UNL     1     -43.404  56.968 -59.079  1.00  0.00    -0.052 A 
HETATM   14  C   UNL     1     -45.678  56.792 -59.912  1.00  0.00     0.007 A 
HETATM   15  C   UNL     1     -43.247  55.589 -59.286  1.00  0.00     0.007 A 
HETATM   16  C   UNL     1     -42.263  57.746 -58.470  1.00  0.00     0.042 C 
HETATM   17  C   UNL     1     -44.292  54.823 -59.804  1.00  0.00     0.001 A 
HETATM   18  C   UNL     1     -45.506  55.425 -60.120  1.00  0.00     0.001 A 
HETATM   19  C   UNL     1     -42.460  59.262 -58.513  1.00  0.00     0.044 C 
BRANCH  10  20
HETATM   20  O   UNL     1     -43.986  61.117 -58.267  1.00  0.00    -0.388 OA
HETATM   21  H   UNL     1     -44.919  61.345 -58.425  1.00  0.00     0.210 HD
ENDBRANCH  10  20
ENDBRANCH   9  10
ENDBRANCH   6   9
ENDBRANCH   1   5
BRANCH   2  22
HETATM   22  C   UNL     1     -42.145  58.567 -52.526  1.00  0.00     0.035 A 
HETATM   23  C   UNL     1     -42.898  57.738 -51.698  1.00  0.00     0.039 A 
HETATM   24  C   UNL     1     -42.778  56.336 -51.769  1.00  0.00    -0.029 A 
HETATM   25  C   UNL     1     -41.851  55.740 -52.650  1.00  0.00     0.043 A 
HETATM   26  C   UNL     1     -43.654  55.523 -50.854  1.00  0.00     0.042 C 
HETATM   27  N   UNL     1     -41.655  54.311 -52.629  1.00  0.00    -0.313 N 
HETATM   28  C   UNL     1     -41.121  56.595 -53.490  1.00  0.00     0.032 A 
HETATM   29  C   UNL     1     -40.802  53.633 -53.535  1.00  0.00     0.265 C 
HETATM   30  C   UNL     1     -42.405  53.546 -51.622  1.00  0.00     0.133 C 
HETATM   31  O   UNL     1     -40.524  54.071 -54.650  1.00  0.00    -0.267 OA
HETATM   32  C   UNL     1     -43.792  54.106 -51.371  1.00  0.00     0.025 C 
HETATM   33  C   UNL     1     -41.290  57.987 -53.455  1.00  0.00     0.032 A 
BRANCH  29  34
HETATM   34  C   UNL     1     -40.251  52.356 -53.080  1.00  0.00     0.073 A 
HETATM   35  S   UNL     1     -40.295  51.001 -54.129  1.00  0.00    -0.097 SA
HETATM   36  C   UNL     1     -39.542  49.995 -52.970  1.00  0.00     0.050 A 
HETATM   37  C   UNL     1     -39.231  50.677 -51.816  1.00  0.00     0.009 A 
HETATM   38  C   UNL     1     -39.623  52.046 -51.886  1.00  0.00     0.025 A 
ENDBRANCH  29  34
ENDBRANCH   2  22
TORSDOF 6
ENDMDL
MODEL 6
REMARK VINA RESULT:      -8.7      3.005      6.832
REMARK  6 active torsions:
REMARK  status: ('A' for Active; 'I' for Inactive)
REMARK    1  A    between atoms: C_6  and  C_8 
REMARK    2  A    between atoms: C_6  and  O_7 
REMARK    3  A    between atoms: C_8  and  N_9 
REMARK       I    between atoms: N_9  and  C_10 
REMARK    4  A    between atoms: C_10  and  C_11 
REMARK       I    between atoms: C_11  and  N_12 
REMARK    5  A    between atoms: N_12  and  C_13 
REMARK       I    between atoms: N_17  and  C_18 
REMARK    6  A    between atoms: C_18  and  C_19 
ROOT
HETATM    1  C   UNL     1     -45.724  61.970 -54.470  1.00  0.00     0.313 C 
HETATM    2  N   UNL     1     -45.574  61.347 -53.249  1.00  0.00    -0.319 N 
HETATM    3  O   UNL     1     -46.247  63.072 -54.594  1.00  0.00    -0.262 OA
HETATM    4  H   UNL     1     -46.232  61.664 -52.548  1.00  0.00     0.169 HD
ENDROOT
BRANCH   1   5
HETATM    5  C   UNL     1     -45.337  61.176 -55.727  1.00  0.00     0.309 C 
HETATM    6  N   UNL     1     -44.146  61.550 -56.311  1.00  0.00    -0.350 N 
HETATM    7  H   UNL     1     -43.553  62.230 -55.847  1.00  0.00     0.163 HD
HETATM    8  O   UNL     1     -46.064  60.276 -56.128  1.00  0.00    -0.262 OA
BRANCH   6   9
HETATM    9  C   UNL     1     -43.606  60.790 -57.422  1.00  0.00     0.161 C 
BRANCH   9  10
HETATM   10  C   UNL     1     -42.159  60.306 -57.181  1.00  0.00     0.078 C 
HETATM   11  C   UNL     1     -41.597  59.507 -58.372  1.00  0.00     0.078 C 
HETATM   12  C   UNL     1     -42.164  58.115 -58.485  1.00  0.00    -0.049 A 
HETATM   13  C   UNL     1     -42.727  57.461 -57.373  1.00  0.00    -0.052 A 
HETATM   14  C   UNL     1     -42.090  57.449 -59.717  1.00  0.00     0.007 A 
HETATM   15  C   UNL     1     -43.241  56.165 -57.532  1.00  0.00     0.007 A 
HETATM   16  C   UNL     1     -42.866  58.141 -56.033  1.00  0.00     0.042 C 
HETATM   17  C   UNL     1     -43.175  55.518 -58.766  1.00  0.00     0.001 A 
HETATM   18  C   UNL     1     -42.597  56.159 -59.857  1.00  0.00     0.001 A 
HETATM   19  C   UNL     1     -42.067  59.439 -55.915  1.00  0.00     0.044 C 
BRANCH  10  20
HETATM   20  O   UNL     1     -41.345  61.480 -56.984  1.00  0.00    -0.388 OA
HETATM   21  H   UNL     1     -41.813  62.065 -56.363  1.00  0.00     0.210 HD
ENDBRANCH  10  20
ENDBRANCH   9  10
ENDBRANCH   6   9
ENDBRANCH   1   5
BRANCH   2  22
HETATM   22  C   UNL     1     -44.748  60.256 -52.941  1.00  0.00     0.035 A 
HETATM   23  C   UNL     1     -43.403  60.412 -52.613  1.00  0.00     0.039 A 
HETATM   24  C   UNL     1     -42.604  59.303 -52.271  1.00  0.00    -0.029 A 
HETATM   25  C   UNL     1     -43.140  57.999 -52.301  1.00  0.00     0.043 A 
HETATM   26  C   UNL     1     -41.170  59.575 -51.904  1.00  0.00     0.042 C 
HETATM   27  N   UNL     1     -42.282  56.863 -52.062  1.00  0.00    -0.313 N 
HETATM   28  C   UNL     1     -44.503  57.870 -52.611  1.00  0.00     0.032 A 
HETATM   29  C   UNL     1     -42.761  55.531 -52.000  1.00  0.00     0.265 C 
HETATM   30  C   UNL     1     -40.851  57.135 -51.860  1.00  0.00     0.133 C 
HETATM   31  O   UNL     1     -43.917  55.247 -51.687  1.00  0.00    -0.267 OA
HETATM   32  C   UNL     1     -40.599  58.424 -51.103  1.00  0.00     0.025 C 
HETATM   33  C   UNL     1     -45.305  58.985 -52.893  1.00  0.00     0.032 A 
BRANCH  29  34
HETATM   34  C   UNL     1     -41.800  54.477 -52.327  1.00  0.00     0.073 A 
HETATM   35  S   UNL     1     -41.066  53.586 -51.060  1.00  0.00    -0.097 SA
HETATM   36  C   UNL     1     -40.156  52.644 -52.158  1.00  0.00     0.050 A 
HETATM   37  C   UNL     1     -40.423  52.974 -53.467  1.00  0.00     0.009 A 
HETATM   38  C   UNL     1     -41.387  54.019 -53.566  1.00  0.00     0.025 A 
ENDBRANCH  29  34
ENDBRANCH   2  22
TORSDOF 6
ENDMDL
MODEL 7
REMARK VINA RESULT:      -8.6      3.166      8.262
REMARK  6 active torsions:
REMARK  status: ('A' for Active; 'I' for Inactive)
REMARK    1  A    between atoms: C_6  and  C_8 
REMARK    2  A    between atoms: C_6  and  O_7 
REMARK    3  A    between atoms: C_8  and  N_9 
REMARK       I    between atoms: N_9  and  C_10 
REMARK    4  A    between atoms: C_10  and  C_11 
REMARK       I    between atoms: C_11  and  N_12 
REMARK    5  A    between atoms: N_12  and  C_13 
REMARK       I    between atoms: N_17  and  C_18 
REMARK    6  A    between atoms: C_18  and  C_19 
ROOT
HETATM    1  C   UNL     1     -41.798  54.228 -53.753  1.00  0.00     0.313 C 
HETATM    2  N   UNL     1     -41.341  55.201 -52.890  1.00  0.00    -0.319 N 
HETATM    3  O   UNL     1     -41.288  53.116 -53.833  1.00  0.00    -0.262 OA
HETATM    4  H   UNL     1     -40.373  55.081 -52.619  1.00  0.00     0.169 HD
ENDROOT
BRANCH   1   5
HETATM    5  C   UNL     1     -42.906  54.619 -54.744  1.00  0.00     0.309 C 
HETATM    6  N   UNL     1     -42.463  55.156 -55.934  1.00  0.00    -0.350 N 
HETATM    7  H   UNL     1     -41.469  55.169 -56.137  1.00  0.00     0.163 HD
HETATM    8  O   UNL     1     -44.080  54.433 -54.452  1.00  0.00    -0.262 OA
BRANCH   6   9
HETATM    9  C   UNL     1     -43.402  55.440 -57.002  1.00  0.00     0.161 C 
BRANCH   9  10
HETATM   10  C   UNL     1     -42.954  56.605 -57.912  1.00  0.00     0.078 C 
HETATM   11  C   UNL     1     -44.066  57.650 -58.123  1.00  0.00     0.078 C 
HETATM   12  C   UNL     1     -45.155  57.190 -59.057  1.00  0.00    -0.049 A 
HETATM   13  C   UNL     1     -44.930  56.171 -60.001  1.00  0.00    -0.052 A 
HETATM   14  C   UNL     1     -46.405  57.824 -59.007  1.00  0.00     0.007 A 
HETATM   15  C   UNL     1     -45.978  55.780 -60.848  1.00  0.00     0.007 A 
HETATM   16  C   UNL     1     -43.617  55.430 -60.077  1.00  0.00     0.042 C 
HETATM   17  C   UNL     1     -47.222  56.408 -60.779  1.00  0.00     0.001 A 
HETATM   18  C   UNL     1     -47.434  57.432 -59.861  1.00  0.00     0.001 A 
HETATM   19  C   UNL     1     -42.489  56.092 -59.284  1.00  0.00     0.044 C 
BRANCH  10  20
HETATM   20  O   UNL     1     -41.834  57.243 -57.265  1.00  0.00    -0.388 OA
HETATM   21  H   UNL     1     -41.065  57.162 -57.855  1.00  0.00     0.210 HD
ENDBRANCH  10  20
ENDBRANCH   9  10
ENDBRANCH   6   9
ENDBRANCH   1   5
BRANCH   2  22
HETATM   22  C   UNL     1     -42.001  56.374 -52.494  1.00  0.00     0.035 A 
HETATM   23  C   UNL     1     -41.650  57.627 -52.989  1.00  0.00     0.039 A 
HETATM   24  C   UNL     1     -42.354  58.785 -52.604  1.00  0.00    -0.029 A 
HETATM   25  C   UNL     1     -43.403  58.706 -51.664  1.00  0.00     0.043 A 
HETATM   26  C   UNL     1     -41.919  60.090 -53.214  1.00  0.00     0.042 C 
HETATM   27  N   UNL     1     -44.038  59.912 -51.191  1.00  0.00    -0.313 N 
HETATM   28  C   UNL     1     -43.754  57.429 -51.198  1.00  0.00     0.032 A 
HETATM   29  C   UNL     1     -45.147  59.908 -50.309  1.00  0.00     0.265 C 
HETATM   30  C   UNL     1     -43.498  61.189 -51.679  1.00  0.00     0.133 C 
HETATM   31  O   UNL     1     -45.937  58.968 -50.228  1.00  0.00    -0.267 OA
HETATM   32  C   UNL     1     -43.028  61.117 -53.119  1.00  0.00     0.025 C 
HETATM   33  C   UNL     1     -43.086  56.274 -51.633  1.00  0.00     0.032 A 
BRANCH  29  34
HETATM   34  C   UNL     1     -45.324  61.100 -49.478  1.00  0.00     0.073 A 
HETATM   35  S   UNL     1     -46.446  62.302 -49.962  1.00  0.00    -0.097 SA
HETATM   36  C   UNL     1     -46.091  63.276 -48.602  1.00  0.00     0.050 A 
HETATM   37  C   UNL     1     -45.161  62.689 -47.774  1.00  0.00     0.009 A 
HETATM   38  C   UNL     1     -44.731  61.423 -48.270  1.00  0.00     0.025 A 
ENDBRANCH  29  34
ENDBRANCH   2  22
TORSDOF 6
ENDMDL
MODEL 8
REMARK VINA RESULT:      -8.5      3.307      9.565
REMARK  6 active torsions:
REMARK  status: ('A' for Active; 'I' for Inactive)
REMARK    1  A    between atoms: C_6  and  C_8 
REMARK    2  A    between atoms: C_6  and  O_7 
REMARK    3  A    between atoms: C_8  and  N_9 
REMARK       I    between atoms: N_9  and  C_10 
REMARK    4  A    between atoms: C_10  and  C_11 
REMARK       I    between atoms: C_11  and  N_12 
REMARK    5  A    between atoms: N_12  and  C_13 
REMARK       I    between atoms: N_17  and  C_18 
REMARK    6  A    between atoms: C_18  and  C_19 
ROOT
HETATM    1  C   UNL     1     -43.919  55.633 -59.985  1.00  0.00     0.313 C 
HETATM    2  N   UNL     1     -43.897  55.091 -58.718  1.00  0.00    -0.319 N 
HETATM    3  O   UNL     1     -44.657  55.220 -60.873  1.00  0.00    -0.262 OA
HETATM    4  H   UNL     1     -44.230  54.136 -58.679  1.00  0.00     0.169 HD
ENDROOT
BRANCH   1   5
HETATM    5  C   UNL     1     -42.872  56.708 -60.318  1.00  0.00     0.309 C 
HETATM    6  N   UNL     1     -43.383  57.962 -60.574  1.00  0.00    -0.350 N 
HETATM    7  H   UNL     1     -44.373  58.138 -60.433  1.00  0.00     0.163 HD
HETATM    8  O   UNL     1     -41.682  56.419 -60.327  1.00  0.00    -0.262 OA
BRANCH   6   9
HETATM    9  C   UNL     1     -42.492  59.090 -60.768  1.00  0.00     0.161 C 
BRANCH   9  10
HETATM   10  C   UNL     1     -43.237  60.417 -61.032  1.00  0.00     0.078 C 
HETATM   11  C   UNL     1     -42.385  61.425 -61.825  1.00  0.00     0.078 C 
HETATM   12  C   UNL     1     -41.296  62.069 -61.005  1.00  0.00    -0.049 A 
HETATM   13  C   UNL     1     -41.375  62.132 -59.601  1.00  0.00    -0.052 A 
HETATM   14  C   UNL     1     -40.204  62.652 -61.664  1.00  0.00     0.007 A 
HETATM   15  C   UNL     1     -40.335  62.742 -58.885  1.00  0.00     0.007 A 
HETATM   16  C   UNL     1     -42.508  61.491 -58.837  1.00  0.00     0.042 C 
HETATM   17  C   UNL     1     -39.246  63.306 -59.550  1.00  0.00     0.001 A 
HETATM   18  C   UNL     1     -39.182  63.263 -60.940  1.00  0.00     0.001 A 
HETATM   19  C   UNL     1     -43.687  61.073 -59.716  1.00  0.00     0.044 C 
BRANCH  10  20
HETATM   20  O   UNL     1     -44.414  60.097 -61.802  1.00  0.00    -0.388 OA
HETATM   21  H   UNL     1     -45.178  60.122 -61.200  1.00  0.00     0.210 HD
ENDBRANCH  10  20
ENDBRANCH   9  10
ENDBRANCH   6   9
ENDBRANCH   1   5
BRANCH   2  22
HETATM   22  C   UNL     1     -43.337  55.648 -57.558  1.00  0.00     0.035 A 
HETATM   23  C   UNL     1     -42.853  54.861 -56.516  1.00  0.00     0.039 A 
HETATM   24  C   UNL     1     -42.261  55.444 -55.379  1.00  0.00    -0.029 A 
HETATM   25  C   UNL     1     -42.190  56.847 -55.248  1.00  0.00     0.043 A 
HETATM   26  C   UNL     1     -41.743  54.511 -54.317  1.00  0.00     0.042 C 
HETATM   27  N   UNL     1     -41.688  57.431 -54.028  1.00  0.00    -0.313 N 
HETATM   28  C   UNL     1     -42.662  57.617 -56.322  1.00  0.00     0.032 A 
HETATM   29  C   UNL     1     -41.514  58.826 -53.853  1.00  0.00     0.265 C 
HETATM   30  C   UNL     1     -41.331  56.509 -52.940  1.00  0.00     0.133 C 
HETATM   31  O   UNL     1     -41.326  59.602 -54.789  1.00  0.00    -0.267 OA
HETATM   32  C   UNL     1     -40.725  55.213 -53.443  1.00  0.00     0.025 C 
HETATM   33  C   UNL     1     -43.196  57.027 -57.477  1.00  0.00     0.032 A 
BRANCH  29  34
HETATM   34  C   UNL     1     -41.564  59.322 -52.476  1.00  0.00     0.073 A 
HETATM   35  S   UNL     1     -43.037  59.948 -51.863  1.00  0.00    -0.097 SA
HETATM   36  C   UNL     1     -42.335  60.293 -50.343  1.00  0.00     0.050 A 
HETATM   37  C   UNL     1     -41.013  59.912 -50.285  1.00  0.00     0.009 A 
HETATM   38  C   UNL     1     -40.573  59.334 -51.511  1.00  0.00     0.025 A 
ENDBRANCH  29  34
ENDBRANCH   2  22
TORSDOF 6
ENDMDL
MODEL 9
REMARK VINA RESULT:      -8.5      3.239      9.401
REMARK  6 active torsions:
REMARK  status: ('A' for Active; 'I' for Inactive)
REMARK    1  A    between atoms: C_6  and  C_8 
REMARK    2  A    between atoms: C_6  and  O_7 
REMARK    3  A    between atoms: C_8  and  N_9 
REMARK       I    between atoms: N_9  and  C_10 
REMARK    4  A    between atoms: C_10  and  C_11 
REMARK       I    between atoms: C_11  and  N_12 
REMARK    5  A    between atoms: N_12  and  C_13 
REMARK       I    between atoms: N_17  and  C_18 
REMARK    6  A    between atoms: C_18  and  C_19 
ROOT
HETATM    1  C   UNL     1     -44.477  55.659 -60.491  1.00  0.00     0.313 C 
HETATM    2  N   UNL     1     -43.322  55.547 -59.747  1.00  0.00    -0.319 N 
HETATM    3  O   UNL     1     -44.698  54.973 -61.483  1.00  0.00    -0.262 OA
HETATM    4  H   UNL     1     -42.543  55.158 -60.262  1.00  0.00     0.169 HD
ENDROOT
BRANCH   1   5
HETATM    5  C   UNL     1     -45.451  56.791 -60.127  1.00  0.00     0.309 C 
HETATM    6  N   UNL     1     -45.165  58.014 -60.694  1.00  0.00    -0.350 N 
HETATM    7  H   UNL     1     -44.420  58.085 -61.380  1.00  0.00     0.163 HD
HETATM    8  O   UNL     1     -46.405  56.563 -59.395  1.00  0.00    -0.262 OA
BRANCH   6   9
HETATM    9  C   UNL     1     -46.082  59.126 -60.537  1.00  0.00     0.161 C 
BRANCH   9  10
HETATM   10  C   UNL     1     -45.645  60.389 -61.311  1.00  0.00     0.078 C 
HETATM   11  C   UNL     1     -44.114  60.518 -61.416  1.00  0.00     0.078 C 
HETATM   12  C   UNL     1     -43.456  60.942 -60.129  1.00  0.00    -0.049 A 
HETATM   13  C   UNL     1     -44.173  61.622 -59.128  1.00  0.00    -0.052 A 
HETATM   14  C   UNL     1     -42.088  60.686 -59.948  1.00  0.00     0.007 A 
HETATM   15  C   UNL     1     -43.513  61.995 -57.947  1.00  0.00     0.007 A 
HETATM   16  C   UNL     1     -45.653  61.894 -59.252  1.00  0.00     0.042 C 
HETATM   17  C   UNL     1     -42.156  61.721 -57.772  1.00  0.00     0.001 A 
HETATM   18  C   UNL     1     -41.444  61.070 -58.774  1.00  0.00     0.001 A 
HETATM   19  C   UNL     1     -46.206  61.663 -60.658  1.00  0.00     0.044 C 
BRANCH  10  20
HETATM   20  O   UNL     1     -46.195  60.284 -62.640  1.00  0.00    -0.388 OA
HETATM   21  H   UNL     1     -45.457  60.121 -63.254  1.00  0.00     0.210 HD
ENDBRANCH  10  20
ENDBRANCH   9  10
ENDBRANCH   6   9
ENDBRANCH   1   5
BRANCH   2  22
HETATM   22  C   UNL     1     -43.084  56.043 -58.456  1.00  0.00     0.035 A 
HETATM   23  C   UNL     1     -43.142  55.232 -57.326  1.00  0.00     0.039 A 
HETATM   24  C   UNL     1     -42.862  55.747 -56.045  1.00  0.00    -0.029 A 
HETATM   25  C   UNL     1     -42.563  57.115 -55.873  1.00  0.00     0.043 A 
HETATM   26  C   UNL     1     -42.923  54.787 -54.888  1.00  0.00     0.042 C 
HETATM   27  N   UNL     1     -42.393  57.653 -54.545  1.00  0.00    -0.313 N 
HETATM   28  C   UNL     1     -42.487  57.907 -57.030  1.00  0.00     0.032 A 
HETATM   29  C   UNL     1     -42.016  58.996 -54.297  1.00  0.00     0.265 C 
HETATM   30  C   UNL     1     -42.610  56.735 -53.417  1.00  0.00     0.133 C 
HETATM   31  O   UNL     1     -41.377  59.673 -55.101  1.00  0.00    -0.267 OA
HETATM   32  C   UNL     1     -42.139  55.324 -53.709  1.00  0.00     0.025 C 
HETATM   33  C   UNL     1     -42.709  57.372 -58.307  1.00  0.00     0.032 A 
BRANCH  29  34
HETATM   34  C   UNL     1     -42.425  59.560 -53.010  1.00  0.00     0.073 A 
HETATM   35  S   UNL     1     -44.058  60.030 -52.779  1.00  0.00    -0.097 SA
HETATM   36  C   UNL     1     -43.753  60.549 -51.179  1.00  0.00     0.050 A 
HETATM   37  C   UNL     1     -42.443  60.342 -50.809  1.00  0.00     0.009 A 
HETATM   38  C   UNL     1     -41.680  59.753 -51.859  1.00  0.00     0.025 A 
ENDBRANCH  29  34
ENDBRANCH   2  22
TORSDOF 6
ENDMDL
MODEL 10
REMARK VINA RESULT:      -8.4      2.379      3.280
REMARK  6 active torsions:
REMARK  status: ('A' for Active; 'I' for Inactive)
REMARK    1  A    between atoms: C_6  and  C_8 
REMARK    2  A    between atoms: C_6  and  O_7 
REMARK    3  A    between atoms: C_8  and  N_9 
REMARK       I    between atoms: N_9  and  C_10 
REMARK    4  A    between atoms: C_10  and  C_11 
REMARK       I    between atoms: C_11  and  N_12 
REMARK    5  A    between atoms: N_12  and  C_13 
REMARK       I    between atoms: N_17  and  C_18 
REMARK    6  A    between atoms: C_18  and  C_19 
ROOT
HETATM    1  C   UNL     1     -42.375  59.938 -52.782  1.00  0.00     0.313 C 
HETATM    2  N   UNL     1     -43.084  60.691 -53.692  1.00  0.00    -0.319 N 
HETATM    3  O   UNL     1     -42.185  60.297 -51.625  1.00  0.00    -0.262 OA
HETATM    4  H   UNL     1     -43.107  61.679 -53.471  1.00  0.00     0.169 HD
ENDROOT
BRANCH   1   5
HETATM    5  C   UNL     1     -41.686  58.663 -53.296  1.00  0.00     0.309 C 
HETATM    6  N   UNL     1     -42.477  57.534 -53.300  1.00  0.00    -0.350 N 
HETATM    7  H   UNL     1     -43.463  57.612 -53.076  1.00  0.00     0.163 HD
HETATM    8  O   UNL     1     -40.524  58.708 -53.675  1.00  0.00    -0.262 OA
BRANCH   6   9
HETATM    9  C   UNL     1     -41.987  56.301 -53.887  1.00  0.00     0.161 C 
BRANCH   9  10
HETATM   10  C   UNL     1     -42.991  55.132 -53.772  1.00  0.00     0.078 C 
HETATM   11  C   UNL     1     -42.906  54.412 -52.413  1.00  0.00     0.078 C 
HETATM   12  C   UNL     1     -41.691  53.531 -52.274  1.00  0.00    -0.049 A 
HETATM   13  C   UNL     1     -41.012  53.034 -53.402  1.00  0.00    -0.052 A 
HETATM   14  C   UNL     1     -41.257  53.170 -50.990  1.00  0.00     0.007 A 
HETATM   15  C   UNL     1     -39.886  52.217 -53.217  1.00  0.00     0.007 A 
HETATM   16  C   UNL     1     -41.412  53.416 -54.806  1.00  0.00     0.042 C 
HETATM   17  C   UNL     1     -39.455  51.877 -51.935  1.00  0.00     0.001 A 
HETATM   18  C   UNL     1     -40.142  52.351 -50.822  1.00  0.00     0.001 A 
HETATM   19  C   UNL     1     -42.775  54.103 -54.893  1.00  0.00     0.044 C 
BRANCH  10  20
HETATM   20  O   UNL     1     -44.312  55.691 -53.920  1.00  0.00    -0.388 OA
HETATM   21  H   UNL     1     -44.230  56.517 -54.426  1.00  0.00     0.210 HD
ENDBRANCH  10  20
ENDBRANCH   9  10
ENDBRANCH   6   9
ENDBRANCH   1   5
BRANCH   2  22
HETATM   22  C   UNL     1     -43.617  60.273 -54.920  1.00  0.00     0.035 A 
HETATM   23  C   UNL     1     -42.900  60.364 -56.111  1.00  0.00     0.039 A 
HETATM   24  C   UNL     1     -43.444  59.902 -57.325  1.00  0.00    -0.029 A 
HETATM   25  C   UNL     1     -44.753  59.379 -57.371  1.00  0.00     0.043 A 
HETATM   26  C   UNL     1     -42.582  60.017 -58.554  1.00  0.00     0.042 C 
HETATM   27  N   UNL     1     -45.341  59.018 -58.638  1.00  0.00    -0.313 N 
HETATM   28  C   UNL     1     -45.446  59.276 -56.154  1.00  0.00     0.032 A 
HETATM   29  C   UNL     1     -46.618  58.416 -58.756  1.00  0.00     0.265 C 
HETATM   30  C   UNL     1     -44.544  59.282 -59.845  1.00  0.00     0.133 C 
HETATM   31  O   UNL     1     -47.130  57.747 -57.859  1.00  0.00    -0.267 OA
HETATM   32  C   UNL     1     -43.059  59.064 -59.629  1.00  0.00     0.025 C 
HETATM   33  C   UNL     1     -44.874  59.684 -54.941  1.00  0.00     0.032 A 
BRANCH  29  34
HETATM   34  C   UNL     1     -47.322  58.624 -60.022  1.00  0.00     0.073 A 
HETATM   35  S   UNL     1     -47.988  60.165 -60.369  1.00  0.00    -0.097 SA
HETATM   36  C   UNL     1     -48.592  59.638 -61.879  1.00  0.00     0.050 A 
HETATM   37  C   UNL     1     -48.269  58.325 -62.136  1.00  0.00     0.009 A 
HETATM   38  C   UNL     1     -47.519  57.744 -61.071  1.00  0.00     0.025 A 
ENDBRANCH  29  34
ENDBRANCH   2  22
TORSDOF 6
ENDMDL
