MODEL 1
REMARK VINA RESULT:      -8.0      0.000      0.000
REMARK  7 active torsions:
REMARK  status: ('A' for Active; 'I' for Inactive)
REMARK    1  A    between atoms: C_7  and  C_8 
REMARK    2  A    between atoms: C_8  and  C_9 
REMARK    3  A    between atoms: C_9  and  C_10 
REMARK    4  A    between atoms: C_10  and  O_11 
REMARK    5  A    between atoms: C_13  and  C_14 
REMARK    6  A    between atoms: C_22  and  C_23 
REMARK       I    between atoms: C_23  and  N_24 
REMARK    7  A    between atoms: N_24  and  C_25 
ROOT
HETATM    1  C   UNL     1     -42.911  56.504 -56.869  1.00  0.00     0.070 C 
HETATM    2  C   UNL     1     -43.335  57.051 -55.527  1.00  0.00     0.037 C 
HETATM    3  N   UNL     1     -43.777  58.371 -55.523  1.00  0.00    -0.192 N 
HETATM    4  C   UNL     1     -44.371  58.944 -54.459  1.00  0.00     0.726 A 
HETATM    5  N   UNL     1     -44.364  58.287 -53.263  1.00  0.00    -0.083 N 
HETATM    6  N   UNL     1     -45.125  58.921 -52.347  1.00  0.00    -0.140 NA
HETATM    7  C   UNL     1     -45.525  59.990 -53.052  1.00  0.00     0.166 A 
HETATM    8  N   UNL     1     -45.062  60.046 -54.348  1.00  0.00    -0.046 NA
HETATM    9  C   UNL     1     -43.785  56.953 -53.058  1.00  0.00     0.204 C 
HETATM   10  C   UNL     1     -43.346  56.326 -54.376  1.00  0.00     0.062 C 
HETATM   11  H   UNL     1     -43.855  58.838 -56.424  1.00  0.00     0.184 HD
ENDROOT
BRANCH  10  12
HETATM   12  C   UNL     1     -42.886  54.906 -54.372  1.00  0.00     0.256 C 
HETATM   13  N   UNL     1     -41.586  54.733 -53.941  1.00  0.00    -0.323 N 
HETATM   14  H   UNL     1     -41.014  55.546 -53.763  1.00  0.00     0.169 HD
HETATM   15  O   UNL     1     -43.648  54.021 -54.744  1.00  0.00    -0.267 OA
BRANCH  13  16
HETATM   16  C   UNL     1     -40.935  53.507 -53.681  1.00  0.00     0.035 A 
HETATM   17  C   UNL     1     -40.751  52.503 -54.638  1.00  0.00     0.032 A 
HETATM   18  C   UNL     1     -40.147  51.293 -54.284  1.00  0.00     0.044 A 
HETATM   19  C   UNL     1     -39.716  51.093 -52.979  1.00  0.00     0.116 A 
HETATM   20  F   UNL     1     -39.141  49.932 -52.643  1.00  0.00    -0.206 F 
HETATM   21  C   UNL     1     -39.881  52.080 -52.018  1.00  0.00     0.044 A 
HETATM   22  C   UNL     1     -40.496  53.284 -52.367  1.00  0.00     0.032 A 
ENDBRANCH  13  16
ENDBRANCH  10  12
BRANCH   9  23
HETATM   23  C   UNL     1     -42.661  57.033 -52.027  1.00  0.00    -0.005 A 
HETATM   24  C   UNL     1     -42.503  56.077 -51.000  1.00  0.00     0.064 A 
HETATM   25 CL   UNL     1     -43.575  54.712 -50.900  1.00  0.00    -0.082 Cl
HETATM   26  C   UNL     1     -41.466  56.219 -50.060  1.00  0.00     0.056 A 
HETATM   27 CL   UNL     1     -41.217  55.092 -48.769  1.00  0.00    -0.083 Cl
HETATM   28  C   UNL     1     -40.582  57.297 -50.140  1.00  0.00     0.026 A 
HETATM   29  C   UNL     1     -40.720  58.239 -51.154  1.00  0.00     0.002 A 
HETATM   30  C   UNL     1     -41.748  58.109 -52.086  1.00  0.00     0.011 A 
ENDBRANCH   9  23
BRANCH   7  31
HETATM   31  C   UNL     1     -46.490  60.981 -52.514  1.00  0.00     0.085 C 
BRANCH  31  32
HETATM   32  C   UNL     1     -45.839  61.975 -51.551  1.00  0.00     0.034 C 
BRANCH  32  33
HETATM   33  C   UNL     1     -46.292  61.797 -50.106  1.00  0.00     0.164 C 
BRANCH  33  34
HETATM   34  O   UNL     1     -45.934  60.497 -49.648  1.00  0.00    -0.401 OA
HETATM   35  H   UNL     1     -46.646  59.888 -49.908  1.00  0.00     0.209 HD
ENDBRANCH  33  34
ENDBRANCH  32  33
ENDBRANCH  31  32
ENDBRANCH   7  31
TORSDOF 7
ENDMDL
MODEL 2
REMARK VINA RESULT:      -8.0      4.610      6.682
REMARK  7 active torsions:
REMARK  status: ('A' for Active; 'I' for Inactive)
REMARK    1  A    between atoms: C_7  and  C_8 
REMARK    2  A    between atoms: C_8  and  C_9 
REMARK    3  A    between atoms: C_9  and  C_10 
REMARK    4  A    between atoms: C_10  and  O_11 
REMARK    5  A    between atoms: C_13  and  C_14 
REMARK    6  A    between atoms: C_22  and  C_23 
REMARK       I    between atoms: C_23  and  N_24 
REMARK    7  A    between atoms: N_24  and  C_25 
ROOT
HETATM    1  C   UNL     1     -42.301  59.193 -53.637  1.00  0.00     0.070 C 
HETATM    2  C   UNL     1     -42.321  59.255 -55.145  1.00  0.00     0.037 C 
HETATM    3  N   UNL     1     -42.239  60.530 -55.700  1.00  0.00    -0.192 N 
HETATM    4  C   UNL     1     -42.046  60.748 -57.014  1.00  0.00     0.726 A 
HETATM    5  N   UNL     1     -42.137  59.698 -57.881  1.00  0.00    -0.083 N 
HETATM    6  N   UNL     1     -41.770  60.053 -59.130  1.00  0.00    -0.140 NA
HETATM    7  C   UNL     1     -41.516  61.359 -58.951  1.00  0.00     0.166 A 
HETATM    8  N   UNL     1     -41.695  61.823 -57.668  1.00  0.00    -0.046 NA
HETATM    9  C   UNL     1     -42.388  58.310 -57.471  1.00  0.00     0.204 C 
HETATM   10  C   UNL     1     -42.368  58.163 -55.954  1.00  0.00     0.062 C 
HETATM   11  H   UNL     1     -42.094  61.308 -55.060  1.00  0.00     0.184 HD
ENDROOT
BRANCH  10  12
HETATM   12  C   UNL     1     -42.444  56.792 -55.370  1.00  0.00     0.256 C 
HETATM   13  N   UNL     1     -41.217  56.226 -55.089  1.00  0.00    -0.323 N 
HETATM   14  H   UNL     1     -40.376  56.705 -55.377  1.00  0.00     0.169 HD
HETATM   15  O   UNL     1     -43.539  56.268 -55.194  1.00  0.00    -0.267 OA
BRANCH  13  16
HETATM   16  C   UNL     1     -40.978  55.020 -54.393  1.00  0.00     0.035 A 
HETATM   17  C   UNL     1     -41.182  54.858 -53.019  1.00  0.00     0.032 A 
HETATM   18  C   UNL     1     -40.866  53.647 -52.396  1.00  0.00     0.044 A 
HETATM   19  C   UNL     1     -40.357  52.596 -53.149  1.00  0.00     0.116 A 
HETATM   20  F   UNL     1     -40.053  51.439 -52.549  1.00  0.00    -0.206 F 
HETATM   21  C   UNL     1     -40.157  52.734 -54.516  1.00  0.00     0.044 A 
HETATM   22  C   UNL     1     -40.461  53.947 -55.136  1.00  0.00     0.032 A 
ENDBRANCH  13  16
ENDBRANCH  10  12
BRANCH   9  23
HETATM   23  C   UNL     1     -43.686  57.813 -58.105  1.00  0.00    -0.005 A 
HETATM   24  C   UNL     1     -43.707  56.856 -59.142  1.00  0.00     0.064 A 
HETATM   25 CL   UNL     1     -42.226  56.148 -59.713  1.00  0.00    -0.082 Cl
HETATM   26  C   UNL     1     -44.933  56.459 -59.708  1.00  0.00     0.056 A 
HETATM   27 CL   UNL     1     -45.035  55.297 -60.988  1.00  0.00    -0.083 Cl
HETATM   28  C   UNL     1     -46.135  56.999 -59.245  1.00  0.00     0.026 A 
HETATM   29  C   UNL     1     -46.127  57.936 -58.216  1.00  0.00     0.002 A 
HETATM   30  C   UNL     1     -44.918  58.338 -57.653  1.00  0.00     0.011 A 
ENDBRANCH   9  23
BRANCH   7  31
HETATM   31  C   UNL     1     -40.969  62.215 -60.032  1.00  0.00     0.085 C 
BRANCH  31  32
HETATM   32  C   UNL     1     -39.642  62.873 -59.649  1.00  0.00     0.034 C 
BRANCH  32  33
HETATM   33  C   UNL     1     -39.802  64.310 -59.166  1.00  0.00     0.164 C 
BRANCH  33  34
HETATM   34  O   UNL     1     -39.899  64.331 -57.746  1.00  0.00    -0.401 OA
HETATM   35  H   UNL     1     -40.841  64.405 -57.517  1.00  0.00     0.209 HD
ENDBRANCH  33  34
ENDBRANCH  32  33
ENDBRANCH  31  32
ENDBRANCH   7  31
TORSDOF 7
ENDMDL
MODEL 3
REMARK VINA RESULT:      -7.5      4.492      8.010
REMARK  7 active torsions:
REMARK  status: ('A' for Active; 'I' for Inactive)
REMARK    1  A    between atoms: C_7  and  C_8 
REMARK    2  A    between atoms: C_8  and  C_9 
REMARK    3  A    between atoms: C_9  and  C_10 
REMARK    4  A    between atoms: C_10  and  O_11 
REMARK    5  A    between atoms: C_13  and  C_14 
REMARK    6  A    between atoms: C_22  and  C_23 
REMARK       I    between atoms: C_23  and  N_24 
REMARK    7  A    between atoms: N_24  and  C_25 
ROOT
HETATM    1  C   UNL     1     -44.007  56.467 -58.388  1.00  0.00     0.070 C 
HETATM    2  C   UNL     1     -43.313  56.300 -57.058  1.00  0.00     0.037 C 
HETATM    3  N   UNL     1     -43.262  55.001 -56.560  1.00  0.00    -0.192 N 
HETATM    4  C   UNL     1     -42.515  54.651 -55.497  1.00  0.00     0.726 A 
HETATM    5  N   UNL     1     -41.940  55.629 -54.739  1.00  0.00    -0.083 N 
HETATM    6  N   UNL     1     -41.109  55.112 -53.811  1.00  0.00    -0.140 NA
HETATM    7  C   UNL     1     -41.271  53.799 -54.035  1.00  0.00     0.166 A 
HETATM    8  N   UNL     1     -42.144  53.480 -55.051  1.00  0.00    -0.046 NA
HETATM    9  C   UNL     1     -42.039  57.065 -55.033  1.00  0.00     0.204 C 
HETATM   10  C   UNL     1     -42.719  57.315 -56.375  1.00  0.00     0.062 C 
HETATM   11  H   UNL     1     -43.621  54.259 -57.158  1.00  0.00     0.184 HD
ENDROOT
BRANCH  10  12
HETATM   12  C   UNL     1     -42.757  58.709 -56.905  1.00  0.00     0.256 C 
HETATM   13  N   UNL     1     -41.749  59.003 -57.801  1.00  0.00    -0.323 N 
HETATM   14  H   UNL     1     -41.018  58.325 -57.959  1.00  0.00     0.169 HD
HETATM   15  O   UNL     1     -43.632  59.479 -56.523  1.00  0.00    -0.267 OA
BRANCH  13  16
HETATM   16  C   UNL     1     -41.621  60.175 -58.579  1.00  0.00     0.035 A 
HETATM   17  C   UNL     1     -42.014  60.268 -59.918  1.00  0.00     0.032 A 
HETATM   18  C   UNL     1     -41.799  61.449 -60.636  1.00  0.00     0.044 A 
HETATM   19  C   UNL     1     -41.204  62.537 -60.011  1.00  0.00     0.116 A 
HETATM   20  F   UNL     1     -40.997  63.665 -60.702  1.00  0.00    -0.206 F 
HETATM   21  C   UNL     1     -40.817  62.468 -58.680  1.00  0.00     0.044 A 
HETATM   22  C   UNL     1     -41.019  61.285 -57.967  1.00  0.00     0.032 A 
ENDBRANCH  13  16
ENDBRANCH  10  12
BRANCH   9  23
HETATM   23  C   UNL     1     -42.724  57.782 -53.870  1.00  0.00    -0.005 A 
HETATM   24  C   UNL     1     -42.020  58.610 -52.969  1.00  0.00     0.064 A 
HETATM   25 CL   UNL     1     -40.319  58.894 -53.184  1.00  0.00    -0.082 Cl
HETATM   26  C   UNL     1     -42.699  59.220 -51.899  1.00  0.00     0.056 A 
HETATM   27 CL   UNL     1     -41.900  60.240 -50.749  1.00  0.00    -0.083 Cl
HETATM   28  C   UNL     1     -44.070  59.021 -51.724  1.00  0.00     0.026 A 
HETATM   29  C   UNL     1     -44.776  58.216 -52.613  1.00  0.00     0.002 A 
HETATM   30  C   UNL     1     -44.111  57.603 -53.673  1.00  0.00     0.011 A 
ENDBRANCH   9  23
BRANCH   7  31
HETATM   31  C   UNL     1     -40.479  52.768 -53.321  1.00  0.00     0.085 C 
BRANCH  31  32
HETATM   32  C   UNL     1     -39.854  51.743 -54.268  1.00  0.00     0.034 C 
BRANCH  32  33
HETATM   33  C   UNL     1     -39.903  50.318 -53.728  1.00  0.00     0.164 C 
BRANCH  33  34
HETATM   34  O   UNL     1     -39.936  49.394 -54.811  1.00  0.00    -0.401 OA
HETATM   35  H   UNL     1     -39.735  49.888 -55.624  1.00  0.00     0.209 HD
ENDBRANCH  33  34
ENDBRANCH  32  33
ENDBRANCH  31  32
ENDBRANCH   7  31
TORSDOF 7
ENDMDL
MODEL 4
REMARK VINA RESULT:      -7.5      2.650      4.233
REMARK  7 active torsions:
REMARK  status: ('A' for Active; 'I' for Inactive)
REMARK    1  A    between atoms: C_7  and  C_8 
REMARK    2  A    between atoms: C_8  and  C_9 
REMARK    3  A    between atoms: C_9  and  C_10 
REMARK    4  A    between atoms: C_10  and  O_11 
REMARK    5  A    between atoms: C_13  and  C_14 
REMARK    6  A    between atoms: C_22  and  C_23 
REMARK       I    between atoms: C_23  and  N_24 
REMARK    7  A    between atoms: N_24  and  C_25 
ROOT
HETATM    1  C   UNL     1     -44.311  55.158 -50.392  1.00  0.00     0.070 C 
HETATM    2  C   UNL     1     -43.990  56.385 -51.210  1.00  0.00     0.037 C 
HETATM    3  N   UNL     1     -44.405  57.599 -50.669  1.00  0.00    -0.192 N 
HETATM    4  C   UNL     1     -44.029  58.792 -51.166  1.00  0.00     0.726 A 
HETATM    5  N   UNL     1     -43.383  58.836 -52.368  1.00  0.00    -0.083 N 
HETATM    6  N   UNL     1     -42.944  60.080 -52.649  1.00  0.00    -0.140 NA
HETATM    7  C   UNL     1     -43.409  60.754 -51.585  1.00  0.00     0.166 A 
HETATM    8  N   UNL     1     -44.097  59.996 -50.665  1.00  0.00    -0.046 NA
HETATM    9  C   UNL     1     -43.019  57.648 -53.152  1.00  0.00     0.204 C 
HETATM   10  C   UNL     1     -43.301  56.363 -52.382  1.00  0.00     0.062 C 
HETATM   11  H   UNL     1     -44.818  57.577 -49.739  1.00  0.00     0.184 HD
ENDROOT
BRANCH  10  12
HETATM   12  C   UNL     1     -42.841  55.068 -52.965  1.00  0.00     0.256 C 
HETATM   13  N   UNL     1     -41.537  54.738 -52.654  1.00  0.00    -0.323 N 
HETATM   14  H   UNL     1     -40.963  55.408 -52.163  1.00  0.00     0.169 HD
HETATM   15  O   UNL     1     -43.606  54.411 -53.662  1.00  0.00    -0.267 OA
BRANCH  13  16
HETATM   16  C   UNL     1     -40.883  53.515 -52.927  1.00  0.00     0.035 A 
HETATM   17  C   UNL     1     -40.851  52.913 -54.188  1.00  0.00     0.032 A 
HETATM   18  C   UNL     1     -40.232  51.672 -54.361  1.00  0.00     0.044 A 
HETATM   19  C   UNL     1     -39.635  51.041 -53.277  1.00  0.00     0.116 A 
HETATM   20  F   UNL     1     -39.045  49.851 -53.446  1.00  0.00    -0.206 F 
HETATM   21  C   UNL     1     -39.647  51.628 -52.020  1.00  0.00     0.044 A 
HETATM   22  C   UNL     1     -40.278  52.861 -51.843  1.00  0.00     0.032 A 
ENDBRANCH  13  16
ENDBRANCH  10  12
BRANCH   9  23
HETATM   23  C   UNL     1     -43.713  57.698 -54.512  1.00  0.00    -0.005 A 
HETATM   24  C   UNL     1     -43.086  57.263 -55.700  1.00  0.00     0.064 A 
HETATM   25 CL   UNL     1     -41.485  56.590 -55.652  1.00  0.00    -0.082 Cl
HETATM   26  C   UNL     1     -43.764  57.361 -56.929  1.00  0.00     0.056 A 
HETATM   27 CL   UNL     1     -43.056  56.857 -58.427  1.00  0.00    -0.083 Cl
HETATM   28  C   UNL     1     -45.060  57.878 -56.983  1.00  0.00     0.026 A 
HETATM   29  C   UNL     1     -45.692  58.299 -55.818  1.00  0.00     0.002 A 
HETATM   30  C   UNL     1     -45.027  58.211 -54.596  1.00  0.00     0.011 A 
ENDBRANCH   9  23
BRANCH   7  31
HETATM   31  C   UNL     1     -43.102  62.188 -51.358  1.00  0.00     0.085 C 
BRANCH  31  32
HETATM   32  C   UNL     1     -43.848  63.111 -52.323  1.00  0.00     0.034 C 
BRANCH  32  33
HETATM   33  C   UNL     1     -42.955  63.684 -53.417  1.00  0.00     0.164 C 
BRANCH  33  34
HETATM   34  O   UNL     1     -42.750  62.705 -54.431  1.00  0.00    -0.401 OA
HETATM   35  H   UNL     1     -43.589  62.229 -54.553  1.00  0.00     0.209 HD
ENDBRANCH  33  34
ENDBRANCH  32  33
ENDBRANCH  31  32
ENDBRANCH   7  31
TORSDOF 7
ENDMDL
MODEL 5
REMARK VINA RESULT:      -7.4      2.504      4.040
REMARK  7 active torsions:
REMARK  status: ('A' for Active; 'I' for Inactive)
REMARK    1  A    between atoms: C_7  and  C_8 
REMARK    2  A    between atoms: C_8  and  C_9 
REMARK    3  A    between atoms: C_9  and  C_10 
REMARK    4  A    between atoms: C_10  and  O_11 
REMARK    5  A    between atoms: C_13  and  C_14 
REMARK    6  A    between atoms: C_22  and  C_23 
REMARK       I    between atoms: C_23  and  N_24 
REMARK    7  A    between atoms: N_24  and  C_25 
ROOT
HETATM    1  C   UNL     1     -44.048  54.925 -50.319  1.00  0.00     0.070 C 
HETATM    2  C   UNL     1     -44.149  56.295 -50.946  1.00  0.00     0.037 C 
HETATM    3  N   UNL     1     -45.244  57.060 -50.553  1.00  0.00    -0.192 N 
HETATM    4  C   UNL     1     -45.376  58.364 -50.860  1.00  0.00     0.726 A 
HETATM    5  N   UNL     1     -44.518  58.924 -51.762  1.00  0.00    -0.083 N 
HETATM    6  N   UNL     1     -44.688  60.259 -51.843  1.00  0.00    -0.140 NA
HETATM    7  C   UNL     1     -45.710  60.432 -50.990  1.00  0.00     0.166 A 
HETATM    8  N   UNL     1     -46.170  59.286 -50.384  1.00  0.00    -0.046 NA
HETATM    9  C   UNL     1     -43.408  58.203 -52.399  1.00  0.00     0.204 C 
HETATM   10  C   UNL     1     -43.232  56.810 -51.806  1.00  0.00     0.062 C 
HETATM   11  H   UNL     1     -45.843  56.677 -49.824  1.00  0.00     0.184 HD
ENDROOT
BRANCH  10  12
HETATM   12  C   UNL     1     -42.048  56.003 -52.224  1.00  0.00     0.256 C 
HETATM   13  N   UNL     1     -42.292  54.648 -52.323  1.00  0.00    -0.323 N 
HETATM   14  H   UNL     1     -43.185  54.285 -52.020  1.00  0.00     0.169 HD
HETATM   15  O   UNL     1     -40.977  56.562 -52.434  1.00  0.00    -0.267 OA
BRANCH  13  16
HETATM   16  C   UNL     1     -41.421  53.665 -52.843  1.00  0.00     0.035 A 
HETATM   17  C   UNL     1     -41.384  53.290 -54.189  1.00  0.00     0.032 A 
HETATM   18  C   UNL     1     -40.532  52.265 -54.613  1.00  0.00     0.044 A 
HETATM   19  C   UNL     1     -39.711  51.626 -53.693  1.00  0.00     0.116 A 
HETATM   20  F   UNL     1     -38.899  50.643 -54.101  1.00  0.00    -0.206 F 
HETATM   21  C   UNL     1     -39.727  51.991 -52.354  1.00  0.00     0.044 A 
HETATM   22  C   UNL     1     -40.587  53.004 -51.928  1.00  0.00     0.032 A 
ENDBRANCH  13  16
ENDBRANCH  10  12
BRANCH   9  23
HETATM   23  C   UNL     1     -43.606  58.191 -53.914  1.00  0.00    -0.005 A 
HETATM   24  C   UNL     1     -42.699  58.805 -54.804  1.00  0.00     0.064 A 
HETATM   25 CL   UNL     1     -41.260  59.571 -54.200  1.00  0.00    -0.082 Cl
HETATM   26  C   UNL     1     -42.949  58.787 -56.188  1.00  0.00     0.056 A 
HETATM   27 CL   UNL     1     -41.887  59.527 -57.337  1.00  0.00    -0.083 Cl
HETATM   28  C   UNL     1     -44.089  58.156 -56.693  1.00  0.00     0.026 A 
HETATM   29  C   UNL     1     -44.985  57.537 -55.827  1.00  0.00     0.002 A 
HETATM   30  C   UNL     1     -44.747  57.555 -54.454  1.00  0.00     0.011 A 
ENDBRANCH   9  23
BRANCH   7  31
HETATM   31  C   UNL     1     -46.228  61.777 -50.636  1.00  0.00     0.085 C 
BRANCH  31  32
HETATM   32  C   UNL     1     -46.180  62.051 -49.132  1.00  0.00     0.034 C 
BRANCH  32  33
HETATM   33  C   UNL     1     -44.805  61.801 -48.521  1.00  0.00     0.164 C 
BRANCH  33  34
HETATM   34  O   UNL     1     -44.855  60.654 -47.679  1.00  0.00    -0.401 OA
HETATM   35  H   UNL     1     -44.020  60.170 -47.793  1.00  0.00     0.209 HD
ENDBRANCH  33  34
ENDBRANCH  32  33
ENDBRANCH  31  32
ENDBRANCH   7  31
TORSDOF 7
ENDMDL
MODEL 6
REMARK VINA RESULT:      -6.9      4.235      8.026
REMARK  7 active torsions:
REMARK  status: ('A' for Active; 'I' for Inactive)
REMARK    1  A    between atoms: C_7  and  C_8 
REMARK    2  A    between atoms: C_8  and  C_9 
REMARK    3  A    between atoms: C_9  and  C_10 
REMARK    4  A    between atoms: C_10  and  O_11 
REMARK    5  A    between atoms: C_13  and  C_14 
REMARK    6  A    between atoms: C_22  and  C_23 
REMARK       I    between atoms: C_23  and  N_24 
REMARK    7  A    between atoms: N_24  and  C_25 
ROOT
HETATM    1  C   UNL     1     -43.732  56.412 -58.074  1.00  0.00     0.070 C 
HETATM    2  C   UNL     1     -43.093  56.206 -56.722  1.00  0.00     0.037 C 
HETATM    3  N   UNL     1     -43.093  54.897 -56.246  1.00  0.00    -0.192 N 
HETATM    4  C   UNL     1     -42.396  54.511 -55.161  1.00  0.00     0.726 A 
HETATM    5  N   UNL     1     -41.827  55.462 -54.364  1.00  0.00    -0.083 N 
HETATM    6  N   UNL     1     -41.045  54.909 -53.415  1.00  0.00    -0.140 NA
HETATM    7  C   UNL     1     -41.231  53.604 -53.669  1.00  0.00     0.166 A 
HETATM    8  N   UNL     1     -42.071  53.324 -54.722  1.00  0.00    -0.046 NA
HETATM    9  C   UNL     1     -41.880  56.904 -54.637  1.00  0.00     0.204 C 
HETATM   10  C   UNL     1     -42.501  57.193 -55.999  1.00  0.00     0.062 C 
HETATM   11  H   UNL     1     -43.447  54.175 -56.869  1.00  0.00     0.184 HD
ENDROOT
BRANCH  10  12
HETATM   12  C   UNL     1     -42.486  58.597 -56.506  1.00  0.00     0.256 C 
HETATM   13  N   UNL     1     -43.635  59.310 -56.235  1.00  0.00    -0.323 N 
HETATM   14  H   UNL     1     -44.425  58.834 -55.823  1.00  0.00     0.169 HD
HETATM   15  O   UNL     1     -41.504  59.010 -57.114  1.00  0.00    -0.267 OA
BRANCH  13  16
HETATM   16  C   UNL     1     -43.847  60.691 -56.448  1.00  0.00     0.035 A 
HETATM   17  C   UNL     1     -44.255  61.238 -57.668  1.00  0.00     0.032 A 
HETATM   18  C   UNL     1     -44.386  62.623 -57.812  1.00  0.00     0.044 A 
HETATM   19  C   UNL     1     -44.120  63.457 -56.733  1.00  0.00     0.116 A 
HETATM   20  F   UNL     1     -44.243  64.782 -56.875  1.00  0.00    -0.206 F 
HETATM   21  C   UNL     1     -43.724  62.932 -55.511  1.00  0.00     0.044 A 
HETATM   22  C   UNL     1     -43.581  61.550 -55.371  1.00  0.00     0.032 A 
ENDBRANCH  13  16
ENDBRANCH  10  12
BRANCH   9  23
HETATM   23  C   UNL     1     -42.591  57.618 -53.489  1.00  0.00    -0.005 A 
HETATM   24  C   UNL     1     -41.925  58.513 -52.623  1.00  0.00     0.064 A 
HETATM   25 CL   UNL     1     -40.245  58.885 -52.869  1.00  0.00    -0.082 Cl
HETATM   26  C   UNL     1     -42.625  59.119 -51.564  1.00  0.00     0.056 A 
HETATM   27 CL   UNL     1     -41.873  60.218 -50.457  1.00  0.00    -0.083 Cl
HETATM   28  C   UNL     1     -43.981  58.848 -51.365  1.00  0.00     0.026 A 
HETATM   29  C   UNL     1     -44.651  57.978 -52.219  1.00  0.00     0.002 A 
HETATM   30  C   UNL     1     -43.964  57.369 -53.268  1.00  0.00     0.011 A 
ENDBRANCH   9  23
BRANCH   7  31
HETATM   31  C   UNL     1     -40.492  52.542 -52.943  1.00  0.00     0.085 C 
BRANCH  31  32
HETATM   32  C   UNL     1     -39.646  51.670 -53.873  1.00  0.00     0.034 C 
BRANCH  32  33
HETATM   33  C   UNL     1     -40.319  50.350 -54.234  1.00  0.00     0.164 C 
BRANCH  33  34
HETATM   34  O   UNL     1     -39.337  49.325 -54.343  1.00  0.00    -0.401 OA
HETATM   35  H   UNL     1     -39.710  48.518 -53.949  1.00  0.00     0.209 HD
ENDBRANCH  33  34
ENDBRANCH  32  33
ENDBRANCH  31  32
ENDBRANCH   7  31
TORSDOF 7
ENDMDL
MODEL 7
REMARK VINA RESULT:      -6.9      3.741      5.549
REMARK  7 active torsions:
REMARK  status: ('A' for Active; 'I' for Inactive)
REMARK    1  A    between atoms: C_7  and  C_8 
REMARK    2  A    between atoms: C_8  and  C_9 
REMARK    3  A    between atoms: C_9  and  C_10 
REMARK    4  A    between atoms: C_10  and  O_11 
REMARK    5  A    between atoms: C_13  and  C_14 
REMARK    6  A    between atoms: C_22  and  C_23 
REMARK       I    between atoms: C_23  and  N_24 
REMARK    7  A    between atoms: N_24  and  C_25 
ROOT
HETATM    1  C   UNL     1     -44.723  57.701 -51.790  1.00  0.00     0.070 C 
HETATM    2  C   UNL     1     -44.455  58.470 -53.061  1.00  0.00     0.037 C 
HETATM    3  N   UNL     1     -44.800  59.819 -53.036  1.00  0.00    -0.192 N 
HETATM    4  C   UNL     1     -44.450  60.684 -54.005  1.00  0.00     0.726 A 
HETATM    5  N   UNL     1     -43.913  60.202 -55.163  1.00  0.00    -0.083 N 
HETATM    6  N   UNL     1     -43.480  61.199 -55.961  1.00  0.00    -0.140 NA
HETATM    7  C   UNL     1     -43.837  62.271 -55.236  1.00  0.00     0.166 A 
HETATM    8  N   UNL     1     -44.453  61.990 -54.038  1.00  0.00    -0.046 NA
HETATM    9  C   UNL     1     -43.640  58.781 -55.416  1.00  0.00     0.204 C 
HETATM   10  C   UNL     1     -43.874  57.937 -54.168  1.00  0.00     0.062 C 
HETATM   11  H   UNL     1     -45.129  60.199 -52.151  1.00  0.00     0.184 HD
ENDROOT
BRANCH  10  12
HETATM   12  C   UNL     1     -43.489  56.495 -54.201  1.00  0.00     0.256 C 
HETATM   13  N   UNL     1     -42.159  56.257 -53.922  1.00  0.00    -0.323 N 
HETATM   14  H   UNL     1     -41.529  57.039 -53.820  1.00  0.00     0.169 HD
HETATM   15  O   UNL     1     -44.334  55.649 -54.473  1.00  0.00    -0.267 OA
BRANCH  13  16
HETATM   16  C   UNL     1     -41.545  54.999 -53.726  1.00  0.00     0.035 A 
HETATM   17  C   UNL     1     -41.507  54.333 -52.498  1.00  0.00     0.032 A 
HETATM   18  C   UNL     1     -40.828  53.117 -52.375  1.00  0.00     0.044 A 
HETATM   19  C   UNL     1     -40.199  52.563 -53.482  1.00  0.00     0.116 A 
HETATM   20  F   UNL     1     -39.547  51.400 -53.361  1.00  0.00    -0.206 F 
HETATM   21  C   UNL     1     -40.235  53.204 -54.713  1.00  0.00     0.044 A 
HETATM   22  C   UNL     1     -40.901  54.425 -54.833  1.00  0.00     0.032 A 
ENDBRANCH  13  16
ENDBRANCH  10  12
BRANCH   9  23
HETATM   23  C   UNL     1     -44.452  58.308 -56.621  1.00  0.00    -0.005 A 
HETATM   24  C   UNL     1     -43.848  57.770 -57.779  1.00  0.00     0.064 A 
HETATM   25 CL   UNL     1     -42.124  57.571 -57.857  1.00  0.00    -0.082 Cl
HETATM   26  C   UNL     1     -44.645  57.380 -58.870  1.00  0.00     0.056 A 
HETATM   27 CL   UNL     1     -43.975  56.722 -60.325  1.00  0.00    -0.083 Cl
HETATM   28  C   UNL     1     -46.035  57.511 -58.815  1.00  0.00     0.026 A 
HETATM   29  C   UNL     1     -46.642  58.029 -57.675  1.00  0.00     0.002 A 
HETATM   30  C   UNL     1     -45.859  58.423 -56.591  1.00  0.00     0.011 A 
ENDBRANCH   9  23
BRANCH   7  31
HETATM   31  C   UNL     1     -43.487  63.655 -55.641  1.00  0.00     0.085 C 
BRANCH  31  32
HETATM   32  C   UNL     1     -43.456  63.836 -57.159  1.00  0.00     0.034 C 
BRANCH  32  33
HETATM   33  C   UNL     1     -42.048  64.025 -57.713  1.00  0.00     0.164 C 
BRANCH  33  34
HETATM   34  O   UNL     1     -41.360  62.779 -57.712  1.00  0.00    -0.401 OA
HETATM   35  H   UNL     1     -41.624  62.299 -56.909  1.00  0.00     0.209 HD
ENDBRANCH  33  34
ENDBRANCH  32  33
ENDBRANCH  31  32
ENDBRANCH   7  31
TORSDOF 7
ENDMDL
MODEL 8
REMARK VINA RESULT:      -6.8     16.958     19.714
REMARK  7 active torsions:
REMARK  status: ('A' for Active; 'I' for Inactive)
REMARK    1  A    between atoms: C_7  and  C_8 
REMARK    2  A    between atoms: C_8  and  C_9 
REMARK    3  A    between atoms: C_9  and  C_10 
REMARK    4  A    between atoms: C_10  and  O_11 
REMARK    5  A    between atoms: C_13  and  C_14 
REMARK    6  A    between atoms: C_22  and  C_23 
REMARK       I    between atoms: C_23  and  N_24 
REMARK    7  A    between atoms: N_24  and  C_25 
ROOT
HETATM    1  C   UNL     1     -34.633  40.418 -50.631  1.00  0.00     0.070 C 
HETATM    2  C   UNL     1     -34.427  40.189 -52.109  1.00  0.00     0.037 C 
HETATM    3  N   UNL     1     -33.208  40.622 -52.624  1.00  0.00    -0.192 N 
HETATM    4  C   UNL     1     -32.787  40.319 -53.866  1.00  0.00     0.726 A 
HETATM    5  N   UNL     1     -33.662  39.741 -54.741  1.00  0.00    -0.083 N 
HETATM    6  N   UNL     1     -33.046  39.367 -55.881  1.00  0.00    -0.140 NA
HETATM    7  C   UNL     1     -31.798  39.800 -55.644  1.00  0.00     0.166 A 
HETATM    8  N   UNL     1     -31.609  40.407 -54.423  1.00  0.00    -0.046 NA
HETATM    9  C   UNL     1     -35.044  39.375 -54.403  1.00  0.00     0.204 C 
HETATM   10  C   UNL     1     -35.325  39.564 -52.917  1.00  0.00     0.062 C 
HETATM   11  H   UNL     1     -32.525  40.982 -51.962  1.00  0.00     0.184 HD
ENDROOT
BRANCH  10  12
HETATM   12  C   UNL     1     -36.629  39.086 -52.372  1.00  0.00     0.256 C 
HETATM   13  N   UNL     1     -37.564  40.083 -52.182  1.00  0.00    -0.323 N 
HETATM   14  H   UNL     1     -37.291  41.046 -52.316  1.00  0.00     0.169 HD
HETATM   15  O   UNL     1     -36.783  37.895 -52.126  1.00  0.00    -0.267 OA
BRANCH  13  16
HETATM   16  C   UNL     1     -38.923  39.917 -51.834  1.00  0.00     0.035 A 
HETATM   17  C   UNL     1     -39.390  38.925 -50.967  1.00  0.00     0.032 A 
HETATM   18  C   UNL     1     -40.759  38.792 -50.719  1.00  0.00     0.044 A 
HETATM   19  C   UNL     1     -41.658  39.658 -51.329  1.00  0.00     0.116 A 
HETATM   20  F   UNL     1     -42.969  39.526 -51.092  1.00  0.00    -0.206 F 
HETATM   21  C   UNL     1     -41.213  40.656 -52.184  1.00  0.00     0.044 A 
HETATM   22  C   UNL     1     -39.847  40.781 -52.442  1.00  0.00     0.032 A 
ENDBRANCH  13  16
ENDBRANCH  10  12
BRANCH   9  23
HETATM   23  C   UNL     1     -36.013  40.142 -55.301  1.00  0.00    -0.005 A 
HETATM   24  C   UNL     1     -36.752  39.518 -56.329  1.00  0.00     0.064 A 
HETATM   25 CL   UNL     1     -36.624  37.804 -56.584  1.00  0.00    -0.082 Cl
HETATM   26  C   UNL     1     -37.607  40.282 -57.143  1.00  0.00     0.056 A 
HETATM   27 CL   UNL     1     -38.537  39.587 -58.428  1.00  0.00    -0.083 Cl
HETATM   28  C   UNL     1     -37.740  41.657 -56.937  1.00  0.00     0.026 A 
HETATM   29  C   UNL     1     -37.025  42.282 -55.919  1.00  0.00     0.002 A 
HETATM   30  C   UNL     1     -36.172  41.533 -55.111  1.00  0.00     0.011 A 
ENDBRANCH   9  23
BRANCH   7  31
HETATM   31  C   UNL     1     -30.676  39.537 -56.579  1.00  0.00     0.085 C 
BRANCH  31  32
HETATM   32  C   UNL     1     -29.764  38.405 -56.102  1.00  0.00     0.034 C 
BRANCH  32  33
HETATM   33  C   UNL     1     -28.584  38.153 -57.035  1.00  0.00     0.164 C 
BRANCH  33  34
HETATM   34  O   UNL     1     -28.607  39.093 -58.103  1.00  0.00    -0.401 OA
HETATM   35  H   UNL     1     -29.298  38.813 -58.726  1.00  0.00     0.209 HD
ENDBRANCH  33  34
ENDBRANCH  32  33
ENDBRANCH  31  32
ENDBRANCH   7  31
TORSDOF 7
ENDMDL
MODEL 9
REMARK VINA RESULT:      -6.7     16.776     19.178
REMARK  7 active torsions:
REMARK  status: ('A' for Active; 'I' for Inactive)
REMARK    1  A    between atoms: C_7  and  C_8 
REMARK    2  A    between atoms: C_8  and  C_9 
REMARK    3  A    between atoms: C_9  and  C_10 
REMARK    4  A    between atoms: C_10  and  O_11 
REMARK    5  A    between atoms: C_13  and  C_14 
REMARK    6  A    between atoms: C_22  and  C_23 
REMARK       I    between atoms: C_23  and  N_24 
REMARK    7  A    between atoms: N_24  and  C_25 
ROOT
HETATM    1  C   UNL     1     -38.108  41.365 -52.146  1.00  0.00     0.070 C 
HETATM    2  C   UNL     1     -37.300  41.180 -53.408  1.00  0.00     0.037 C 
HETATM    3  N   UNL     1     -38.023  41.194 -54.597  1.00  0.00    -0.192 N 
HETATM    4  C   UNL     1     -37.441  41.241 -55.810  1.00  0.00     0.726 A 
HETATM    5  N   UNL     1     -36.092  41.061 -55.906  1.00  0.00    -0.083 N 
HETATM    6  N   UNL     1     -35.650  41.286 -57.160  1.00  0.00    -0.140 NA
HETATM    7  C   UNL     1     -36.807  41.552 -57.787  1.00  0.00     0.166 A 
HETATM    8  N   UNL     1     -37.929  41.512 -56.991  1.00  0.00    -0.046 NA
HETATM    9  C   UNL     1     -35.203  40.862 -54.753  1.00  0.00     0.204 C 
HETATM   10  C   UNL     1     -35.947  41.050 -53.436  1.00  0.00     0.062 C 
HETATM   11  H   UNL     1     -39.017  41.405 -54.535  1.00  0.00     0.184 HD
ENDROOT
BRANCH  10  12
HETATM   12  C   UNL     1     -35.161  41.045 -52.167  1.00  0.00     0.256 C 
HETATM   13  N   UNL     1     -34.949  39.789 -51.636  1.00  0.00    -0.323 N 
HETATM   14  H   UNL     1     -35.405  38.992 -52.058  1.00  0.00     0.169 HD
HETATM   15  O   UNL     1     -34.777  42.107 -51.688  1.00  0.00    -0.267 OA
BRANCH  13  16
HETATM   16  C   UNL     1     -34.116  39.459 -50.543  1.00  0.00     0.035 A 
HETATM   17  C   UNL     1     -34.554  38.764 -49.412  1.00  0.00     0.032 A 
HETATM   18  C   UNL     1     -33.679  38.527 -48.347  1.00  0.00     0.044 A 
HETATM   19  C   UNL     1     -32.366  38.975 -48.420  1.00  0.00     0.116 A 
HETATM   20  F   UNL     1     -31.532  38.750 -47.398  1.00  0.00    -0.206 F 
HETATM   21  C   UNL     1     -31.910  39.658 -49.539  1.00  0.00     0.044 A 
HETATM   22  C   UNL     1     -32.787  39.906 -50.597  1.00  0.00     0.032 A 
ENDBRANCH  13  16
ENDBRANCH  10  12
BRANCH   9  23
HETATM   23  C   UNL     1     -34.511  39.505 -54.865  1.00  0.00    -0.005 A 
HETATM   24  C   UNL     1     -33.130  39.335 -54.630  1.00  0.00     0.064 A 
HETATM   25 CL   UNL     1     -32.150  40.686 -54.143  1.00  0.00    -0.082 Cl
HETATM   26  C   UNL     1     -32.542  38.066 -54.778  1.00  0.00     0.056 A 
HETATM   27 CL   UNL     1     -30.854  37.784 -54.516  1.00  0.00    -0.083 Cl
HETATM   28  C   UNL     1     -33.319  36.965 -55.146  1.00  0.00     0.026 A 
HETATM   29  C   UNL     1     -34.683  37.117 -55.369  1.00  0.00     0.002 A 
HETATM   30  C   UNL     1     -35.273  38.372 -55.230  1.00  0.00     0.011 A 
ENDBRANCH   9  23
BRANCH   7  31
HETATM   31  C   UNL     1     -36.860  41.973 -59.209  1.00  0.00     0.085 C 
BRANCH  31  32
HETATM   32  C   UNL     1     -37.608  40.974 -60.093  1.00  0.00     0.034 C 
BRANCH  32  33
HETATM   33  C   UNL     1     -36.863  39.656 -60.271  1.00  0.00     0.164 C 
BRANCH  33  34
HETATM   34  O   UNL     1     -36.864  39.286 -61.646  1.00  0.00    -0.401 OA
HETATM   35  H   UNL     1     -37.631  39.711 -62.064  1.00  0.00     0.209 HD
ENDBRANCH  33  34
ENDBRANCH  32  33
ENDBRANCH  31  32
ENDBRANCH   7  31
TORSDOF 7
ENDMDL
MODEL 10
REMARK VINA RESULT:      -6.7      4.356      8.660
REMARK  7 active torsions:
REMARK  status: ('A' for Active; 'I' for Inactive)
REMARK    1  A    between atoms: C_7  and  C_8 
REMARK    2  A    between atoms: C_8  and  C_9 
REMARK    3  A    between atoms: C_9  and  C_10 
REMARK    4  A    between atoms: C_10  and  O_11 
REMARK    5  A    between atoms: C_13  and  C_14 
REMARK    6  A    between atoms: C_22  and  C_23 
REMARK       I    between atoms: C_23  and  N_24 
REMARK    7  A    between atoms: N_24  and  C_25 
ROOT
HETATM    1  C   UNL     1     -40.958  59.630 -49.917  1.00  0.00     0.070 C 
HETATM    2  C   UNL     1     -41.932  59.127 -50.955  1.00  0.00     0.037 C 
HETATM    3  N   UNL     1     -41.485  58.069 -51.742  1.00  0.00    -0.192 N 
HETATM    4  C   UNL     1     -42.291  57.379 -52.571  1.00  0.00     0.726 A 
HETATM    5  N   UNL     1     -43.549  57.848 -52.816  1.00  0.00    -0.083 N 
HETATM    6  N   UNL     1     -44.273  56.969 -53.539  1.00  0.00    -0.140 NA
HETATM    7  C   UNL     1     -43.363  56.003 -53.740  1.00  0.00     0.166 A 
HETATM    8  N   UNL     1     -42.128  56.233 -53.176  1.00  0.00    -0.046 NA
HETATM    9  C   UNL     1     -44.116  59.051 -52.192  1.00  0.00     0.204 C 
HETATM   10  C   UNL     1     -43.192  59.611 -51.117  1.00  0.00     0.062 C 
HETATM   11  H   UNL     1     -40.579  57.667 -51.512  1.00  0.00     0.184 HD
ENDROOT
BRANCH  10  12
HETATM   12  C   UNL     1     -43.685  60.737 -50.270  1.00  0.00     0.256 C 
HETATM   13  N   UNL     1     -44.690  60.387 -49.391  1.00  0.00    -0.323 N 
HETATM   14  H   UNL     1     -45.089  59.460 -49.441  1.00  0.00     0.169 HD
HETATM   15  O   UNL     1     -43.201  61.855 -50.406  1.00  0.00    -0.267 OA
BRANCH  13  16
HETATM   16  C   UNL     1     -45.238  61.190 -48.366  1.00  0.00     0.035 A 
HETATM   17  C   UNL     1     -46.228  62.154 -48.576  1.00  0.00     0.032 A 
HETATM   18  C   UNL     1     -46.676  62.949 -47.516  1.00  0.00     0.044 A 
HETATM   19  C   UNL     1     -46.143  62.769 -46.246  1.00  0.00     0.116 A 
HETATM   20  F   UNL     1     -46.572  63.534 -45.234  1.00  0.00    -0.206 F 
HETATM   21  C   UNL     1     -45.167  61.810 -46.015  1.00  0.00     0.044 A 
HETATM   22  C   UNL     1     -44.710  61.026 -47.076  1.00  0.00     0.032 A 
ENDBRANCH  13  16
ENDBRANCH  10  12
BRANCH   9  23
HETATM   23  C   UNL     1     -44.470  60.072 -53.272  1.00  0.00    -0.005 A 
HETATM   24  C   UNL     1     -45.703  60.759 -53.292  1.00  0.00     0.064 A 
HETATM   25 CL   UNL     1     -46.871  60.502 -52.031  1.00  0.00    -0.082 Cl
HETATM   26  C   UNL     1     -45.985  61.666 -54.330  1.00  0.00     0.056 A 
HETATM   27 CL   UNL     1     -47.479  62.537 -54.426  1.00  0.00    -0.083 Cl
HETATM   28  C   UNL     1     -45.049  61.902 -55.339  1.00  0.00     0.026 A 
HETATM   29  C   UNL     1     -43.825  61.239 -55.323  1.00  0.00     0.002 A 
HETATM   30  C   UNL     1     -43.539  60.335 -54.302  1.00  0.00     0.011 A 
ENDBRANCH   9  23
BRANCH   7  31
HETATM   31  C   UNL     1     -43.696  54.728 -54.420  1.00  0.00     0.085 C 
BRANCH  31  32
HETATM   32  C   UNL     1     -42.838  54.478 -55.661  1.00  0.00     0.034 C 
BRANCH  32  33
HETATM   33  C   UNL     1     -42.896  55.620 -56.670  1.00  0.00     0.164 C 
BRANCH  33  34
HETATM   34  O   UNL     1     -43.634  55.210 -57.817  1.00  0.00    -0.401 OA
HETATM   35  H   UNL     1     -44.010  54.335 -57.626  1.00  0.00     0.209 HD
ENDBRANCH  33  34
ENDBRANCH  32  33
ENDBRANCH  31  32
ENDBRANCH   7  31
TORSDOF 7
ENDMDL
