MODEL 1
REMARK VINA RESULT:      -7.1      0.000      0.000
REMARK  5 active torsions:
REMARK  status: ('A' for Active; 'I' for Inactive)
REMARK    1  A    between atoms: C_2  and  C_3 
REMARK       I    between atoms: C_3  and  N_4 
REMARK    2  A    between atoms: N_4  and  C_5 
REMARK    3  A    between atoms: C_5  and  C_6 
REMARK    4  A    between atoms: C_5  and  C_17 
REMARK    5  A    between atoms: C_7  and  O_8 
ROOT
HETATM    1  C   UNL     1     -41.865  56.994 -52.887  1.00  0.00     0.154 C 
ENDROOT
BRANCH   1   2
HETATM    2  N   UNL     1     -40.735  57.892 -52.697  1.00  0.00    -0.348 N 
HETATM    3  C   UNL     1     -40.415  58.375 -51.451  1.00  0.00     0.218 C 
HETATM    4  O   UNL     1     -41.064  58.096 -50.445  1.00  0.00    -0.274 OA
HETATM    5  H   UNL     1     -39.995  57.847 -53.380  1.00  0.00     0.163 HD
BRANCH   3   6
HETATM    6  C   UNL     1     -39.151  59.207 -51.383  1.00  0.00     0.098 C 
HETATM    7  C   UNL     1     -38.969  59.943 -50.065  1.00  0.00     0.014 C 
ENDBRANCH   3   6
ENDBRANCH   1   2
BRANCH   1   8
HETATM    8  C   UNL     1     -41.348  55.609 -53.257  1.00  0.00     0.005 A 
HETATM    9  C   UNL     1     -40.945  54.686 -52.270  1.00  0.00     0.103 A 
HETATM   10  C   UNL     1     -40.472  53.397 -52.574  1.00  0.00     0.100 A 
HETATM   11  C   UNL     1     -40.380  53.046 -53.938  1.00  0.00    -0.004 A 
HETATM   12  N   UNL     1     -40.101  52.525 -51.606  1.00  0.00    -0.257 NA
HETATM   13  C   UNL     1     -40.751  53.959 -54.937  1.00  0.00     0.014 A 
HETATM   14  C   UNL     1     -39.909  51.769 -54.273  1.00  0.00     0.015 A 
HETATM   15  C   UNL     1     -41.223  55.227 -54.601  1.00  0.00     0.013 A 
HETATM   16  C   UNL     1     -39.540  50.881 -53.272  1.00  0.00     0.020 A 
HETATM   17  C   UNL     1     -39.654  51.303 -51.964  1.00  0.00     0.117 A 
BRANCH   9  18
HETATM   18  O   UNL     1     -41.023  55.043 -50.940  1.00  0.00    -0.358 OA
HETATM   19  H   UNL     1     -40.814  56.001 -50.864  1.00  0.00     0.218 HD
ENDBRANCH   9  18
ENDBRANCH   1   8
BRANCH   1  20
HETATM   20  C   UNL     1     -42.912  57.541 -53.859  1.00  0.00    -0.031 A 
HETATM   21  C   UNL     1     -44.211  56.998 -53.815  1.00  0.00     0.009 A 
HETATM   22  C   UNL     1     -45.210  57.448 -54.678  1.00  0.00     0.001 A 
HETATM   23  C   UNL     1     -44.928  58.446 -55.606  1.00  0.00     0.000 A 
HETATM   24  C   UNL     1     -43.649  58.991 -55.671  1.00  0.00     0.001 A 
HETATM   25  C   UNL     1     -42.647  58.545 -54.804  1.00  0.00     0.009 A 
ENDBRANCH   1  20
TORSDOF 5
ENDMDL
MODEL 2
REMARK VINA RESULT:      -7.1      1.754      2.223
REMARK  5 active torsions:
REMARK  status: ('A' for Active; 'I' for Inactive)
REMARK    1  A    between atoms: C_2  and  C_3 
REMARK       I    between atoms: C_3  and  N_4 
REMARK    2  A    between atoms: N_4  and  C_5 
REMARK    3  A    between atoms: C_5  and  C_6 
REMARK    4  A    between atoms: C_5  and  C_17 
REMARK    5  A    between atoms: C_7  and  O_8 
ROOT
HETATM    1  C   UNL     1     -41.991  56.263 -54.325  1.00  0.00     0.154 C 
ENDROOT
BRANCH   1   2
HETATM    2  N   UNL     1     -41.162  57.358 -53.841  1.00  0.00    -0.348 N 
HETATM    3  C   UNL     1     -41.587  58.171 -52.819  1.00  0.00     0.218 C 
HETATM    4  O   UNL     1     -42.681  58.034 -52.274  1.00  0.00    -0.274 OA
HETATM    5  H   UNL     1     -40.167  57.277 -53.985  1.00  0.00     0.163 HD
BRANCH   3   6
HETATM    6  C   UNL     1     -40.578  59.196 -52.343  1.00  0.00     0.098 C 
HETATM    7  C   UNL     1     -40.101  58.973 -50.917  1.00  0.00     0.014 C 
ENDBRANCH   3   6
ENDBRANCH   1   2
BRANCH   1   8
HETATM    8  C   UNL     1     -41.327  54.938 -53.969  1.00  0.00     0.005 A 
HETATM    9  C   UNL     1     -41.313  54.456 -52.644  1.00  0.00     0.103 A 
HETATM   10  C   UNL     1     -40.720  53.234 -52.280  1.00  0.00     0.100 A 
HETATM   11  C   UNL     1     -40.093  52.489 -53.301  1.00  0.00    -0.004 A 
HETATM   12  N   UNL     1     -40.729  52.787 -51.001  1.00  0.00    -0.257 NA
HETATM   13  C   UNL     1     -40.072  52.963 -54.622  1.00  0.00     0.014 A 
HETATM   14  C   UNL     1     -39.489  51.268 -52.970  1.00  0.00     0.015 A 
HETATM   15  C   UNL     1     -40.677  54.176 -54.950  1.00  0.00     0.013 A 
HETATM   16  C   UNL     1     -39.513  50.817 -51.657  1.00  0.00     0.020 A 
HETATM   17  C   UNL     1     -40.141  51.606 -50.717  1.00  0.00     0.117 A 
BRANCH   9  18
HETATM   18  O   UNL     1     -41.915  55.198 -51.648  1.00  0.00    -0.358 OA
HETATM   19  H   UNL     1     -41.465  54.996 -50.798  1.00  0.00     0.218 HD
ENDBRANCH   9  18
ENDBRANCH   1   8
BRANCH   1  20
HETATM   20  C   UNL     1     -42.355  56.391 -55.805  1.00  0.00    -0.031 A 
HETATM   21  C   UNL     1     -42.127  57.626 -56.443  1.00  0.00     0.009 A 
HETATM   22  C   UNL     1     -42.442  57.811 -57.790  1.00  0.00     0.001 A 
HETATM   23  C   UNL     1     -42.997  56.766 -58.522  1.00  0.00     0.000 A 
HETATM   24  C   UNL     1     -43.237  55.540 -57.910  1.00  0.00     0.001 A 
HETATM   25  C   UNL     1     -42.917  55.350 -56.562  1.00  0.00     0.009 A 
ENDBRANCH   1  20
TORSDOF 5
ENDMDL
MODEL 3
REMARK VINA RESULT:      -6.9      2.142      6.082
REMARK  5 active torsions:
REMARK  status: ('A' for Active; 'I' for Inactive)
REMARK    1  A    between atoms: C_2  and  C_3 
REMARK       I    between atoms: C_3  and  N_4 
REMARK    2  A    between atoms: N_4  and  C_5 
REMARK    3  A    between atoms: C_5  and  C_6 
REMARK    4  A    between atoms: C_5  and  C_17 
REMARK    5  A    between atoms: C_7  and  O_8 
ROOT
HETATM    1  C   UNL     1     -40.468  53.816 -52.186  1.00  0.00     0.154 C 
ENDROOT
BRANCH   1   2
HETATM    2  N   UNL     1     -40.690  53.824 -50.747  1.00  0.00    -0.348 N 
HETATM    3  C   UNL     1     -40.624  54.992 -50.027  1.00  0.00     0.218 C 
HETATM    4  O   UNL     1     -40.360  56.076 -50.544  1.00  0.00    -0.274 OA
HETATM    5  H   UNL     1     -41.248  53.076 -50.365  1.00  0.00     0.163 HD
BRANCH   3   6
HETATM    6  C   UNL     1     -40.986  54.872 -48.561  1.00  0.00     0.098 C 
HETATM    7  C   UNL     1     -40.256  53.752 -47.837  1.00  0.00     0.014 C 
ENDBRANCH   3   6
ENDBRANCH   1   2
BRANCH   1   8
HETATM    8  C   UNL     1     -41.601  54.569 -52.872  1.00  0.00     0.005 A 
HETATM    9  C   UNL     1     -41.349  55.489 -53.911  1.00  0.00     0.103 A 
HETATM   10  C   UNL     1     -42.370  56.195 -54.573  1.00  0.00     0.100 A 
HETATM   11  C   UNL     1     -43.695  55.975 -54.140  1.00  0.00    -0.004 A 
HETATM   12  N   UNL     1     -42.102  57.066 -55.576  1.00  0.00    -0.257 NA
HETATM   13  C   UNL     1     -43.965  55.084 -53.090  1.00  0.00     0.014 A 
HETATM   14  C   UNL     1     -44.734  56.667 -54.778  1.00  0.00     0.015 A 
HETATM   15  C   UNL     1     -42.931  54.394 -52.460  1.00  0.00     0.013 A 
HETATM   16  C   UNL     1     -44.448  57.550 -55.811  1.00  0.00     0.020 A 
HETATM   17  C   UNL     1     -43.126  57.713 -56.170  1.00  0.00     0.117 A 
BRANCH   9  18
HETATM   18  O   UNL     1     -40.049  55.710 -54.317  1.00  0.00    -0.358 OA
HETATM   19  H   UNL     1     -39.871  55.146 -55.102  1.00  0.00     0.218 HD
ENDBRANCH   9  18
ENDBRANCH   1   8
BRANCH   1  20
HETATM   20  C   UNL     1     -40.231  52.413 -52.750  1.00  0.00    -0.031 A 
HETATM   21  C   UNL     1     -39.716  51.427 -51.888  1.00  0.00     0.009 A 
HETATM   22  C   UNL     1     -39.471  50.130 -52.341  1.00  0.00     0.001 A 
HETATM   23  C   UNL     1     -39.731  49.797 -53.666  1.00  0.00     0.000 A 
HETATM   24  C   UNL     1     -40.235  50.759 -54.537  1.00  0.00     0.001 A 
HETATM   25  C   UNL     1     -40.486  52.058 -54.085  1.00  0.00     0.009 A 
ENDBRANCH   1  20
TORSDOF 5
ENDMDL
MODEL 4
REMARK VINA RESULT:      -6.9      2.593      5.988
REMARK  5 active torsions:
REMARK  status: ('A' for Active; 'I' for Inactive)
REMARK    1  A    between atoms: C_2  and  C_3 
REMARK       I    between atoms: C_3  and  N_4 
REMARK    2  A    between atoms: N_4  and  C_5 
REMARK    3  A    between atoms: C_5  and  C_6 
REMARK    4  A    between atoms: C_5  and  C_17 
REMARK    5  A    between atoms: C_7  and  O_8 
ROOT
HETATM    1  C   UNL     1     -41.719  55.322 -53.243  1.00  0.00     0.154 C 
ENDROOT
BRANCH   1   2
HETATM    2  N   UNL     1     -42.857  55.491 -52.351  1.00  0.00    -0.348 N 
HETATM    3  C   UNL     1     -43.065  56.674 -51.685  1.00  0.00     0.218 C 
HETATM    4  O   UNL     1     -42.305  57.636 -51.787  1.00  0.00    -0.274 OA
HETATM    5  H   UNL     1     -43.662  54.908 -52.520  1.00  0.00     0.163 HD
BRANCH   3   6
HETATM    6  C   UNL     1     -44.347  56.749 -50.880  1.00  0.00     0.098 C 
HETATM    7  C   UNL     1     -45.165  58.004 -51.142  1.00  0.00     0.014 C 
ENDBRANCH   3   6
ENDBRANCH   1   2
BRANCH   1   8
HETATM    8  C   UNL     1     -42.172  55.544 -54.681  1.00  0.00     0.005 A 
HETATM    9  C   UNL     1     -42.033  56.799 -55.309  1.00  0.00     0.103 A 
HETATM   10  C   UNL     1     -42.431  57.038 -56.637  1.00  0.00     0.100 A 
HETATM   11  C   UNL     1     -43.016  55.965 -57.341  1.00  0.00    -0.004 A 
HETATM   12  N   UNL     1     -42.277  58.250 -57.222  1.00  0.00    -0.257 NA
HETATM   13  C   UNL     1     -43.187  54.715 -56.725  1.00  0.00     0.014 A 
HETATM   14  C   UNL     1     -43.426  56.172 -58.665  1.00  0.00     0.015 A 
HETATM   15  C   UNL     1     -42.775  54.509 -55.410  1.00  0.00     0.013 A 
HETATM   16  C   UNL     1     -43.255  57.417 -59.257  1.00  0.00     0.020 A 
HETATM   17  C   UNL     1     -42.680  58.416 -58.499  1.00  0.00     0.117 A 
BRANCH   9  18
HETATM   18  O   UNL     1     -41.474  57.847 -54.609  1.00  0.00    -0.358 OA
HETATM   19  H   UNL     1     -41.343  57.562 -53.677  1.00  0.00     0.218 HD
ENDBRANCH   9  18
ENDBRANCH   1   8
BRANCH   1  20
HETATM   20  C   UNL     1     -40.977  54.001 -53.028  1.00  0.00    -0.031 A 
HETATM   21  C   UNL     1     -40.758  53.567 -51.706  1.00  0.00     0.009 A 
HETATM   22  C   UNL     1     -40.083  52.375 -51.441  1.00  0.00     0.001 A 
HETATM   23  C   UNL     1     -39.608  51.597 -52.493  1.00  0.00     0.000 A 
HETATM   24  C   UNL     1     -39.808  52.012 -53.807  1.00  0.00     0.001 A 
HETATM   25  C   UNL     1     -40.488  53.204 -54.075  1.00  0.00     0.009 A 
ENDBRANCH   1  20
TORSDOF 5
ENDMDL
MODEL 5
REMARK VINA RESULT:      -6.9      1.955      6.203
REMARK  5 active torsions:
REMARK  status: ('A' for Active; 'I' for Inactive)
REMARK    1  A    between atoms: C_2  and  C_3 
REMARK       I    between atoms: C_3  and  N_4 
REMARK    2  A    between atoms: N_4  and  C_5 
REMARK    3  A    between atoms: C_5  and  C_6 
REMARK    4  A    between atoms: C_5  and  C_17 
REMARK    5  A    between atoms: C_7  and  O_8 
ROOT
HETATM    1  C   UNL     1     -41.091  57.121 -53.656  1.00  0.00     0.154 C 
ENDROOT
BRANCH   1   2
HETATM    2  N   UNL     1     -41.062  57.718 -52.328  1.00  0.00    -0.348 N 
HETATM    3  C   UNL     1     -40.202  58.747 -52.032  1.00  0.00     0.218 C 
HETATM    4  O   UNL     1     -39.407  59.204 -52.852  1.00  0.00    -0.274 OA
HETATM    5  H   UNL     1     -41.902  57.643 -51.774  1.00  0.00     0.163 HD
BRANCH   3   6
HETATM    6  C   UNL     1     -40.358  59.346 -50.649  1.00  0.00     0.098 C 
HETATM    7  C   UNL     1     -41.676  60.075 -50.440  1.00  0.00     0.014 C 
ENDBRANCH   3   6
ENDBRANCH   1   2
BRANCH   1   8
HETATM    8  C   UNL     1     -42.371  57.543 -54.367  1.00  0.00     0.005 A 
HETATM    9  C   UNL     1     -42.467  58.780 -55.037  1.00  0.00     0.103 A 
HETATM   10  C   UNL     1     -43.628  59.198 -55.711  1.00  0.00     0.100 A 
HETATM   11  C   UNL     1     -44.742  58.332 -55.678  1.00  0.00    -0.004 A 
HETATM   12  N   UNL     1     -43.691  60.387 -56.357  1.00  0.00    -0.257 NA
HETATM   13  C   UNL     1     -44.677  57.108 -54.995  1.00  0.00     0.014 A 
HETATM   14  C   UNL     1     -45.916  58.722 -56.339  1.00  0.00     0.015 A 
HETATM   15  C   UNL     1     -43.508  56.721 -54.342  1.00  0.00     0.013 A 
HETATM   16  C   UNL     1     -45.965  59.940 -57.004  1.00  0.00     0.020 A 
HETATM   17  C   UNL     1     -44.835  60.730 -56.985  1.00  0.00     0.117 A 
BRANCH   9  18
HETATM   18  O   UNL     1     -41.378  59.626 -55.051  1.00  0.00    -0.358 OA
HETATM   19  H   UNL     1     -40.627  59.172 -54.607  1.00  0.00     0.218 HD
ENDBRANCH   9  18
ENDBRANCH   1   8
BRANCH   1  20
HETATM   20  C   UNL     1     -40.864  55.608 -53.641  1.00  0.00    -0.031 A 
HETATM   21  C   UNL     1     -40.432  54.987 -54.828  1.00  0.00     0.009 A 
HETATM   22  C   UNL     1     -40.212  53.611 -54.883  1.00  0.00     0.001 A 
HETATM   23  C   UNL     1     -40.425  52.828 -53.753  1.00  0.00     0.000 A 
HETATM   24  C   UNL     1     -40.859  53.420 -52.570  1.00  0.00     0.001 A 
HETATM   25  C   UNL     1     -41.076  54.801 -52.511  1.00  0.00     0.009 A 
ENDBRANCH   1  20
TORSDOF 5
ENDMDL
MODEL 6
REMARK VINA RESULT:      -6.8      2.767      6.644
REMARK  5 active torsions:
REMARK  status: ('A' for Active; 'I' for Inactive)
REMARK    1  A    between atoms: C_2  and  C_3 
REMARK       I    between atoms: C_3  and  N_4 
REMARK    2  A    between atoms: N_4  and  C_5 
REMARK    3  A    between atoms: C_5  and  C_6 
REMARK    4  A    between atoms: C_5  and  C_17 
REMARK    5  A    between atoms: C_7  and  O_8 
ROOT
HETATM    1  C   UNL     1     -42.218  55.589 -54.322  1.00  0.00     0.154 C 
ENDROOT
BRANCH   1   2
HETATM    2  N   UNL     1     -41.929  55.948 -55.704  1.00  0.00    -0.348 N 
HETATM    3  C   UNL     1     -42.874  56.563 -56.489  1.00  0.00     0.218 C 
HETATM    4  O   UNL     1     -44.005  56.825 -56.083  1.00  0.00    -0.274 OA
HETATM    5  H   UNL     1     -40.961  56.092 -55.946  1.00  0.00     0.163 HD
BRANCH   3   6
HETATM    6  C   UNL     1     -42.401  56.981 -57.866  1.00  0.00     0.098 C 
HETATM    7  C   UNL     1     -42.926  56.101 -58.989  1.00  0.00     0.014 C 
ENDBRANCH   3   6
ENDBRANCH   1   2
BRANCH   1   8
HETATM    8  C   UNL     1     -42.079  56.826 -53.444  1.00  0.00     0.005 A 
HETATM    9  C   UNL     1     -43.191  57.388 -52.783  1.00  0.00     0.103 A 
HETATM   10  C   UNL     1     -43.098  58.522 -51.957  1.00  0.00     0.100 A 
HETATM   11  C   UNL     1     -41.828  59.122 -51.821  1.00  0.00    -0.004 A 
HETATM   12  N   UNL     1     -44.180  59.036 -51.324  1.00  0.00    -0.257 NA
HETATM   13  C   UNL     1     -40.713  58.595 -52.491  1.00  0.00     0.014 A 
HETATM   14  C   UNL     1     -41.704  60.256 -51.007  1.00  0.00     0.015 A 
HETATM   15  C   UNL     1     -40.839  57.464 -53.297  1.00  0.00     0.013 A 
HETATM   16  C   UNL     1     -42.819  60.769 -50.357  1.00  0.00     0.020 A 
HETATM   17  C   UNL     1     -44.025  60.128 -50.546  1.00  0.00     0.117 A 
BRANCH   9  18
HETATM   18  O   UNL     1     -44.432  56.804 -52.933  1.00  0.00    -0.358 OA
HETATM   19  H   UNL     1     -44.505  56.063 -52.291  1.00  0.00     0.218 HD
ENDBRANCH   9  18
ENDBRANCH   1   8
BRANCH   1  20
HETATM   20  C   UNL     1     -41.408  54.389 -53.830  1.00  0.00    -0.031 A 
HETATM   21  C   UNL     1     -40.788  53.564 -54.789  1.00  0.00     0.009 A 
HETATM   22  C   UNL     1     -40.039  52.451 -54.407  1.00  0.00     0.001 A 
HETATM   23  C   UNL     1     -39.901  52.137 -53.058  1.00  0.00     0.000 A 
HETATM   24  C   UNL     1     -40.511  52.935 -52.094  1.00  0.00     0.001 A 
HETATM   25  C   UNL     1     -41.258  54.054 -52.474  1.00  0.00     0.009 A 
ENDBRANCH   1  20
TORSDOF 5
ENDMDL
MODEL 7
REMARK VINA RESULT:      -6.8     16.261     18.623
REMARK  5 active torsions:
REMARK  status: ('A' for Active; 'I' for Inactive)
REMARK    1  A    between atoms: C_2  and  C_3 
REMARK       I    between atoms: C_3  and  N_4 
REMARK    2  A    between atoms: N_4  and  C_5 
REMARK    3  A    between atoms: C_5  and  C_6 
REMARK    4  A    between atoms: C_5  and  C_17 
REMARK    5  A    between atoms: C_7  and  O_8 
ROOT
HETATM    1  C   UNL     1     -33.195  39.593 -54.985  1.00  0.00     0.154 C 
ENDROOT
BRANCH   1   2
HETATM    2  N   UNL     1     -31.837  39.759 -55.485  1.00  0.00    -0.348 N 
HETATM    3  C   UNL     1     -31.181  38.726 -56.109  1.00  0.00     0.218 C 
HETATM    4  O   UNL     1     -31.685  37.616 -56.262  1.00  0.00    -0.274 OA
HETATM    5  H   UNL     1     -31.544  40.697 -55.710  1.00  0.00     0.163 HD
BRANCH   3   6
HETATM    6  C   UNL     1     -29.820  39.073 -56.679  1.00  0.00     0.098 C 
HETATM    7  C   UNL     1     -28.692  38.200 -56.152  1.00  0.00     0.014 C 
ENDBRANCH   3   6
ENDBRANCH   1   2
BRANCH   1   8
HETATM    8  C   UNL     1     -34.164  40.302 -55.922  1.00  0.00     0.005 A 
HETATM    9  C   UNL     1     -34.767  39.628 -57.004  1.00  0.00     0.103 A 
HETATM   10  C   UNL     1     -35.673  40.247 -57.883  1.00  0.00     0.100 A 
HETATM   11  C   UNL     1     -35.955  41.613 -57.666  1.00  0.00    -0.004 A 
HETATM   12  N   UNL     1     -36.247  39.575 -58.909  1.00  0.00    -0.257 NA
HETATM   13  C   UNL     1     -35.346  42.310 -56.611  1.00  0.00     0.014 A 
HETATM   14  C   UNL     1     -36.852  42.260 -58.528  1.00  0.00     0.015 A 
HETATM   15  C   UNL     1     -34.457  41.663 -55.753  1.00  0.00     0.013 A 
HETATM   16  C   UNL     1     -37.440  41.557 -59.571  1.00  0.00     0.020 A 
HETATM   17  C   UNL     1     -37.108  40.227 -59.718  1.00  0.00     0.117 A 
BRANCH   9  18
HETATM   18  O   UNL     1     -34.474  38.297 -57.218  1.00  0.00    -0.358 OA
HETATM   19  H   UNL     1     -33.694  38.060 -56.669  1.00  0.00     0.218 HD
ENDBRANCH   9  18
ENDBRANCH   1   8
BRANCH   1  20
HETATM   20  C   UNL     1     -33.349  39.997 -53.517  1.00  0.00    -0.031 A 
HETATM   21  C   UNL     1     -32.186  40.296 -52.783  1.00  0.00     0.009 A 
HETATM   22  C   UNL     1     -32.257  40.666 -51.439  1.00  0.00     0.001 A 
HETATM   23  C   UNL     1     -33.492  40.736 -50.803  1.00  0.00     0.000 A 
HETATM   24  C   UNL     1     -34.654  40.438 -51.509  1.00  0.00     0.001 A 
HETATM   25  C   UNL     1     -34.586  40.072 -52.857  1.00  0.00     0.009 A 
ENDBRANCH   1  20
TORSDOF 5
ENDMDL
MODEL 8
REMARK VINA RESULT:      -6.7      2.301      4.165
REMARK  5 active torsions:
REMARK  status: ('A' for Active; 'I' for Inactive)
REMARK    1  A    between atoms: C_2  and  C_3 
REMARK       I    between atoms: C_3  and  N_4 
REMARK    2  A    between atoms: N_4  and  C_5 
REMARK    3  A    between atoms: C_5  and  C_6 
REMARK    4  A    between atoms: C_5  and  C_17 
REMARK    5  A    between atoms: C_7  and  O_8 
ROOT
HETATM    1  C   UNL     1     -41.357  56.610 -53.963  1.00  0.00     0.154 C 
ENDROOT
BRANCH   1   2
HETATM    2  N   UNL     1     -42.387  56.409 -54.973  1.00  0.00    -0.348 N 
HETATM    3  C   UNL     1     -42.580  57.325 -55.979  1.00  0.00     0.218 C 
HETATM    4  O   UNL     1     -41.918  58.357 -56.073  1.00  0.00    -0.274 OA
HETATM    5  H   UNL     1     -42.676  55.460 -55.150  1.00  0.00     0.163 HD
BRANCH   3   6
HETATM    6  C   UNL     1     -43.606  56.934 -57.023  1.00  0.00     0.098 C 
HETATM    7  C   UNL     1     -43.144  55.824 -57.954  1.00  0.00     0.014 C 
ENDBRANCH   3   6
ENDBRANCH   1   2
BRANCH   1   8
HETATM    8  C   UNL     1     -40.976  55.262 -53.363  1.00  0.00     0.005 A 
HETATM    9  C   UNL     1     -40.625  54.167 -54.179  1.00  0.00     0.103 A 
HETATM   10  C   UNL     1     -40.258  52.912 -53.660  1.00  0.00     0.100 A 
HETATM   11  C   UNL     1     -40.275  52.761 -52.257  1.00  0.00    -0.004 A 
HETATM   12  N   UNL     1     -39.915  51.878 -54.465  1.00  0.00    -0.257 NA
HETATM   13  C   UNL     1     -40.646  53.831 -51.428  1.00  0.00     0.014 A 
HETATM   14  C   UNL     1     -39.918  51.522 -51.710  1.00  0.00     0.015 A 
HETATM   15  C   UNL     1     -40.998  55.064 -51.974  1.00  0.00     0.013 A 
HETATM   16  C   UNL     1     -39.560  50.472 -52.545  1.00  0.00     0.020 A 
HETATM   17  C   UNL     1     -39.574  50.699 -53.905  1.00  0.00     0.117 A 
BRANCH   9  18
HETATM   18  O   UNL     1     -40.626  54.318 -55.550  1.00  0.00    -0.358 OA
HETATM   19  H   UNL     1     -41.543  54.529 -55.837  1.00  0.00     0.218 HD
ENDBRANCH   9  18
ENDBRANCH   1   8
BRANCH   1  20
HETATM   20  C   UNL     1     -41.735  57.664 -52.920  1.00  0.00    -0.031 A 
HETATM   21  C   UNL     1     -40.731  58.541 -52.465  1.00  0.00     0.009 A 
HETATM   22  C   UNL     1     -41.008  59.521 -51.511  1.00  0.00     0.001 A 
HETATM   23  C   UNL     1     -42.292  59.639 -50.990  1.00  0.00     0.000 A 
HETATM   24  C   UNL     1     -43.298  58.778 -51.421  1.00  0.00     0.001 A 
HETATM   25  C   UNL     1     -43.024  57.798 -52.380  1.00  0.00     0.009 A 
ENDBRANCH   1  20
TORSDOF 5
ENDMDL
MODEL 9
REMARK VINA RESULT:      -6.7      2.614      6.167
REMARK  5 active torsions:
REMARK  status: ('A' for Active; 'I' for Inactive)
REMARK    1  A    between atoms: C_2  and  C_3 
REMARK       I    between atoms: C_3  and  N_4 
REMARK    2  A    between atoms: N_4  and  C_5 
REMARK    3  A    between atoms: C_5  and  C_6 
REMARK    4  A    between atoms: C_5  and  C_17 
REMARK    5  A    between atoms: C_7  and  O_8 
ROOT
HETATM    1  C   UNL     1     -40.987  53.913 -52.910  1.00  0.00     0.154 C 
ENDROOT
BRANCH   1   2
HETATM    2  N   UNL     1     -41.905  54.059 -51.789  1.00  0.00    -0.348 N 
HETATM    3  C   UNL     1     -41.837  55.149 -50.956  1.00  0.00     0.218 C 
HETATM    4  O   UNL     1     -41.001  56.040 -51.096  1.00  0.00    -0.274 OA
HETATM    5  H   UNL     1     -42.791  53.583 -51.858  1.00  0.00     0.163 HD
BRANCH   3   6
HETATM    6  C   UNL     1     -42.923  55.228 -49.902  1.00  0.00     0.098 C 
HETATM    7  C   UNL     1     -44.212  54.523 -50.294  1.00  0.00     0.014 C 
ENDBRANCH   3   6
ENDBRANCH   1   2
BRANCH   1   8
HETATM    8  C   UNL     1     -41.657  54.430 -54.177  1.00  0.00     0.005 A 
HETATM    9  C   UNL     1     -41.433  55.741 -54.645  1.00  0.00     0.103 A 
HETATM   10  C   UNL     1     -42.026  56.250 -55.814  1.00  0.00     0.100 A 
HETATM   11  C   UNL     1     -42.902  55.397 -56.519  1.00  0.00    -0.004 A 
HETATM   12  N   UNL     1     -41.786  57.510 -56.248  1.00  0.00    -0.257 NA
HETATM   13  C   UNL     1     -43.161  54.097 -56.056  1.00  0.00     0.014 A 
HETATM   14  C   UNL     1     -43.512  55.876 -57.686  1.00  0.00     0.015 A 
HETATM   15  C   UNL     1     -42.550  53.622 -54.897  1.00  0.00     0.013 A 
HETATM   16  C   UNL     1     -43.252  57.167 -58.126  1.00  0.00     0.020 A 
HETATM   17  C   UNL     1     -42.387  57.938 -57.378  1.00  0.00     0.117 A 
BRANCH   9  18
HETATM   18  O   UNL     1     -40.587  56.574 -53.942  1.00  0.00    -0.358 OA
HETATM   19  H   UNL     1     -40.017  56.019 -53.364  1.00  0.00     0.218 HD
ENDBRANCH   9  18
ENDBRANCH   1   8
BRANCH   1  20
HETATM   20  C   UNL     1     -40.423  52.497 -53.046  1.00  0.00    -0.031 A 
HETATM   21  C   UNL     1     -40.402  51.907 -54.324  1.00  0.00     0.009 A 
HETATM   22  C   UNL     1     -39.906  50.617 -54.515  1.00  0.00     0.001 A 
HETATM   23  C   UNL     1     -39.428  49.889 -53.430  1.00  0.00     0.000 A 
HETATM   24  C   UNL     1     -39.446  50.451 -52.156  1.00  0.00     0.001 A 
HETATM   25  C   UNL     1     -39.938  51.746 -51.963  1.00  0.00     0.009 A 
ENDBRANCH   1  20
TORSDOF 5
ENDMDL
MODEL 10
REMARK VINA RESULT:      -6.6      2.489      6.050
REMARK  5 active torsions:
REMARK  status: ('A' for Active; 'I' for Inactive)
REMARK    1  A    between atoms: C_2  and  C_3 
REMARK       I    between atoms: C_3  and  N_4 
REMARK    2  A    between atoms: N_4  and  C_5 
REMARK    3  A    between atoms: C_5  and  C_6 
REMARK    4  A    between atoms: C_5  and  C_17 
REMARK    5  A    between atoms: C_7  and  O_8 
ROOT
HETATM    1  C   UNL     1     -40.280  53.804 -52.299  1.00  0.00     0.154 C 
ENDROOT
BRANCH   1   2
HETATM    2  N   UNL     1     -40.898  53.928 -50.986  1.00  0.00    -0.348 N 
HETATM    3  C   UNL     1     -40.139  54.164 -49.866  1.00  0.00     0.218 C 
HETATM    4  O   UNL     1     -38.914  54.265 -49.903  1.00  0.00    -0.274 OA
HETATM    5  H   UNL     1     -41.864  54.215 -50.960  1.00  0.00     0.163 HD
BRANCH   3   6
HETATM    6  C   UNL     1     -40.921  54.382 -48.587  1.00  0.00     0.098 C 
HETATM    7  C   UNL     1     -40.203  53.900 -47.337  1.00  0.00     0.014 C 
ENDBRANCH   3   6
ENDBRANCH   1   2
BRANCH   1   8
HETATM    8  C   UNL     1     -41.026  54.691 -53.289  1.00  0.00     0.005 A 
HETATM    9  C   UNL     1     -42.345  55.122 -53.040  1.00  0.00     0.103 A 
HETATM   10  C   UNL     1     -43.061  55.948 -53.926  1.00  0.00     0.100 A 
HETATM   11  C   UNL     1     -42.416  56.326 -55.123  1.00  0.00    -0.004 A 
HETATM   12  N   UNL     1     -44.324  56.358 -53.658  1.00  0.00    -0.257 NA
HETATM   13  C   UNL     1     -41.113  55.886 -55.402  1.00  0.00     0.014 A 
HETATM   14  C   UNL     1     -43.105  57.146 -56.027  1.00  0.00     0.015 A 
HETATM   15  C   UNL     1     -40.429  55.073 -54.499  1.00  0.00     0.013 A 
HETATM   16  C   UNL     1     -44.396  57.566 -55.738  1.00  0.00     0.020 A 
HETATM   17  C   UNL     1     -44.957  57.148 -54.550  1.00  0.00     0.117 A 
BRANCH   9  18
HETATM   18  O   UNL     1     -42.974  54.735 -51.875  1.00  0.00    -0.358 OA
HETATM   19  H   UNL     1     -43.279  55.544 -51.405  1.00  0.00     0.218 HD
ENDBRANCH   9  18
ENDBRANCH   1   8
BRANCH   1  20
HETATM   20  C   UNL     1     -40.132  52.353 -52.761  1.00  0.00    -0.031 A 
HETATM   21  C   UNL     1     -40.590  52.014 -54.049  1.00  0.00     0.009 A 
HETATM   22  C   UNL     1     -40.490  50.707 -54.528  1.00  0.00     0.001 A 
HETATM   23  C   UNL     1     -39.936  49.714 -53.726  1.00  0.00     0.000 A 
HETATM   24  C   UNL     1     -39.484  50.027 -52.447  1.00  0.00     0.001 A 
HETATM   25  C   UNL     1     -39.579  51.336 -51.966  1.00  0.00     0.009 A 
ENDBRANCH   1  20
TORSDOF 5
ENDMDL
