MODEL 1
REMARK VINA RESULT:      -7.3      0.000      0.000
REMARK  4 active torsions:
REMARK  status: ('A' for Active; 'I' for Inactive)
REMARK    1  A    between atoms: C_4  and  N_5 
REMARK       I    between atoms: N_5  and  C_6 
REMARK    2  A    between atoms: C_6  and  C_7 
REMARK    3  A    between atoms: C_7  and  O_8 
REMARK    4  A    between atoms: O_8  and  C_9 
ROOT
HETATM    1  N   UNL     1     -40.569  53.625 -50.434  1.00  0.00    -0.309 N 
HETATM    2  C   UNL     1     -41.620  54.433 -50.115  1.00  0.00     0.252 C 
HETATM    3  O   UNL     1     -41.536  55.032 -49.034  1.00  0.00    -0.270 OA
HETATM    4  H   UNL     1     -39.880  53.593 -49.695  1.00  0.00     0.170 HD
ENDROOT
BRANCH   2   5
HETATM    5  C   UNL     1     -42.861  54.570 -51.025  1.00  0.00     0.217 C 
HETATM    6  C   UNL     1     -44.109  54.656 -50.146  1.00  0.00     0.050 C 
BRANCH   5   7
HETATM    7  O   UNL     1     -42.865  55.779 -51.797  1.00  0.00    -0.335 OA
BRANCH   7   8
HETATM    8  C   UNL     1     -42.905  55.701 -53.163  1.00  0.00     0.091 A 
HETATM    9  C   UNL     1     -42.227  56.708 -53.872  1.00  0.00     0.069 A 
HETATM   10 CL   UNL     1     -41.376  57.971 -53.049  1.00  0.00    -0.081 Cl
HETATM   11  C   UNL     1     -42.213  56.718 -55.269  1.00  0.00     0.050 A 
HETATM   12  C   UNL     1     -42.890  55.724 -55.966  1.00  0.00     0.035 A 
HETATM   13 CL   UNL     1     -42.884  55.730 -57.686  1.00  0.00    -0.084 Cl
HETATM   14  C   UNL     1     -43.579  54.726 -55.280  1.00  0.00     0.026 A 
HETATM   15  C   UNL     1     -43.588  54.714 -53.881  1.00  0.00     0.040 A 
ENDBRANCH   7   8
ENDBRANCH   5   7
ENDBRANCH   2   5
BRANCH   1  16
HETATM   16  C   UNL     1     -40.304  52.896 -51.592  1.00  0.00     0.130 A 
HETATM   17  C   UNL     1     -40.334  53.588 -52.800  1.00  0.00     0.057 A 
HETATM   18  C   UNL     1     -40.067  52.906 -53.989  1.00  0.00    -0.057 A 
HETATM   19  C   UNL     1     -40.060  53.616 -55.310  1.00  0.00     0.048 C 
HETATM   20  C   UNL     1     -39.788  51.543 -53.922  1.00  0.00     0.033 A 
HETATM   21  C   UNL     1     -39.789  50.917 -52.681  1.00  0.00     0.033 A 
HETATM   22  N   UNL     1     -40.043  51.580 -51.528  1.00  0.00    -0.236 NA
HETATM   23  C   UNL     1     -39.491  49.451 -52.578  1.00  0.00     0.070 C 
ENDBRANCH   1  16
TORSDOF 4
ENDMDL
MODEL 2
REMARK VINA RESULT:      -7.2      2.093      3.026
REMARK  4 active torsions:
REMARK  status: ('A' for Active; 'I' for Inactive)
REMARK    1  A    between atoms: C_4  and  N_5 
REMARK       I    between atoms: N_5  and  C_6 
REMARK    2  A    between atoms: C_6  and  C_7 
REMARK    3  A    between atoms: C_7  and  O_8 
REMARK    4  A    between atoms: O_8  and  C_9 
ROOT
HETATM    1  N   UNL     1     -40.588  53.376 -50.459  1.00  0.00    -0.309 N 
HETATM    2  C   UNL     1     -41.474  54.247 -49.895  1.00  0.00     0.252 C 
HETATM    3  O   UNL     1     -41.366  54.417 -48.674  1.00  0.00    -0.270 OA
HETATM    4  H   UNL     1     -39.991  52.947 -49.766  1.00  0.00     0.170 HD
ENDROOT
BRANCH   2   5
HETATM    5  C   UNL     1     -42.574  54.953 -50.721  1.00  0.00     0.217 C 
HETATM    6  C   UNL     1     -43.938  54.421 -50.280  1.00  0.00     0.050 C 
BRANCH   5   7
HETATM    7  O   UNL     1     -42.634  56.367 -50.489  1.00  0.00    -0.335 OA
BRANCH   7   8
HETATM    8  C   UNL     1     -42.417  57.226 -51.532  1.00  0.00     0.091 A 
HETATM    9  C   UNL     1     -43.528  57.961 -51.985  1.00  0.00     0.069 A 
HETATM   10 CL   UNL     1     -45.083  57.789 -51.245  1.00  0.00    -0.081 Cl
HETATM   11  C   UNL     1     -43.410  58.860 -53.048  1.00  0.00     0.050 A 
HETATM   12  C   UNL     1     -42.178  59.021 -53.672  1.00  0.00     0.035 A 
HETATM   13 CL   UNL     1     -42.022  60.122 -54.985  1.00  0.00    -0.084 Cl
HETATM   14  C   UNL     1     -41.071  58.291 -53.246  1.00  0.00     0.026 A 
HETATM   15  C   UNL     1     -41.189  57.394 -52.178  1.00  0.00     0.040 A 
ENDBRANCH   7   8
ENDBRANCH   5   7
ENDBRANCH   2   5
BRANCH   1  16
HETATM   16  C   UNL     1     -40.378  53.033 -51.793  1.00  0.00     0.130 A 
HETATM   17  C   UNL     1     -40.060  51.704 -52.064  1.00  0.00     0.057 A 
HETATM   18  C   UNL     1     -39.848  51.305 -53.386  1.00  0.00    -0.057 A 
HETATM   19  C   UNL     1     -39.532  49.881 -53.728  1.00  0.00     0.048 C 
HETATM   20  C   UNL     1     -39.955  52.264 -54.392  1.00  0.00     0.033 A 
HETATM   21  C   UNL     1     -40.263  53.573 -54.043  1.00  0.00     0.033 A 
HETATM   22  N   UNL     1     -40.473  53.958 -52.761  1.00  0.00    -0.236 NA
HETATM   23  C   UNL     1     -40.384  54.625 -55.105  1.00  0.00     0.070 C 
ENDBRANCH   1  16
TORSDOF 4
ENDMDL
MODEL 3
REMARK VINA RESULT:      -7.1      3.496      6.321
REMARK  4 active torsions:
REMARK  status: ('A' for Active; 'I' for Inactive)
REMARK    1  A    between atoms: C_4  and  N_5 
REMARK       I    between atoms: N_5  and  C_6 
REMARK    2  A    between atoms: C_6  and  C_7 
REMARK    3  A    between atoms: C_7  and  O_8 
REMARK    4  A    between atoms: O_8  and  C_9 
ROOT
HETATM    1  N   UNL     1     -43.610  56.847 -54.878  1.00  0.00    -0.309 N 
HETATM    2  C   UNL     1     -42.943  56.350 -53.797  1.00  0.00     0.252 C 
HETATM    3  O   UNL     1     -43.648  55.971 -52.852  1.00  0.00    -0.270 OA
HETATM    4  H   UNL     1     -44.608  56.882 -54.722  1.00  0.00     0.170 HD
ENDROOT
BRANCH   2   5
HETATM    5  C   UNL     1     -41.400  56.294 -53.735  1.00  0.00     0.217 C 
HETATM    6  C   UNL     1     -40.873  57.677 -53.348  1.00  0.00     0.050 C 
BRANCH   5   7
HETATM    7  O   UNL     1     -40.908  55.411 -52.717  1.00  0.00    -0.335 OA
BRANCH   7   8
HETATM    8  C   UNL     1     -40.603  54.117 -53.044  1.00  0.00     0.091 A 
HETATM    9  C   UNL     1     -40.142  53.295 -52.000  1.00  0.00     0.069 A 
HETATM   10 CL   UNL     1     -39.985  53.895 -50.385  1.00  0.00    -0.081 Cl
HETATM   11  C   UNL     1     -39.800  51.961 -52.234  1.00  0.00     0.050 A 
HETATM   12  C   UNL     1     -39.908  51.443 -53.519  1.00  0.00     0.035 A 
HETATM   13 CL   UNL     1     -39.485  49.803 -53.820  1.00  0.00    -0.084 Cl
HETATM   14  C   UNL     1     -40.349  52.247 -54.568  1.00  0.00     0.026 A 
HETATM   15  C   UNL     1     -40.695  53.582 -54.333  1.00  0.00     0.040 A 
ENDBRANCH   7   8
ENDBRANCH   5   7
ENDBRANCH   2   5
BRANCH   1  16
HETATM   16  C   UNL     1     -43.138  57.266 -56.121  1.00  0.00     0.130 A 
HETATM   17  C   UNL     1     -43.205  56.349 -57.168  1.00  0.00     0.057 A 
HETATM   18  C   UNL     1     -42.755  56.722 -58.436  1.00  0.00    -0.057 A 
HETATM   19  C   UNL     1     -42.834  55.779 -59.599  1.00  0.00     0.048 C 
HETATM   20  C   UNL     1     -42.240  58.006 -58.606  1.00  0.00     0.033 A 
HETATM   21  C   UNL     1     -42.192  58.860 -57.511  1.00  0.00     0.033 A 
HETATM   22  N   UNL     1     -42.635  58.500 -56.282  1.00  0.00    -0.236 NA
HETATM   23  C   UNL     1     -41.644  60.248 -57.663  1.00  0.00     0.070 C 
ENDBRANCH   1  16
TORSDOF 4
ENDMDL
MODEL 4
REMARK VINA RESULT:      -7.1      3.846      6.787
REMARK  4 active torsions:
REMARK  status: ('A' for Active; 'I' for Inactive)
REMARK    1  A    between atoms: C_4  and  N_5 
REMARK       I    between atoms: N_5  and  C_6 
REMARK    2  A    between atoms: C_6  and  C_7 
REMARK    3  A    between atoms: C_7  and  O_8 
REMARK    4  A    between atoms: O_8  and  C_9 
ROOT
HETATM    1  N   UNL     1     -41.756  58.284 -54.307  1.00  0.00    -0.309 N 
HETATM    2  C   UNL     1     -42.111  57.024 -54.688  1.00  0.00     0.252 C 
HETATM    3  O   UNL     1     -42.083  56.796 -55.905  1.00  0.00    -0.270 OA
HETATM    4  H   UNL     1     -41.568  58.879 -55.102  1.00  0.00     0.170 HD
ENDROOT
BRANCH   2   5
HETATM    5  C   UNL     1     -42.558  55.950 -53.671  1.00  0.00     0.217 C 
HETATM    6  C   UNL     1     -43.618  55.062 -54.324  1.00  0.00     0.050 C 
BRANCH   5   7
HETATM    7  O   UNL     1     -41.503  55.053 -53.296  1.00  0.00    -0.335 OA
BRANCH   7   8
HETATM    8  C   UNL     1     -41.231  54.857 -51.969  1.00  0.00     0.091 A 
HETATM    9  C   UNL     1     -40.611  53.642 -51.625  1.00  0.00     0.069 A 
HETATM   10 CL   UNL     1     -40.204  52.467 -52.829  1.00  0.00    -0.081 Cl
HETATM   11  C   UNL     1     -40.296  53.346 -50.296  1.00  0.00     0.050 A 
HETATM   12  C   UNL     1     -40.612  54.262 -49.300  1.00  0.00     0.035 A 
HETATM   13 CL   UNL     1     -40.235  53.907 -47.660  1.00  0.00    -0.084 Cl
HETATM   14  C   UNL     1     -41.240  55.464 -49.620  1.00  0.00     0.026 A 
HETATM   15  C   UNL     1     -41.550  55.762 -50.952  1.00  0.00     0.040 A 
ENDBRANCH   7   8
ENDBRANCH   5   7
ENDBRANCH   2   5
BRANCH   1  16
HETATM   16  C   UNL     1     -41.593  58.835 -53.037  1.00  0.00     0.130 A 
HETATM   17  C   UNL     1     -40.318  58.783 -52.480  1.00  0.00     0.057 A 
HETATM   18  C   UNL     1     -40.098  59.330 -51.214  1.00  0.00    -0.057 A 
HETATM   19  C   UNL     1     -38.737  59.322 -50.587  1.00  0.00     0.048 C 
HETATM   20  C   UNL     1     -41.178  59.905 -50.545  1.00  0.00     0.033 A 
HETATM   21  C   UNL     1     -42.424  59.908 -51.159  1.00  0.00     0.033 A 
HETATM   22  N   UNL     1     -42.635  59.382 -52.389  1.00  0.00    -0.236 NA
HETATM   23  C   UNL     1     -43.603  60.520 -50.463  1.00  0.00     0.070 C 
ENDBRANCH   1  16
TORSDOF 4
ENDMDL
MODEL 5
REMARK VINA RESULT:      -7.0      3.060      5.673
REMARK  4 active torsions:
REMARK  status: ('A' for Active; 'I' for Inactive)
REMARK    1  A    between atoms: C_4  and  N_5 
REMARK       I    between atoms: N_5  and  C_6 
REMARK    2  A    between atoms: C_6  and  C_7 
REMARK    3  A    between atoms: C_7  and  O_8 
REMARK    4  A    between atoms: O_8  and  C_9 
ROOT
HETATM    1  N   UNL     1     -43.993  55.730 -52.491  1.00  0.00    -0.309 N 
HETATM    2  C   UNL     1     -43.064  55.351 -51.567  1.00  0.00     0.252 C 
HETATM    3  O   UNL     1     -43.488  54.691 -50.609  1.00  0.00    -0.270 OA
HETATM    4  H   UNL     1     -44.927  55.453 -52.221  1.00  0.00     0.170 HD
ENDROOT
BRANCH   2   5
HETATM    5  C   UNL     1     -41.575  55.751 -51.684  1.00  0.00     0.217 C 
HETATM    6  C   UNL     1     -41.294  56.896 -50.710  1.00  0.00     0.050 C 
BRANCH   5   7
HETATM    7  O   UNL     1     -40.677  54.702 -51.294  1.00  0.00    -0.335 OA
BRANCH   7   8
HETATM    8  C   UNL     1     -40.452  53.660 -52.152  1.00  0.00     0.091 A 
HETATM    9  C   UNL     1     -40.218  52.402 -51.568  1.00  0.00     0.069 A 
HETATM   10 CL   UNL     1     -40.229  52.191 -49.850  1.00  0.00    -0.081 Cl
HETATM   11  C   UNL     1     -39.974  51.276 -52.359  1.00  0.00     0.050 A 
HETATM   12  C   UNL     1     -39.951  51.407 -53.743  1.00  0.00     0.035 A 
HETATM   13 CL   UNL     1     -39.647  50.029 -54.727  1.00  0.00    -0.084 Cl
HETATM   14  C   UNL     1     -40.167  52.648 -54.338  1.00  0.00     0.026 A 
HETATM   15  C   UNL     1     -40.417  53.773 -53.545  1.00  0.00     0.040 A 
ENDBRANCH   7   8
ENDBRANCH   5   7
ENDBRANCH   2   5
BRANCH   1  16
HETATM   16  C   UNL     1     -43.844  56.387 -53.711  1.00  0.00     0.130 A 
HETATM   17  C   UNL     1     -43.437  55.621 -54.800  1.00  0.00     0.057 A 
HETATM   18  C   UNL     1     -43.282  56.228 -56.048  1.00  0.00    -0.057 A 
HETATM   19  C   UNL     1     -42.874  55.438 -57.254  1.00  0.00     0.048 C 
HETATM   20  C   UNL     1     -43.533  57.595 -56.154  1.00  0.00     0.033 A 
HETATM   21  C   UNL     1     -43.922  58.297 -55.020  1.00  0.00     0.033 A 
HETATM   22  N   UNL     1     -44.078  57.706 -53.811  1.00  0.00    -0.236 NA
HETATM   23  C   UNL     1     -44.200  59.769 -55.105  1.00  0.00     0.070 C 
ENDBRANCH   1  16
TORSDOF 4
ENDMDL
MODEL 6
REMARK VINA RESULT:      -6.8      3.114      4.507
REMARK  4 active torsions:
REMARK  status: ('A' for Active; 'I' for Inactive)
REMARK    1  A    between atoms: C_4  and  N_5 
REMARK       I    between atoms: N_5  and  C_6 
REMARK    2  A    between atoms: C_6  and  C_7 
REMARK    3  A    between atoms: C_7  and  O_8 
REMARK    4  A    between atoms: O_8  and  C_9 
ROOT
HETATM    1  N   UNL     1     -40.927  57.639 -53.003  1.00  0.00    -0.309 N 
HETATM    2  C   UNL     1     -41.352  58.672 -53.784  1.00  0.00     0.252 C 
HETATM    3  O   UNL     1     -40.776  59.755 -53.614  1.00  0.00    -0.270 OA
HETATM    4  H   UNL     1     -40.219  57.932 -52.344  1.00  0.00     0.170 HD
ENDROOT
BRANCH   2   5
HETATM    5  C   UNL     1     -42.508  58.517 -54.798  1.00  0.00     0.217 C 
HETATM    6  C   UNL     1     -43.424  59.738 -54.691  1.00  0.00     0.050 C 
BRANCH   5   7
HETATM    7  O   UNL     1     -42.066  58.503 -56.162  1.00  0.00    -0.335 OA
BRANCH   7   8
HETATM    8  C   UNL     1     -42.546  57.543 -57.012  1.00  0.00     0.091 A 
HETATM    9  C   UNL     1     -42.854  57.957 -58.320  1.00  0.00     0.069 A 
HETATM   10 CL   UNL     1     -42.621  59.596 -58.824  1.00  0.00    -0.081 Cl
HETATM   11  C   UNL     1     -43.355  57.053 -59.261  1.00  0.00     0.050 A 
HETATM   12  C   UNL     1     -43.561  55.729 -58.892  1.00  0.00     0.035 A 
HETATM   13 CL   UNL     1     -44.182  54.608 -60.040  1.00  0.00    -0.084 Cl
HETATM   14  C   UNL     1     -43.275  55.305 -57.596  1.00  0.00     0.026 A 
HETATM   15  C   UNL     1     -42.769  56.210 -56.656  1.00  0.00     0.040 A 
ENDBRANCH   7   8
ENDBRANCH   5   7
ENDBRANCH   2   5
BRANCH   1  16
HETATM   16  C   UNL     1     -41.289  56.293 -53.003  1.00  0.00     0.130 A 
HETATM   17  C   UNL     1     -40.625  55.456 -53.898  1.00  0.00     0.057 A 
HETATM   18  C   UNL     1     -40.943  54.097 -53.931  1.00  0.00    -0.057 A 
HETATM   19  C   UNL     1     -40.235  53.154 -54.857  1.00  0.00     0.048 C 
HETATM   20  C   UNL     1     -41.930  53.626 -53.067  1.00  0.00     0.033 A 
HETATM   21  C   UNL     1     -42.557  54.523 -52.211  1.00  0.00     0.033 A 
HETATM   22  N   UNL     1     -42.245  55.841 -52.176  1.00  0.00    -0.236 NA
HETATM   23  C   UNL     1     -43.622  54.045 -51.270  1.00  0.00     0.070 C 
ENDBRANCH   1  16
TORSDOF 4
ENDMDL
MODEL 7
REMARK VINA RESULT:      -6.8      2.646      4.543
REMARK  4 active torsions:
REMARK  status: ('A' for Active; 'I' for Inactive)
REMARK    1  A    between atoms: C_4  and  N_5 
REMARK       I    between atoms: N_5  and  C_6 
REMARK    2  A    between atoms: C_6  and  C_7 
REMARK    3  A    between atoms: C_7  and  O_8 
REMARK    4  A    between atoms: O_8  and  C_9 
ROOT
HETATM    1  N   UNL     1     -43.455  54.836 -53.458  1.00  0.00    -0.309 N 
HETATM    2  C   UNL     1     -43.610  55.770 -54.440  1.00  0.00     0.252 C 
HETATM    3  O   UNL     1     -44.733  56.284 -54.529  1.00  0.00    -0.270 OA
HETATM    4  H   UNL     1     -44.322  54.658 -52.968  1.00  0.00     0.170 HD
ENDROOT
BRANCH   2   5
HETATM    5  C   UNL     1     -42.466  56.143 -55.410  1.00  0.00     0.217 C 
HETATM    6  C   UNL     1     -42.934  55.891 -56.844  1.00  0.00     0.050 C 
BRANCH   5   7
HETATM    7  O   UNL     1     -42.123  57.535 -55.370  1.00  0.00    -0.335 OA
BRANCH   7   8
HETATM    8  C   UNL     1     -41.860  58.126 -54.164  1.00  0.00     0.091 A 
HETATM    9  C   UNL     1     -42.728  59.157 -53.764  1.00  0.00     0.069 A 
HETATM   10 CL   UNL     1     -44.067  59.639 -54.750  1.00  0.00    -0.081 Cl
HETATM   11  C   UNL     1     -42.540  59.825 -52.551  1.00  0.00     0.050 A 
HETATM   12  C   UNL     1     -41.473  59.471 -51.735  1.00  0.00     0.035 A 
HETATM   13 CL   UNL     1     -41.229  60.289 -50.242  1.00  0.00    -0.084 Cl
HETATM   14  C   UNL     1     -40.594  58.461 -52.122  1.00  0.00     0.026 A 
HETATM   15  C   UNL     1     -40.786  57.789 -53.334  1.00  0.00     0.040 A 
ENDBRANCH   7   8
ENDBRANCH   5   7
ENDBRANCH   2   5
BRANCH   1  16
HETATM   16  C   UNL     1     -42.322  54.147 -53.032  1.00  0.00     0.130 A 
HETATM   17  C   UNL     1     -41.777  54.515 -51.805  1.00  0.00     0.057 A 
HETATM   18  C   UNL     1     -40.647  53.849 -51.327  1.00  0.00    -0.057 A 
HETATM   19  C   UNL     1     -40.043  54.192 -49.999  1.00  0.00     0.048 C 
HETATM   20  C   UNL     1     -40.095  52.836 -52.110  1.00  0.00     0.033 A 
HETATM   21  C   UNL     1     -40.686  52.533 -53.330  1.00  0.00     0.033 A 
HETATM   22  N   UNL     1     -41.786  53.177 -53.791  1.00  0.00    -0.236 NA
HETATM   23  C   UNL     1     -40.114  51.448 -54.194  1.00  0.00     0.070 C 
ENDBRANCH   1  16
TORSDOF 4
ENDMDL
MODEL 8
REMARK VINA RESULT:      -6.8     13.807     15.489
REMARK  4 active torsions:
REMARK  status: ('A' for Active; 'I' for Inactive)
REMARK    1  A    between atoms: C_4  and  N_5 
REMARK       I    between atoms: N_5  and  C_6 
REMARK    2  A    between atoms: C_6  and  C_7 
REMARK    3  A    between atoms: C_7  and  O_8 
REMARK    4  A    between atoms: O_8  and  C_9 
ROOT
HETATM    1  N   UNL     1     -33.090  41.341 -51.902  1.00  0.00    -0.309 N 
HETATM    2  C   UNL     1     -34.365  41.826 -51.905  1.00  0.00     0.252 C 
HETATM    3  O   UNL     1     -34.561  42.841 -51.223  1.00  0.00    -0.270 OA
HETATM    4  H   UNL     1     -32.488  41.868 -51.283  1.00  0.00     0.170 HD
ENDROOT
BRANCH   2   5
HETATM    5  C   UNL     1     -35.508  41.134 -52.680  1.00  0.00     0.217 C 
HETATM    6  C   UNL     1     -36.425  40.428 -51.680  1.00  0.00     0.050 C 
BRANCH   5   7
HETATM    7  O   UNL     1     -36.358  42.056 -53.376  1.00  0.00    -0.335 OA
BRANCH   7   8
HETATM    8  C   UNL     1     -36.403  42.023 -54.744  1.00  0.00     0.091 A 
HETATM    9  C   UNL     1     -37.617  41.612 -55.325  1.00  0.00     0.069 A 
HETATM   10 CL   UNL     1     -38.981  41.186 -54.350  1.00  0.00    -0.081 Cl
HETATM   11  C   UNL     1     -37.761  41.541 -56.713  1.00  0.00     0.050 A 
HETATM   12  C   UNL     1     -36.686  41.870 -57.529  1.00  0.00     0.035 A 
HETATM   13 CL   UNL     1     -36.850  41.781 -59.239  1.00  0.00    -0.084 Cl
HETATM   14  C   UNL     1     -35.472  42.265 -56.971  1.00  0.00     0.026 A 
HETATM   15  C   UNL     1     -35.329  42.341 -55.581  1.00  0.00     0.040 A 
ENDBRANCH   7   8
ENDBRANCH   5   7
ENDBRANCH   2   5
BRANCH   1  16
HETATM   16  C   UNL     1     -32.517  40.293 -52.618  1.00  0.00     0.130 A 
HETATM   17  C   UNL     1     -32.364  39.078 -51.955  1.00  0.00     0.057 A 
HETATM   18  C   UNL     1     -31.804  37.992 -52.631  1.00  0.00    -0.057 A 
HETATM   19  C   UNL     1     -31.647  36.658 -51.966  1.00  0.00     0.048 C 
HETATM   20  C   UNL     1     -31.406  38.170 -53.955  1.00  0.00     0.033 A 
HETATM   21  C   UNL     1     -31.578  39.415 -54.546  1.00  0.00     0.033 A 
HETATM   22  N   UNL     1     -32.126  40.467 -53.891  1.00  0.00    -0.236 NA
HETATM   23  C   UNL     1     -31.159  39.635 -55.969  1.00  0.00     0.070 C 
ENDBRANCH   1  16
TORSDOF 4
ENDMDL
MODEL 9
REMARK VINA RESULT:      -6.8      3.057      4.994
REMARK  4 active torsions:
REMARK  status: ('A' for Active; 'I' for Inactive)
REMARK    1  A    between atoms: C_4  and  N_5 
REMARK       I    between atoms: N_5  and  C_6 
REMARK    2  A    between atoms: C_6  and  C_7 
REMARK    3  A    between atoms: C_7  and  O_8 
REMARK    4  A    between atoms: O_8  and  C_9 
ROOT
HETATM    1  N   UNL     1     -43.570  55.624 -52.270  1.00  0.00    -0.309 N 
HETATM    2  C   UNL     1     -43.753  56.824 -52.891  1.00  0.00     0.252 C 
HETATM    3  O   UNL     1     -44.861  57.354 -52.732  1.00  0.00    -0.270 OA
HETATM    4  H   UNL     1     -44.409  55.311 -51.800  1.00  0.00     0.170 HD
ENDROOT
BRANCH   2   5
HETATM    5  C   UNL     1     -42.661  57.470 -53.773  1.00  0.00     0.217 C 
HETATM    6  C   UNL     1     -43.191  57.592 -55.203  1.00  0.00     0.050 C 
BRANCH   5   7
HETATM    7  O   UNL     1     -42.339  58.811 -53.380  1.00  0.00    -0.335 OA
BRANCH   7   8
HETATM    8  C   UNL     1     -41.275  59.028 -52.546  1.00  0.00     0.091 A 
HETATM    9  C   UNL     1     -41.568  59.553 -51.275  1.00  0.00     0.069 A 
HETATM   10 CL   UNL     1     -43.195  59.894 -50.794  1.00  0.00    -0.081 Cl
HETATM   11  C   UNL     1     -40.550  59.813 -50.353  1.00  0.00     0.050 A 
HETATM   12  C   UNL     1     -39.230  59.558 -50.705  1.00  0.00     0.035 A 
HETATM   13 CL   UNL     1     -37.968  59.879 -49.580  1.00  0.00    -0.084 Cl
HETATM   14  C   UNL     1     -38.921  59.051 -51.965  1.00  0.00     0.026 A 
HETATM   15  C   UNL     1     -39.941  58.786 -52.885  1.00  0.00     0.040 A 
ENDBRANCH   7   8
ENDBRANCH   5   7
ENDBRANCH   2   5
BRANCH   1  16
HETATM   16  C   UNL     1     -42.437  54.819 -52.168  1.00  0.00     0.130 A 
HETATM   17  C   UNL     1     -41.665  54.951 -51.016  1.00  0.00     0.057 A 
HETATM   18  C   UNL     1     -40.524  54.161 -50.860  1.00  0.00    -0.057 A 
HETATM   19  C   UNL     1     -39.679  54.249 -49.625  1.00  0.00     0.048 C 
HETATM   20  C   UNL     1     -40.193  53.267 -51.877  1.00  0.00     0.033 A 
HETATM   21  C   UNL     1     -41.005  53.200 -53.002  1.00  0.00     0.033 A 
HETATM   22  N   UNL     1     -42.114  53.963 -53.151  1.00  0.00    -0.236 NA
HETATM   23  C   UNL     1     -40.674  52.247 -54.112  1.00  0.00     0.070 C 
ENDBRANCH   1  16
TORSDOF 4
ENDMDL
MODEL 10
REMARK VINA RESULT:      -6.8      1.323      2.194
REMARK  4 active torsions:
REMARK  status: ('A' for Active; 'I' for Inactive)
REMARK    1  A    between atoms: C_4  and  N_5 
REMARK       I    between atoms: N_5  and  C_6 
REMARK    2  A    between atoms: C_6  and  C_7 
REMARK    3  A    between atoms: C_7  and  O_8 
REMARK    4  A    between atoms: O_8  and  C_9 
ROOT
HETATM    1  N   UNL     1     -40.674  54.600 -50.415  1.00  0.00    -0.309 N 
HETATM    2  C   UNL     1     -41.518  55.654 -50.611  1.00  0.00     0.252 C 
HETATM    3  O   UNL     1     -41.492  56.539 -49.745  1.00  0.00    -0.270 OA
HETATM    4  H   UNL     1     -40.175  54.675 -49.539  1.00  0.00     0.170 HD
ENDROOT
BRANCH   2   5
HETATM    5  C   UNL     1     -42.479  55.726 -51.819  1.00  0.00     0.217 C 
HETATM    6  C   UNL     1     -43.797  56.353 -51.363  1.00  0.00     0.050 C 
BRANCH   5   7
HETATM    7  O   UNL     1     -42.004  56.581 -52.868  1.00  0.00    -0.335 OA
BRANCH   7   8
HETATM    8  C   UNL     1     -42.301  56.274 -54.169  1.00  0.00     0.091 A 
HETATM    9  C   UNL     1     -42.216  57.325 -55.100  1.00  0.00     0.069 A 
HETATM   10 CL   UNL     1     -41.746  58.919 -54.617  1.00  0.00    -0.081 Cl
HETATM   11  C   UNL     1     -42.504  57.113 -56.450  1.00  0.00     0.050 A 
HETATM   12  C   UNL     1     -42.890  55.847 -56.876  1.00  0.00     0.035 A 
HETATM   13 CL   UNL     1     -43.252  55.576 -58.535  1.00  0.00    -0.084 Cl
HETATM   14  C   UNL     1     -42.993  54.798 -55.965  1.00  0.00     0.026 A 
HETATM   15  C   UNL     1     -42.700  55.010 -54.613  1.00  0.00     0.040 A 
ENDBRANCH   7   8
ENDBRANCH   5   7
ENDBRANCH   2   5
BRANCH   1  16
HETATM   16  C   UNL     1     -40.391  53.502 -51.225  1.00  0.00     0.130 A 
HETATM   17  C   UNL     1     -40.162  52.285 -50.588  1.00  0.00     0.057 A 
HETATM   18  C   UNL     1     -39.883  51.151 -51.354  1.00  0.00    -0.057 A 
HETATM   19  C   UNL     1     -39.659  49.814 -50.713  1.00  0.00     0.048 C 
HETATM   20  C   UNL     1     -39.834  51.284 -52.740  1.00  0.00     0.033 A 
HETATM   21  C   UNL     1     -40.060  52.534 -53.303  1.00  0.00     0.033 A 
HETATM   22  N   UNL     1     -40.336  53.633 -52.560  1.00  0.00    -0.236 NA
HETATM   23  C   UNL     1     -40.015  52.707 -54.793  1.00  0.00     0.070 C 
ENDBRANCH   1  16
TORSDOF 4
ENDMDL
