MODEL 1
REMARK VINA RESULT:      -8.2      0.000      0.000
REMARK  6 active torsions:
REMARK  status: ('A' for Active; 'I' for Inactive)
REMARK    1  A    between atoms: N_2  and  C_4 
REMARK    2  A    between atoms: C_4  and  C_5 
REMARK    3  A    between atoms: C_7  and  N_8 
REMARK       I    between atoms: N_8  and  C_9 
REMARK    4  A    between atoms: C_9  and  C_10 
REMARK    5  A    between atoms: C_12  and  C_13 
REMARK    6  A    between atoms: C_20  and  C_21 
ROOT
HETATM    1  N   UNL     1     -42.013  56.529 -56.116  1.00  0.00    -0.322 N 
HETATM    2  C   UNL     1     -42.707  56.131 -54.982  1.00  0.00     0.277 C 
HETATM    3  O   UNL     1     -43.843  56.494 -54.690  1.00  0.00    -0.266 OA
HETATM    4  H   UNL     1     -41.036  56.244 -56.133  1.00  0.00     0.169 HD
ENDROOT
BRANCH   2   5
HETATM    5  C   UNL     1     -41.913  55.253 -54.129  1.00  0.00     0.157 A 
HETATM    6  N   UNL     1     -41.661  53.923 -54.456  1.00  0.00    -0.216 NA
HETATM    7  C   UNL     1     -40.935  53.478 -53.444  1.00  0.00     0.180 A 
HETATM    8  O   UNL     1     -40.683  54.419 -52.484  1.00  0.00    -0.293 OA
HETATM    9  C   UNL     1     -41.308  55.552 -52.923  1.00  0.00     0.094 A 
BRANCH   7  10
HETATM   10  C   UNL     1     -40.379  52.148 -53.206  1.00  0.00     0.017 A 
HETATM   11  C   UNL     1     -40.306  51.221 -54.257  1.00  0.00     0.016 A 
HETATM   12  C   UNL     1     -39.782  49.942 -54.048  1.00  0.00     0.001 A 
HETATM   13  C   UNL     1     -39.325  49.574 -52.783  1.00  0.00     0.000 A 
HETATM   14  C   UNL     1     -39.392  50.481 -51.730  1.00  0.00     0.001 A 
HETATM   15  C   UNL     1     -39.915  51.760 -51.940  1.00  0.00     0.016 A 
ENDBRANCH   7  10
BRANCH   9  16
HETATM   16  C   UNL     1     -41.301  56.869 -52.166  1.00  0.00     0.046 A 
HETATM   17  C   UNL     1     -42.417  57.115 -51.171  1.00  0.00     0.012 A 
HETATM   18  C   UNL     1     -41.042  56.823 -50.675  1.00  0.00     0.012 A 
ENDBRANCH   9  16
ENDBRANCH   2   5
BRANCH   1  19
HETATM   19  C   UNL     1     -42.493  57.359 -57.144  1.00  0.00     0.035 A 
HETATM   20  C   UNL     1     -43.223  56.868 -58.228  1.00  0.00     0.038 A 
HETATM   21  C   UNL     1     -43.778  57.725 -59.191  1.00  0.00    -0.030 A 
HETATM   22  C   UNL     1     -43.546  59.099 -59.084  1.00  0.00     0.009 A 
HETATM   23  C   UNL     1     -42.763  59.594 -58.038  1.00  0.00     0.003 A 
HETATM   24  C   UNL     1     -42.237  58.728 -57.073  1.00  0.00     0.029 A 
BRANCH  21  25
HETATM   25  C   UNL     1     -44.638  57.144 -60.280  1.00  0.00     0.272 C 
BRANCH  25  26
HETATM   26  N   UNL     1     -45.570  56.048 -59.802  1.00  0.00    -0.075 N 
HETATM   27  C   UNL     1     -45.181  54.670 -60.272  1.00  0.00     0.269 C 
HETATM   28  H   UNL     1     -45.499  56.038 -58.778  1.00  0.00     0.279 HD
HETATM   29  C   UNL     1     -46.996  56.356 -60.159  1.00  0.00     0.269 C 
ENDBRANCH  25  26
ENDBRANCH  21  25
ENDBRANCH   1  19
TORSDOF 6
ENDMDL
MODEL 2
REMARK VINA RESULT:      -7.9      1.451      2.850
REMARK  6 active torsions:
REMARK  status: ('A' for Active; 'I' for Inactive)
REMARK    1  A    between atoms: N_2  and  C_4 
REMARK    2  A    between atoms: C_4  and  C_5 
REMARK    3  A    between atoms: C_7  and  N_8 
REMARK       I    between atoms: N_8  and  C_9 
REMARK    4  A    between atoms: C_9  and  C_10 
REMARK    5  A    between atoms: C_12  and  C_13 
REMARK    6  A    between atoms: C_20  and  C_21 
ROOT
HETATM    1  N   UNL     1     -42.102  56.098 -56.821  1.00  0.00    -0.322 N 
HETATM    2  C   UNL     1     -42.661  56.104 -55.551  1.00  0.00     0.277 C 
HETATM    3  O   UNL     1     -43.654  56.748 -55.223  1.00  0.00    -0.266 OA
HETATM    4  H   UNL     1     -41.205  55.620 -56.884  1.00  0.00     0.169 HD
ENDROOT
BRANCH   2   5
HETATM    5  C   UNL     1     -41.903  55.285 -54.611  1.00  0.00     0.157 A 
HETATM    6  N   UNL     1     -41.667  53.929 -54.824  1.00  0.00    -0.216 NA
HETATM    7  C   UNL     1     -40.973  53.555 -53.762  1.00  0.00     0.180 A 
HETATM    8  O   UNL     1     -40.728  54.566 -52.874  1.00  0.00    -0.293 OA
HETATM    9  C   UNL     1     -41.322  55.670 -53.418  1.00  0.00     0.094 A 
BRANCH   7  10
HETATM   10  C   UNL     1     -40.447  52.240 -53.405  1.00  0.00     0.017 A 
HETATM   11  C   UNL     1     -40.436  51.208 -54.356  1.00  0.00     0.016 A 
HETATM   12  C   UNL     1     -39.941  49.942 -54.031  1.00  0.00     0.001 A 
HETATM   13  C   UNL     1     -39.452  49.691 -52.751  1.00  0.00     0.000 A 
HETATM   14  C   UNL     1     -39.456  50.703 -51.795  1.00  0.00     0.001 A 
HETATM   15  C   UNL     1     -39.950  51.969 -52.120  1.00  0.00     0.016 A 
ENDBRANCH   7  10
BRANCH   9  16
HETATM   16  C   UNL     1     -41.309  57.043 -52.768  1.00  0.00     0.046 A 
HETATM   17  C   UNL     1     -42.461  57.398 -51.851  1.00  0.00     0.012 A 
HETATM   18  C   UNL     1     -41.120  57.111 -51.267  1.00  0.00     0.012 A 
ENDBRANCH   9  16
ENDBRANCH   2   5
BRANCH   1  19
HETATM   19  C   UNL     1     -42.592  56.769 -57.955  1.00  0.00     0.035 A 
HETATM   20  C   UNL     1     -42.192  58.064 -58.292  1.00  0.00     0.038 A 
HETATM   21  C   UNL     1     -42.615  58.680 -59.480  1.00  0.00    -0.030 A 
HETATM   22  C   UNL     1     -43.498  57.992 -60.318  1.00  0.00     0.009 A 
HETATM   23  C   UNL     1     -43.953  56.721 -59.958  1.00  0.00     0.003 A 
HETATM   24  C   UNL     1     -43.503  56.113 -58.781  1.00  0.00     0.029 A 
BRANCH  21  25
HETATM   25  C   UNL     1     -42.071  60.037 -59.836  1.00  0.00     0.272 C 
BRANCH  25  26
HETATM   26  N   UNL     1     -42.157  61.044 -58.708  1.00  0.00    -0.075 N 
HETATM   27  C   UNL     1     -43.315  62.001 -58.832  1.00  0.00     0.269 C 
HETATM   28  H   UNL     1     -42.318  60.502 -57.851  1.00  0.00     0.279 HD
HETATM   29  C   UNL     1     -40.861  61.785 -58.544  1.00  0.00     0.269 C 
ENDBRANCH  25  26
ENDBRANCH  21  25
ENDBRANCH   1  19
TORSDOF 6
ENDMDL
MODEL 3
REMARK VINA RESULT:      -7.5      2.258      9.073
REMARK  6 active torsions:
REMARK  status: ('A' for Active; 'I' for Inactive)
REMARK    1  A    between atoms: N_2  and  C_4 
REMARK    2  A    between atoms: C_4  and  C_5 
REMARK    3  A    between atoms: C_7  and  N_8 
REMARK       I    between atoms: N_8  and  C_9 
REMARK    4  A    between atoms: C_9  and  C_10 
REMARK    5  A    between atoms: C_12  and  C_13 
REMARK    6  A    between atoms: C_20  and  C_21 
ROOT
HETATM    1  N   UNL     1     -41.396  55.618 -55.888  1.00  0.00    -0.322 N 
HETATM    2  C   UNL     1     -42.660  56.065 -56.246  1.00  0.00     0.277 C 
HETATM    3  O   UNL     1     -43.707  55.722 -55.704  1.00  0.00    -0.266 OA
HETATM    4  H   UNL     1     -40.654  55.896 -56.527  1.00  0.00     0.169 HD
ENDROOT
BRANCH   2   5
HETATM    5  C   UNL     1     -42.620  56.973 -57.388  1.00  0.00     0.157 A 
HETATM    6  N   UNL     1     -42.004  58.221 -57.330  1.00  0.00    -0.216 NA
HETATM    7  C   UNL     1     -42.195  58.728 -58.536  1.00  0.00     0.180 A 
HETATM    8  O   UNL     1     -42.880  57.902 -59.384  1.00  0.00    -0.293 OA
HETATM    9  C   UNL     1     -43.151  56.781 -58.649  1.00  0.00     0.094 A 
BRANCH   7  10
HETATM   10  C   UNL     1     -41.791  60.022 -59.080  1.00  0.00     0.017 A 
HETATM   11  C   UNL     1     -41.270  61.008 -58.229  1.00  0.00     0.016 A 
HETATM   12  C   UNL     1     -40.883  62.254 -58.731  1.00  0.00     0.001 A 
HETATM   13  C   UNL     1     -41.015  62.530 -60.091  1.00  0.00     0.000 A 
HETATM   14  C   UNL     1     -41.531  61.563 -60.949  1.00  0.00     0.001 A 
HETATM   15  C   UNL     1     -41.917  60.317 -60.447  1.00  0.00     0.016 A 
ENDBRANCH   7  10
BRANCH   9  16
HETATM   16  C   UNL     1     -43.908  55.581 -59.188  1.00  0.00     0.046 A 
HETATM   17  C   UNL     1     -45.336  55.795 -59.645  1.00  0.00     0.012 A 
HETATM   18  C   UNL     1     -44.267  55.575 -60.659  1.00  0.00     0.012 A 
ENDBRANCH   9  16
ENDBRANCH   2   5
BRANCH   1  19
HETATM   19  C   UNL     1     -41.084  54.749 -54.828  1.00  0.00     0.035 A 
HETATM   20  C   UNL     1     -41.507  54.980 -53.517  1.00  0.00     0.038 A 
HETATM   21  C   UNL     1     -41.270  54.051 -52.492  1.00  0.00    -0.030 A 
HETATM   22  C   UNL     1     -40.546  52.892 -52.788  1.00  0.00     0.009 A 
HETATM   23  C   UNL     1     -40.065  52.682 -54.082  1.00  0.00     0.003 A 
HETATM   24  C   UNL     1     -40.330  53.607 -55.097  1.00  0.00     0.029 A 
BRANCH  21  25
HETATM   25  C   UNL     1     -41.837  54.309 -51.123  1.00  0.00     0.272 C 
BRANCH  25  26
HETATM   26  N   UNL     1     -40.901  55.071 -50.207  1.00  0.00    -0.075 N 
HETATM   27  C   UNL     1     -40.844  54.526 -48.804  1.00  0.00     0.269 C 
HETATM   28  H   UNL     1     -39.960  54.959 -50.602  1.00  0.00     0.279 HD
HETATM   29  C   UNL     1     -41.222  56.538 -50.203  1.00  0.00     0.269 C 
ENDBRANCH  25  26
ENDBRANCH  21  25
ENDBRANCH   1  19
TORSDOF 6
ENDMDL
MODEL 4
REMARK VINA RESULT:      -7.2      2.128      8.934
REMARK  6 active torsions:
REMARK  status: ('A' for Active; 'I' for Inactive)
REMARK    1  A    between atoms: N_2  and  C_4 
REMARK    2  A    between atoms: C_4  and  C_5 
REMARK    3  A    between atoms: C_7  and  N_8 
REMARK       I    between atoms: N_8  and  C_9 
REMARK    4  A    between atoms: C_9  and  C_10 
REMARK    5  A    between atoms: C_12  and  C_13 
REMARK    6  A    between atoms: C_20  and  C_21 
ROOT
HETATM    1  N   UNL     1     -41.493  55.825 -55.698  1.00  0.00    -0.322 N 
HETATM    2  C   UNL     1     -42.726  56.308 -56.112  1.00  0.00     0.277 C 
HETATM    3  O   UNL     1     -43.800  56.038 -55.582  1.00  0.00    -0.266 OA
HETATM    4  H   UNL     1     -40.723  56.037 -56.330  1.00  0.00     0.169 HD
ENDROOT
BRANCH   2   5
HETATM    5  C   UNL     1     -42.617  57.153 -57.296  1.00  0.00     0.157 A 
HETATM    6  N   UNL     1     -42.031  58.416 -57.263  1.00  0.00    -0.216 NA
HETATM    7  C   UNL     1     -42.140  58.852 -58.506  1.00  0.00     0.180 A 
HETATM    8  O   UNL     1     -42.744  57.966 -59.355  1.00  0.00    -0.293 OA
HETATM    9  C   UNL     1     -43.048  56.881 -58.581  1.00  0.00     0.094 A 
BRANCH   7  10
HETATM   10  C   UNL     1     -41.720  60.123 -59.090  1.00  0.00     0.017 A 
HETATM   11  C   UNL     1     -41.156  61.117 -58.276  1.00  0.00     0.016 A 
HETATM   12  C   UNL     1     -40.754  62.341 -58.816  1.00  0.00     0.001 A 
HETATM   13  C   UNL     1     -40.912  62.589 -60.178  1.00  0.00     0.000 A 
HETATM   14  C   UNL     1     -41.471  61.615 -61.000  1.00  0.00     0.001 A 
HETATM   15  C   UNL     1     -41.873  60.390 -60.460  1.00  0.00     0.016 A 
ENDBRANCH   7  10
BRANCH   9  16
HETATM   16  C   UNL     1     -43.740  55.636 -59.106  1.00  0.00     0.046 A 
HETATM   17  C   UNL     1     -45.186  55.764 -59.541  1.00  0.00     0.012 A 
HETATM   18  C   UNL     1     -44.121  55.606 -60.572  1.00  0.00     0.012 A 
ENDBRANCH   9  16
ENDBRANCH   2   5
BRANCH   1  19
HETATM   19  C   UNL     1     -41.246  54.999 -54.587  1.00  0.00     0.035 A 
HETATM   20  C   UNL     1     -40.509  53.816 -54.679  1.00  0.00     0.038 A 
HETATM   21  C   UNL     1     -40.189  53.057 -53.543  1.00  0.00    -0.030 A 
HETATM   22  C   UNL     1     -40.667  53.475 -52.297  1.00  0.00     0.009 A 
HETATM   23  C   UNL     1     -41.458  54.623 -52.204  1.00  0.00     0.003 A 
HETATM   24  C   UNL     1     -41.748  55.380 -53.344  1.00  0.00     0.029 A 
BRANCH  21  25
HETATM   25  C   UNL     1     -39.307  51.848 -53.694  1.00  0.00     0.272 C 
BRANCH  25  26
HETATM   26  N   UNL     1     -40.037  50.533 -53.507  1.00  0.00    -0.075 N 
HETATM   27  C   UNL     1     -39.615  49.771 -52.277  1.00  0.00     0.269 C 
HETATM   28  H   UNL     1     -41.027  50.771 -53.377  1.00  0.00     0.279 HD
HETATM   29  C   UNL     1     -39.930  49.675 -54.736  1.00  0.00     0.269 C 
ENDBRANCH  25  26
ENDBRANCH  21  25
ENDBRANCH   1  19
TORSDOF 6
ENDMDL
MODEL 5
REMARK VINA RESULT:      -7.1      3.454      5.468
REMARK  6 active torsions:
REMARK  status: ('A' for Active; 'I' for Inactive)
REMARK    1  A    between atoms: N_2  and  C_4 
REMARK    2  A    between atoms: C_4  and  C_5 
REMARK    3  A    between atoms: C_7  and  N_8 
REMARK       I    between atoms: N_8  and  C_9 
REMARK    4  A    between atoms: C_9  and  C_10 
REMARK    5  A    between atoms: C_12  and  C_13 
REMARK    6  A    between atoms: C_20  and  C_21 
ROOT
HETATM    1  N   UNL     1     -43.735  57.175 -52.946  1.00  0.00    -0.322 N 
HETATM    2  C   UNL     1     -42.351  57.136 -53.020  1.00  0.00     0.277 C 
HETATM    3  O   UNL     1     -41.603  58.057 -52.702  1.00  0.00    -0.266 OA
HETATM    4  H   UNL     1     -44.204  56.380 -53.377  1.00  0.00     0.169 HD
ENDROOT
BRANCH   2   5
HETATM    5  C   UNL     1     -41.864  55.875 -53.570  1.00  0.00     0.157 A 
HETATM    6  N   UNL     1     -41.450  54.818 -52.764  1.00  0.00    -0.216 NA
HETATM    7  C   UNL     1     -41.077  53.887 -53.625  1.00  0.00     0.180 A 
HETATM    8  O   UNL     1     -41.226  54.250 -54.936  1.00  0.00    -0.293 OA
HETATM    9  C   UNL     1     -41.728  55.520 -54.899  1.00  0.00     0.094 A 
BRANCH   7  10
HETATM   10  C   UNL     1     -40.534  52.553 -53.382  1.00  0.00     0.017 A 
HETATM   11  C   UNL     1     -40.581  51.581 -54.393  1.00  0.00     0.016 A 
HETATM   12  C   UNL     1     -40.072  50.298 -54.177  1.00  0.00     0.001 A 
HETATM   13  C   UNL     1     -39.509  49.969 -52.945  1.00  0.00     0.000 A 
HETATM   14  C   UNL     1     -39.454  50.921 -51.931  1.00  0.00     0.001 A 
HETATM   15  C   UNL     1     -39.963  52.204 -52.147  1.00  0.00     0.016 A 
ENDBRANCH   7  10
BRANCH   9  16
HETATM   16  C   UNL     1     -42.052  56.337 -56.138  1.00  0.00     0.046 A 
HETATM   17  C   UNL     1     -42.911  55.689 -57.204  1.00  0.00     0.012 A 
HETATM   18  C   UNL     1     -43.492  56.760 -56.347  1.00  0.00     0.012 A 
ENDBRANCH   9  16
ENDBRANCH   2   5
BRANCH   1  19
HETATM   19  C   UNL     1     -44.519  58.234 -52.452  1.00  0.00     0.035 A 
HETATM   20  C   UNL     1     -44.873  59.335 -53.234  1.00  0.00     0.038 A 
HETATM   21  C   UNL     1     -45.737  60.332 -52.755  1.00  0.00    -0.030 A 
HETATM   22  C   UNL     1     -46.210  60.239 -51.443  1.00  0.00     0.009 A 
HETATM   23  C   UNL     1     -45.811  59.174 -50.632  1.00  0.00     0.003 A 
HETATM   24  C   UNL     1     -44.967  58.177 -51.133  1.00  0.00     0.029 A 
BRANCH  21  25
HETATM   25  C   UNL     1     -46.161  61.440 -53.680  1.00  0.00     0.272 C 
BRANCH  25  26
HETATM   26  N   UNL     1     -45.756  62.821 -53.204  1.00  0.00    -0.075 N 
HETATM   27  C   UNL     1     -46.367  63.944 -54.000  1.00  0.00     0.269 C 
HETATM   28  H   UNL     1     -46.117  62.912 -52.247  1.00  0.00     0.279 HD
HETATM   29  C   UNL     1     -44.261  62.955 -53.143  1.00  0.00     0.269 C 
ENDBRANCH  25  26
ENDBRANCH  21  25
ENDBRANCH   1  19
TORSDOF 6
ENDMDL
MODEL 6
REMARK VINA RESULT:      -7.1      3.963      6.731
REMARK  6 active torsions:
REMARK  status: ('A' for Active; 'I' for Inactive)
REMARK    1  A    between atoms: N_2  and  C_4 
REMARK    2  A    between atoms: C_4  and  C_5 
REMARK    3  A    between atoms: C_7  and  N_8 
REMARK       I    between atoms: N_8  and  C_9 
REMARK    4  A    between atoms: C_9  and  C_10 
REMARK    5  A    between atoms: C_12  and  C_13 
REMARK    6  A    between atoms: C_20  and  C_21 
ROOT
HETATM    1  N   UNL     1     -43.952  57.992 -52.802  1.00  0.00    -0.322 N 
HETATM    2  C   UNL     1     -42.594  58.041 -53.080  1.00  0.00     0.277 C 
HETATM    3  O   UNL     1     -41.887  59.038 -52.955  1.00  0.00    -0.266 OA
HETATM    4  H   UNL     1     -44.410  57.129 -53.090  1.00  0.00     0.169 HD
ENDROOT
BRANCH   2   5
HETATM    5  C   UNL     1     -42.088  56.771 -53.589  1.00  0.00     0.157 A 
HETATM    6  N   UNL     1     -41.623  55.761 -52.751  1.00  0.00    -0.216 NA
HETATM    7  C   UNL     1     -41.249  54.803 -53.581  1.00  0.00     0.180 A 
HETATM    8  O   UNL     1     -41.445  55.104 -54.901  1.00  0.00    -0.293 OA
HETATM    9  C   UNL     1     -41.981  56.361 -54.905  1.00  0.00     0.094 A 
BRANCH   7  10
HETATM   10  C   UNL     1     -40.663  53.495 -53.297  1.00  0.00     0.017 A 
HETATM   11  C   UNL     1     -40.290  53.165 -51.985  1.00  0.00     0.016 A 
HETATM   12  C   UNL     1     -39.723  51.921 -51.695  1.00  0.00     0.001 A 
HETATM   13  C   UNL     1     -39.520  50.992 -52.713  1.00  0.00     0.000 A 
HETATM   14  C   UNL     1     -39.884  51.303 -54.020  1.00  0.00     0.001 A 
HETATM   15  C   UNL     1     -40.452  52.547 -54.310  1.00  0.00     0.016 A 
ENDBRANCH   7  10
BRANCH   9  16
HETATM   16  C   UNL     1     -42.363  57.113 -56.167  1.00  0.00     0.046 A 
HETATM   17  C   UNL     1     -43.093  56.347 -57.251  1.00  0.00     0.012 A 
HETATM   18  C   UNL     1     -43.836  57.346 -56.431  1.00  0.00     0.012 A 
ENDBRANCH   9  16
ENDBRANCH   2   5
BRANCH   1  19
HETATM   19  C   UNL     1     -44.741  59.036 -52.287  1.00  0.00     0.035 A 
HETATM   20  C   UNL     1     -44.800  59.331 -50.924  1.00  0.00     0.038 A 
HETATM   21  C   UNL     1     -45.514  60.438 -50.440  1.00  0.00    -0.030 A 
HETATM   22  C   UNL     1     -46.225  61.230 -51.348  1.00  0.00     0.009 A 
HETATM   23  C   UNL     1     -46.223  60.905 -52.706  1.00  0.00     0.003 A 
HETATM   24  C   UNL     1     -45.487  59.811 -53.174  1.00  0.00     0.029 A 
BRANCH  21  25
HETATM   25  C   UNL     1     -45.457  60.763 -48.972  1.00  0.00     0.272 C 
BRANCH  25  26
HETATM   26  N   UNL     1     -45.860  62.187 -48.646  1.00  0.00    -0.075 N 
HETATM   27  C   UNL     1     -44.696  63.134 -48.515  1.00  0.00     0.269 C 
HETATM   28  H   UNL     1     -46.417  62.517 -49.442  1.00  0.00     0.279 HD
HETATM   29  C   UNL     1     -46.734  62.236 -47.425  1.00  0.00     0.269 C 
ENDBRANCH  25  26
ENDBRANCH  21  25
ENDBRANCH   1  19
TORSDOF 6
ENDMDL
MODEL 7
REMARK VINA RESULT:      -7.1      2.726      9.318
REMARK  6 active torsions:
REMARK  status: ('A' for Active; 'I' for Inactive)
REMARK    1  A    between atoms: N_2  and  C_4 
REMARK    2  A    between atoms: C_4  and  C_5 
REMARK    3  A    between atoms: C_7  and  N_8 
REMARK       I    between atoms: N_8  and  C_9 
REMARK    4  A    between atoms: C_9  and  C_10 
REMARK    5  A    between atoms: C_12  and  C_13 
REMARK    6  A    between atoms: C_20  and  C_21 
ROOT
HETATM    1  N   UNL     1     -43.795  55.715 -55.905  1.00  0.00    -0.322 N 
HETATM    2  C   UNL     1     -43.262  56.713 -56.708  1.00  0.00     0.277 C 
HETATM    3  O   UNL     1     -42.127  57.169 -56.602  1.00  0.00    -0.266 OA
HETATM    4  H   UNL     1     -44.792  55.553 -56.039  1.00  0.00     0.169 HD
ENDROOT
BRANCH   2   5
HETATM    5  C   UNL     1     -44.226  57.208 -57.684  1.00  0.00     0.157 A 
HETATM    6  N   UNL     1     -45.049  58.303 -57.433  1.00  0.00    -0.216 NA
HETATM    7  C   UNL     1     -45.770  58.421 -58.534  1.00  0.00     0.180 A 
HETATM    8  O   UNL     1     -45.474  57.492 -59.494  1.00  0.00    -0.293 OA
HETATM    9  C   UNL     1     -44.488  56.719 -58.950  1.00  0.00     0.094 A 
BRANCH   7  10
HETATM   10  C   UNL     1     -46.822  59.379 -58.865  1.00  0.00     0.017 A 
HETATM   11  C   UNL     1     -46.775  60.080 -60.080  1.00  0.00     0.016 A 
HETATM   12  C   UNL     1     -47.770  61.004 -60.411  1.00  0.00     0.001 A 
HETATM   13  C   UNL     1     -48.823  61.242 -59.530  1.00  0.00     0.000 A 
HETATM   14  C   UNL     1     -48.884  60.556 -58.321  1.00  0.00     0.001 A 
HETATM   15  C   UNL     1     -47.891  59.631 -57.990  1.00  0.00     0.016 A 
ENDBRANCH   7  10
BRANCH   9  16
HETATM   16  C   UNL     1     -43.844  55.544 -59.664  1.00  0.00     0.046 A 
HETATM   17  C   UNL     1     -44.451  54.172 -59.453  1.00  0.00     0.012 A 
HETATM   18  C   UNL     1     -44.638  54.863 -60.760  1.00  0.00     0.012 A 
ENDBRANCH   9  16
ENDBRANCH   2   5
BRANCH   1  19
HETATM   19  C   UNL     1     -43.130  55.019 -54.880  1.00  0.00     0.035 A 
HETATM   20  C   UNL     1     -42.113  54.097 -55.135  1.00  0.00     0.038 A 
HETATM   21  C   UNL     1     -41.394  53.487 -54.095  1.00  0.00    -0.030 A 
HETATM   22  C   UNL     1     -41.746  53.776 -52.773  1.00  0.00     0.009 A 
HETATM   23  C   UNL     1     -42.804  54.648 -52.509  1.00  0.00     0.003 A 
HETATM   24  C   UNL     1     -43.495  55.265 -53.557  1.00  0.00     0.029 A 
BRANCH  21  25
HETATM   25  C   UNL     1     -40.242  52.580 -54.434  1.00  0.00     0.272 C 
BRANCH  25  26
HETATM   26  N   UNL     1     -40.197  51.314 -53.603  1.00  0.00    -0.075 N 
HETATM   27  C   UNL     1     -39.267  51.393 -52.420  1.00  0.00     0.269 C 
HETATM   28  H   UNL     1     -41.142  51.187 -53.222  1.00  0.00     0.279 HD
HETATM   29  C   UNL     1     -39.884  50.117 -54.456  1.00  0.00     0.269 C 
ENDBRANCH  25  26
ENDBRANCH  21  25
ENDBRANCH   1  19
TORSDOF 6
ENDMDL
MODEL 8
REMARK VINA RESULT:      -7.0      2.415      3.646
REMARK  6 active torsions:
REMARK  status: ('A' for Active; 'I' for Inactive)
REMARK    1  A    between atoms: N_2  and  C_4 
REMARK    2  A    between atoms: C_4  and  C_5 
REMARK    3  A    between atoms: C_7  and  N_8 
REMARK       I    between atoms: N_8  and  C_9 
REMARK    4  A    between atoms: C_9  and  C_10 
REMARK    5  A    between atoms: C_12  and  C_13 
REMARK    6  A    between atoms: C_20  and  C_21 
ROOT
HETATM    1  N   UNL     1     -41.944  57.548 -57.253  1.00  0.00    -0.322 N 
HETATM    2  C   UNL     1     -42.775  56.493 -56.907  1.00  0.00     0.277 C 
HETATM    3  O   UNL     1     -43.769  56.145 -57.540  1.00  0.00    -0.266 OA
HETATM    4  H   UNL     1     -41.248  57.786 -56.548  1.00  0.00     0.169 HD
ENDROOT
BRANCH   2   5
HETATM    5  C   UNL     1     -42.365  55.853 -55.662  1.00  0.00     0.157 A 
HETATM    6  N   UNL     1     -41.635  54.667 -55.636  1.00  0.00    -0.216 NA
HETATM    7  C   UNL     1     -41.480  54.416 -54.348  1.00  0.00     0.180 A 
HETATM    8  O   UNL     1     -42.044  55.353 -53.526  1.00  0.00    -0.293 OA
HETATM    9  C   UNL     1     -42.609  56.270 -54.367  1.00  0.00     0.094 A 
BRANCH   7  10
HETATM   10  C   UNL     1     -40.810  53.297 -53.688  1.00  0.00     0.017 A 
HETATM   11  C   UNL     1     -40.554  53.349 -52.309  1.00  0.00     0.016 A 
HETATM   12  C   UNL     1     -39.909  52.291 -51.662  1.00  0.00     0.001 A 
HETATM   13  C   UNL     1     -39.511  51.169 -52.385  1.00  0.00     0.000 A 
HETATM   14  C   UNL     1     -39.757  51.102 -53.753  1.00  0.00     0.001 A 
HETATM   15  C   UNL     1     -40.403  52.159 -54.401  1.00  0.00     0.016 A 
ENDBRANCH   7  10
BRANCH   9  16
HETATM   16  C   UNL     1     -43.359  57.502 -53.893  1.00  0.00     0.046 A 
HETATM   17  C   UNL     1     -44.872  57.472 -53.950  1.00  0.00     0.012 A 
HETATM   18  C   UNL     1     -44.186  57.382 -52.630  1.00  0.00     0.012 A 
ENDBRANCH   9  16
ENDBRANCH   2   5
BRANCH   1  19
HETATM   19  C   UNL     1     -42.051  58.361 -58.396  1.00  0.00     0.035 A 
HETATM   20  C   UNL     1     -42.289  59.735 -58.320  1.00  0.00     0.038 A 
HETATM   21  C   UNL     1     -42.294  60.545 -59.466  1.00  0.00    -0.030 A 
HETATM   22  C   UNL     1     -42.106  59.947 -60.715  1.00  0.00     0.009 A 
HETATM   23  C   UNL     1     -41.931  58.564 -60.806  1.00  0.00     0.003 A 
HETATM   24  C   UNL     1     -41.906  57.774 -59.652  1.00  0.00     0.029 A 
BRANCH  21  25
HETATM   25  C   UNL     1     -42.455  62.033 -59.311  1.00  0.00     0.272 C 
BRANCH  25  26
HETATM   26  N   UNL     1     -43.600  62.611 -60.119  1.00  0.00    -0.075 N 
HETATM   27  C   UNL     1     -43.177  63.675 -61.098  1.00  0.00     0.269 C 
HETATM   28  H   UNL     1     -43.978  61.836 -60.675  1.00  0.00     0.279 HD
HETATM   29  C   UNL     1     -44.698  63.108 -59.223  1.00  0.00     0.269 C 
ENDBRANCH  25  26
ENDBRANCH  21  25
ENDBRANCH   1  19
TORSDOF 6
ENDMDL
MODEL 9
REMARK VINA RESULT:      -7.0      2.956      8.770
REMARK  6 active torsions:
REMARK  status: ('A' for Active; 'I' for Inactive)
REMARK    1  A    between atoms: N_2  and  C_4 
REMARK    2  A    between atoms: C_4  and  C_5 
REMARK    3  A    between atoms: C_7  and  N_8 
REMARK       I    between atoms: N_8  and  C_9 
REMARK    4  A    between atoms: C_9  and  C_10 
REMARK    5  A    between atoms: C_12  and  C_13 
REMARK    6  A    between atoms: C_20  and  C_21 
ROOT
HETATM    1  N   UNL     1     -41.164  56.471 -55.037  1.00  0.00    -0.322 N 
HETATM    2  C   UNL     1     -42.308  56.868 -55.715  1.00  0.00     0.277 C 
HETATM    3  O   UNL     1     -43.291  56.158 -55.910  1.00  0.00    -0.266 OA
HETATM    4  H   UNL     1     -40.394  57.135 -55.086  1.00  0.00     0.169 HD
ENDROOT
BRANCH   2   5
HETATM    5  C   UNL     1     -42.203  58.231 -56.222  1.00  0.00     0.157 A 
HETATM    6  N   UNL     1     -41.828  58.514 -57.534  1.00  0.00    -0.216 NA
HETATM    7  C   UNL     1     -41.839  59.835 -57.591  1.00  0.00     0.180 A 
HETATM    8  O   UNL     1     -42.202  60.439 -56.420  1.00  0.00    -0.293 OA
HETATM    9  C   UNL     1     -42.435  59.414 -55.546  1.00  0.00     0.094 A 
BRANCH   7  10
HETATM   10  C   UNL     1     -41.518  60.724 -58.705  1.00  0.00     0.017 A 
HETATM   11  C   UNL     1     -42.008  60.444 -59.989  1.00  0.00     0.016 A 
HETATM   12  C   UNL     1     -41.708  61.280 -61.068  1.00  0.00     0.001 A 
HETATM   13  C   UNL     1     -40.910  62.407 -60.876  1.00  0.00     0.000 A 
HETATM   14  C   UNL     1     -40.414  62.699 -59.609  1.00  0.00     0.001 A 
HETATM   15  C   UNL     1     -40.716  61.863 -58.530  1.00  0.00     0.016 A 
ENDBRANCH   7  10
BRANCH   9  16
HETATM   16  C   UNL     1     -42.865  59.614 -54.104  1.00  0.00     0.046 A 
HETATM   17  C   UNL     1     -41.778  59.771 -53.060  1.00  0.00     0.012 A 
HETATM   18  C   UNL     1     -42.583  60.958 -53.464  1.00  0.00     0.012 A 
ENDBRANCH   9  16
ENDBRANCH   2   5
BRANCH   1  19
HETATM   19  C   UNL     1     -40.946  55.228 -54.416  1.00  0.00     0.035 A 
HETATM   20  C   UNL     1     -41.252  54.995 -53.074  1.00  0.00     0.038 A 
HETATM   21  C   UNL     1     -41.121  53.722 -52.498  1.00  0.00    -0.030 A 
HETATM   22  C   UNL     1     -40.622  52.677 -53.282  1.00  0.00     0.009 A 
HETATM   23  C   UNL     1     -40.253  52.915 -54.608  1.00  0.00     0.003 A 
HETATM   24  C   UNL     1     -40.413  54.186 -55.173  1.00  0.00     0.029 A 
BRANCH  21  25
HETATM   25  C   UNL     1     -41.561  53.511 -51.075  1.00  0.00     0.272 C 
BRANCH  25  26
HETATM   26  N   UNL     1     -40.449  53.052 -50.154  1.00  0.00    -0.075 N 
HETATM   27  C   UNL     1     -40.391  51.558 -49.966  1.00  0.00     0.269 C 
HETATM   28  H   UNL     1     -39.570  53.323 -50.608  1.00  0.00     0.279 HD
HETATM   29  C   UNL     1     -40.517  53.759 -48.830  1.00  0.00     0.269 C 
ENDBRANCH  25  26
ENDBRANCH  21  25
ENDBRANCH   1  19
TORSDOF 6
ENDMDL
MODEL 10
REMARK VINA RESULT:      -7.0      2.161      8.310
REMARK  6 active torsions:
REMARK  status: ('A' for Active; 'I' for Inactive)
REMARK    1  A    between atoms: N_2  and  C_4 
REMARK    2  A    between atoms: C_4  and  C_5 
REMARK    3  A    between atoms: C_7  and  N_8 
REMARK       I    between atoms: N_8  and  C_9 
REMARK    4  A    between atoms: C_9  and  C_10 
REMARK    5  A    between atoms: C_12  and  C_13 
REMARK    6  A    between atoms: C_20  and  C_21 
ROOT
HETATM    1  N   UNL     1     -41.890  55.706 -53.541  1.00  0.00    -0.322 N 
HETATM    2  C   UNL     1     -42.955  55.511 -54.408  1.00  0.00     0.277 C 
HETATM    3  O   UNL     1     -43.649  54.498 -54.453  1.00  0.00    -0.266 OA
HETATM    4  H   UNL     1     -41.340  56.542 -53.730  1.00  0.00     0.169 HD
ENDROOT
BRANCH   2   5
HETATM    5  C   UNL     1     -43.144  56.641 -55.312  1.00  0.00     0.157 A 
HETATM    6  N   UNL     1     -42.480  56.741 -56.532  1.00  0.00    -0.216 NA
HETATM    7  C   UNL     1     -42.903  57.889 -57.033  1.00  0.00     0.180 A 
HETATM    8  O   UNL     1     -43.803  58.544 -56.238  1.00  0.00    -0.293 OA
HETATM    9  C   UNL     1     -43.957  57.745 -55.140  1.00  0.00     0.094 A 
BRANCH   7  10
HETATM   10  C   UNL     1     -42.549  58.548 -58.287  1.00  0.00     0.017 A 
HETATM   11  C   UNL     1     -42.508  59.949 -58.356  1.00  0.00     0.016 A 
HETATM   12  C   UNL     1     -42.177  60.597 -59.549  1.00  0.00     0.001 A 
HETATM   13  C   UNL     1     -41.883  59.853 -60.690  1.00  0.00     0.000 A 
HETATM   14  C   UNL     1     -41.920  58.462 -60.639  1.00  0.00     0.001 A 
HETATM   15  C   UNL     1     -42.250  57.814 -59.446  1.00  0.00     0.016 A 
ENDBRANCH   7  10
BRANCH   9  16
HETATM   16  C   UNL     1     -44.871  58.078 -53.974  1.00  0.00     0.046 A 
HETATM   17  C   UNL     1     -44.262  58.786 -52.781  1.00  0.00     0.012 A 
HETATM   18  C   UNL     1     -45.161  59.539 -53.700  1.00  0.00     0.012 A 
ENDBRANCH   9  16
ENDBRANCH   2   5
BRANCH   1  19
HETATM   19  C   UNL     1     -41.450  54.821 -52.540  1.00  0.00     0.035 A 
HETATM   20  C   UNL     1     -40.644  53.715 -52.816  1.00  0.00     0.038 A 
HETATM   21  C   UNL     1     -40.135  52.901 -51.792  1.00  0.00    -0.030 A 
HETATM   22  C   UNL     1     -40.489  53.182 -50.469  1.00  0.00     0.009 A 
HETATM   23  C   UNL     1     -41.346  54.249 -50.189  1.00  0.00     0.003 A 
HETATM   24  C   UNL     1     -41.826  55.064 -51.220  1.00  0.00     0.029 A 
BRANCH  21  25
HETATM   25  C   UNL     1     -39.191  51.784 -52.145  1.00  0.00     0.272 C 
BRANCH  25  26
HETATM   26  N   UNL     1     -39.883  50.468 -52.435  1.00  0.00    -0.075 N 
HETATM   27  C   UNL     1     -39.592  49.390 -51.423  1.00  0.00     0.269 C 
HETATM   28  H   UNL     1     -40.891  50.656 -52.379  1.00  0.00     0.279 HD
HETATM   29  C   UNL     1     -39.583  49.994 -53.828  1.00  0.00     0.269 C 
ENDBRANCH  25  26
ENDBRANCH  21  25
ENDBRANCH   1  19
TORSDOF 6
ENDMDL
