MODEL 1
REMARK VINA RESULT:      -9.2      0.000      0.000
REMARK  7 active torsions:
REMARK  status: ('A' for Active; 'I' for Inactive)
REMARK    1  A    between atoms: C_3  and  N_4 
REMARK    2  A    between atoms: C_5  and  S_6 
REMARK    3  A    between atoms: S_6  and  C_7 
REMARK    4  A    between atoms: C_7  and  C_8 
REMARK       I    between atoms: C_8  and  N_9 
REMARK    5  A    between atoms: N_9  and  C_10 
REMARK    6  A    between atoms: C_13  and  C_14 
REMARK       I    between atoms: C_14  and  N_15 
REMARK    7  A    between atoms: C_22  and  C_23 
ROOT
HETATM    1  N   UNL     1     -42.176  58.049 -54.700  1.00  0.00    -0.271 N 
HETATM    2  C   UNL     1     -41.472  58.692 -53.698  1.00  0.00     0.197 C 
HETATM    3  N   UNL     1     -41.228  59.935 -54.047  1.00  0.00    -0.122 NA
HETATM    4  N   UNL     1     -41.867  60.169 -55.230  1.00  0.00    -0.128 NA
HETATM    5  C   UNL     1     -42.508  59.068 -55.585  1.00  0.00     0.171 C 
ENDROOT
BRANCH   2   6
HETATM    6  S   UNL     1     -40.869  57.943 -52.255  1.00  0.00    -0.080 SA
BRANCH   6   7
HETATM    7  C   UNL     1     -42.387  57.291 -51.510  1.00  0.00     0.185 C 
BRANCH   7   8
HETATM    8  C   UNL     1     -42.293  55.797 -51.233  1.00  0.00     0.231 C 
HETATM    9  N   UNL     1     -41.018  55.292 -51.418  1.00  0.00    -0.327 N 
HETATM   10  H   UNL     1     -40.268  55.982 -51.469  1.00  0.00     0.169 HD
HETATM   11  O   UNL     1     -43.288  55.152 -50.915  1.00  0.00    -0.272 OA
BRANCH   9  12
HETATM   12  C   UNL     1     -40.612  53.945 -51.448  1.00  0.00     0.034 A 
HETATM   13  C   UNL     1     -40.235  53.426 -52.693  1.00  0.00     0.030 A 
HETATM   14  C   UNL     1     -39.878  52.079 -52.831  1.00  0.00     0.019 A 
HETATM   15  C   UNL     1     -39.897  51.236 -51.716  1.00  0.00     0.032 A 
HETATM   16  C   UNL     1     -40.239  51.760 -50.465  1.00  0.00     0.019 A 
HETATM   17  C   UNL     1     -40.601  53.107 -50.333  1.00  0.00     0.030 A 
BRANCH  15  18
HETATM   18  C   UNL     1     -39.557  49.793 -51.812  1.00  0.00     0.249 C 
HETATM   19  N   UNL     1     -39.192  49.158 -50.656  1.00  0.00    -0.366 N 
HETATM   20  H   UNL     1     -38.932  49.662 -49.821  1.00  0.00     0.159 HD
HETATM   21  H   UNL     1     -38.845  48.212 -50.760  1.00  0.00     0.159 HD
HETATM   22  O   UNL     1     -39.556  49.198 -52.881  1.00  0.00    -0.268 OA
ENDBRANCH  15  18
ENDBRANCH   9  12
ENDBRANCH   7   8
ENDBRANCH   6   7
ENDBRANCH   2   6
BRANCH   1  23
HETATM   23  C   UNL     1     -42.392  56.656 -54.851  1.00  0.00     0.049 A 
HETATM   24  C   UNL     1     -43.651  56.079 -54.571  1.00  0.00    -0.035 A 
HETATM   25  C   UNL     1     -44.871  56.866 -54.170  1.00  0.00     0.050 C 
HETATM   26  C   UNL     1     -43.784  54.685 -54.693  1.00  0.00     0.009 A 
HETATM   27  C   UNL     1     -42.715  53.896 -55.119  1.00  0.00     0.001 A 
HETATM   28  C   UNL     1     -41.490  54.482 -55.426  1.00  0.00     0.002 A 
HETATM   29  C   UNL     1     -41.324  55.860 -55.293  1.00  0.00     0.031 A 
ENDBRANCH   1  23
BRANCH   5  30
HETATM   30  C   UNL     1     -43.483  59.036 -56.723  1.00  0.00     0.040 A 
HETATM   31  C   UNL     1     -43.375  58.253 -57.914  1.00  0.00     0.006 A 
HETATM   32  C   UNL     1     -44.489  58.549 -58.704  1.00  0.00     0.043 A 
HETATM   33  C   UNL     1     -42.447  57.307 -58.403  1.00  0.00     0.015 A 
HETATM   34  C   UNL     1     -44.720  57.952 -59.949  1.00  0.00     0.030 A 
HETATM   35  N   UNL     1     -45.231  59.486 -58.024  1.00  0.00    -0.364 N 
HETATM   36  C   UNL     1     -43.785  57.020 -60.405  1.00  0.00     0.002 A 
HETATM   37  C   UNL     1     -42.664  56.699 -59.646  1.00  0.00     0.001 A 
HETATM   38  H   UNL     1     -46.089  59.895 -58.368  1.00  0.00     0.165 HD
HETATM   39  C   UNL     1     -44.631  59.792 -56.831  1.00  0.00     0.104 A 
ENDBRANCH   5  30
TORSDOF 7
ENDMDL
MODEL 2
REMARK VINA RESULT:      -9.0      3.303      5.846
REMARK  7 active torsions:
REMARK  status: ('A' for Active; 'I' for Inactive)
REMARK    1  A    between atoms: C_3  and  N_4 
REMARK    2  A    between atoms: C_5  and  S_6 
REMARK    3  A    between atoms: S_6  and  C_7 
REMARK    4  A    between atoms: C_7  and  C_8 
REMARK       I    between atoms: C_8  and  N_9 
REMARK    5  A    between atoms: N_9  and  C_10 
REMARK    6  A    between atoms: C_13  and  C_14 
REMARK       I    between atoms: C_14  and  N_15 
REMARK    7  A    between atoms: C_22  and  C_23 
ROOT
HETATM    1  N   UNL     1     -43.189  58.656 -52.525  1.00  0.00    -0.271 N 
HETATM    2  C   UNL     1     -42.914  58.778 -53.875  1.00  0.00     0.197 C 
HETATM    3  N   UNL     1     -43.725  59.655 -54.421  1.00  0.00    -0.122 NA
HETATM    4  N   UNL     1     -44.468  60.215 -53.422  1.00  0.00    -0.128 NA
HETATM    5  C   UNL     1     -44.092  59.682 -52.271  1.00  0.00     0.171 C 
ENDROOT
BRANCH   2   6
HETATM    6  S   UNL     1     -41.772  57.817 -54.758  1.00  0.00    -0.080 SA
BRANCH   6   7
HETATM    7  C   UNL     1     -42.825  56.499 -55.420  1.00  0.00     0.185 C 
BRANCH   7   8
HETATM    8  C   UNL     1     -42.677  55.201 -54.638  1.00  0.00     0.231 C 
HETATM    9  N   UNL     1     -41.361  54.897 -54.337  1.00  0.00    -0.327 N 
HETATM   10  H   UNL     1     -40.692  55.661 -54.442  1.00  0.00     0.169 HD
HETATM   11  O   UNL     1     -43.659  54.516 -54.363  1.00  0.00    -0.272 OA
BRANCH   9  12
HETATM   12  C   UNL     1     -40.842  53.699 -53.813  1.00  0.00     0.034 A 
HETATM   13  C   UNL     1     -40.723  52.620 -54.698  1.00  0.00     0.030 A 
HETATM   14  C   UNL     1     -40.277  51.371 -54.251  1.00  0.00     0.019 A 
HETATM   15  C   UNL     1     -39.947  51.190 -52.905  1.00  0.00     0.032 A 
HETATM   16  C   UNL     1     -40.031  52.275 -52.026  1.00  0.00     0.019 A 
HETATM   17  C   UNL     1     -40.483  53.522 -52.477  1.00  0.00     0.030 A 
BRANCH  15  18
HETATM   18  C   UNL     1     -39.498  49.878 -52.372  1.00  0.00     0.249 C 
HETATM   19  N   UNL     1     -39.307  49.784 -51.020  1.00  0.00    -0.366 N 
HETATM   20  H   UNL     1     -39.238  50.597 -50.426  1.00  0.00     0.159 HD
HETATM   21  H   UNL     1     -38.884  48.925 -50.691  1.00  0.00     0.159 HD
HETATM   22  O   UNL     1     -39.262  48.928 -53.105  1.00  0.00    -0.268 OA
ENDBRANCH  15  18
ENDBRANCH   9  12
ENDBRANCH   7   8
ENDBRANCH   6   7
ENDBRANCH   2   6
BRANCH   1  23
HETATM   23  C   UNL     1     -42.750  57.639 -51.639  1.00  0.00     0.049 A 
HETATM   24  C   UNL     1     -41.527  57.758 -50.942  1.00  0.00    -0.035 A 
HETATM   25  C   UNL     1     -40.630  58.966 -51.008  1.00  0.00     0.050 C 
HETATM   26  C   UNL     1     -41.127  56.692 -50.118  1.00  0.00     0.009 A 
HETATM   27  C   UNL     1     -41.935  55.564 -49.958  1.00  0.00     0.001 A 
HETATM   28  C   UNL     1     -43.154  55.477 -50.623  1.00  0.00     0.002 A 
HETATM   29  C   UNL     1     -43.566  56.510 -51.464  1.00  0.00     0.031 A 
ENDBRANCH   1  23
BRANCH   5  30
HETATM   30  C   UNL     1     -44.551  60.216 -50.949  1.00  0.00     0.040 A 
HETATM   31  C   UNL     1     -44.194  61.474 -50.369  1.00  0.00     0.006 A 
HETATM   32  C   UNL     1     -44.830  61.550 -49.128  1.00  0.00     0.043 A 
HETATM   33  C   UNL     1     -43.401  62.569 -50.778  1.00  0.00     0.015 A 
HETATM   34  C   UNL     1     -44.714  62.658 -48.279  1.00  0.00     0.030 A 
HETATM   35  N   UNL     1     -45.530  60.378 -48.957  1.00  0.00    -0.364 N 
HETATM   36  C   UNL     1     -43.923  63.726 -48.711  1.00  0.00     0.002 A 
HETATM   37  C   UNL     1     -43.275  63.685 -49.942  1.00  0.00     0.001 A 
HETATM   38  H   UNL     1     -46.076  60.152 -48.137  1.00  0.00     0.165 HD
HETATM   39  C   UNL     1     -45.363  59.564 -50.046  1.00  0.00     0.104 A 
ENDBRANCH   5  30
TORSDOF 7
ENDMDL
MODEL 3
REMARK VINA RESULT:      -8.8      2.995      7.789
REMARK  7 active torsions:
REMARK  status: ('A' for Active; 'I' for Inactive)
REMARK    1  A    between atoms: C_3  and  N_4 
REMARK    2  A    between atoms: C_5  and  S_6 
REMARK    3  A    between atoms: S_6  and  C_7 
REMARK    4  A    between atoms: C_7  and  C_8 
REMARK       I    between atoms: C_8  and  N_9 
REMARK    5  A    between atoms: N_9  and  C_10 
REMARK    6  A    between atoms: C_13  and  C_14 
REMARK       I    between atoms: C_14  and  N_15 
REMARK    7  A    between atoms: C_22  and  C_23 
ROOT
HETATM    1  N   UNL     1     -42.612  57.317 -51.124  1.00  0.00    -0.271 N 
HETATM    2  C   UNL     1     -43.893  57.839 -51.110  1.00  0.00     0.197 C 
HETATM    3  N   UNL     1     -44.775  56.866 -51.120  1.00  0.00    -0.122 NA
HETATM    4  N   UNL     1     -44.096  55.686 -51.021  1.00  0.00    -0.128 NA
HETATM    5  C   UNL     1     -42.803  55.953 -50.937  1.00  0.00     0.171 C 
ENDROOT
BRANCH   2   6
HETATM    6  S   UNL     1     -44.291  59.524 -51.211  1.00  0.00    -0.080 SA
BRANCH   6   7
HETATM    7  C   UNL     1     -45.277  59.585 -52.730  1.00  0.00     0.185 C 
BRANCH   7   8
HETATM    8  C   UNL     1     -44.412  59.483 -53.978  1.00  0.00     0.231 C 
HETATM    9  N   UNL     1     -44.944  58.641 -54.938  1.00  0.00    -0.327 N 
HETATM   10  H   UNL     1     -45.928  58.393 -54.819  1.00  0.00     0.169 HD
HETATM   11  O   UNL     1     -43.342  60.081 -54.053  1.00  0.00    -0.272 OA
BRANCH   9  12
HETATM   12  C   UNL     1     -44.332  58.159 -56.110  1.00  0.00     0.034 A 
HETATM   13  C   UNL     1     -44.396  58.982 -57.242  1.00  0.00     0.030 A 
HETATM   14  C   UNL     1     -43.872  58.557 -58.468  1.00  0.00     0.019 A 
HETATM   15  C   UNL     1     -43.277  57.298 -58.573  1.00  0.00     0.032 A 
HETATM   16  C   UNL     1     -43.179  56.488 -57.436  1.00  0.00     0.019 A 
HETATM   17  C   UNL     1     -43.710  56.914 -56.212  1.00  0.00     0.030 A 
BRANCH  15  18
HETATM   18  C   UNL     1     -42.732  56.786 -59.857  1.00  0.00     0.249 C 
HETATM   19  N   UNL     1     -41.401  56.992 -60.098  1.00  0.00    -0.366 N 
HETATM   20  H   UNL     1     -40.851  57.651 -59.567  1.00  0.00     0.159 HD
HETATM   21  H   UNL     1     -41.075  56.749 -61.026  1.00  0.00     0.159 HD
HETATM   22  O   UNL     1     -43.443  56.242 -60.691  1.00  0.00    -0.268 OA
ENDBRANCH  15  18
ENDBRANCH   9  12
ENDBRANCH   7   8
ENDBRANCH   6   7
ENDBRANCH   2   6
BRANCH   1  23
HETATM   23  C   UNL     1     -41.400  58.000 -51.397  1.00  0.00     0.049 A 
HETATM   24  C   UNL     1     -40.806  57.945 -52.677  1.00  0.00    -0.035 A 
HETATM   25  C   UNL     1     -41.412  57.241 -53.862  1.00  0.00     0.050 C 
HETATM   26  C   UNL     1     -39.579  58.604 -52.867  1.00  0.00     0.009 A 
HETATM   27  C   UNL     1     -38.984  59.329 -51.833  1.00  0.00     0.001 A 
HETATM   28  C   UNL     1     -39.600  59.404 -50.587  1.00  0.00     0.002 A 
HETATM   29  C   UNL     1     -40.806  58.742 -50.364  1.00  0.00     0.031 A 
ENDBRANCH   1  23
BRANCH   5  30
HETATM   30  C   UNL     1     -41.785  54.904 -50.606  1.00  0.00     0.040 A 
HETATM   31  C   UNL     1     -41.223  53.948 -51.509  1.00  0.00     0.006 A 
HETATM   32  C   UNL     1     -40.337  53.158 -50.772  1.00  0.00     0.043 A 
HETATM   33  C   UNL     1     -41.366  53.678 -52.888  1.00  0.00     0.015 A 
HETATM   34  C   UNL     1     -39.592  52.118 -51.341  1.00  0.00     0.030 A 
HETATM   35  N   UNL     1     -40.375  53.607 -49.473  1.00  0.00    -0.364 N 
HETATM   36  C   UNL     1     -39.755  51.874 -52.707  1.00  0.00     0.002 A 
HETATM   37  C   UNL     1     -40.627  52.642 -53.472  1.00  0.00     0.001 A 
HETATM   38  H   UNL     1     -39.841  53.208 -48.714  1.00  0.00     0.165 HD
HETATM   39  C   UNL     1     -41.250  54.656 -49.360  1.00  0.00     0.104 A 
ENDBRANCH   5  30
TORSDOF 7
ENDMDL
MODEL 4
REMARK VINA RESULT:      -8.8      2.922      3.815
REMARK  7 active torsions:
REMARK  status: ('A' for Active; 'I' for Inactive)
REMARK    1  A    between atoms: C_3  and  N_4 
REMARK    2  A    between atoms: C_5  and  S_6 
REMARK    3  A    between atoms: S_6  and  C_7 
REMARK    4  A    between atoms: C_7  and  C_8 
REMARK       I    between atoms: C_8  and  N_9 
REMARK    5  A    between atoms: N_9  and  C_10 
REMARK    6  A    between atoms: C_13  and  C_14 
REMARK       I    between atoms: C_14  and  N_15 
REMARK    7  A    between atoms: C_22  and  C_23 
ROOT
HETATM    1  N   UNL     1     -42.964  58.485 -57.554  1.00  0.00    -0.271 N 
HETATM    2  C   UNL     1     -42.891  58.519 -56.173  1.00  0.00     0.197 C 
HETATM    3  N   UNL     1     -41.952  59.355 -55.794  1.00  0.00    -0.122 NA
HETATM    4  N   UNL     1     -41.469  59.975 -56.910  1.00  0.00    -0.128 NA
HETATM    5  C   UNL     1     -42.130  59.519 -57.961  1.00  0.00     0.171 C 
ENDROOT
BRANCH   2   6
HETATM    6  S   UNL     1     -43.799  57.509 -55.095  1.00  0.00    -0.080 SA
BRANCH   6   7
HETATM    7  C   UNL     1     -42.577  57.146 -53.806  1.00  0.00     0.185 C 
BRANCH   7   8
HETATM    8  C   UNL     1     -42.490  55.656 -53.504  1.00  0.00     0.231 C 
HETATM    9  N   UNL     1     -41.197  55.228 -53.262  1.00  0.00    -0.327 N 
HETATM   10  H   UNL     1     -40.512  55.961 -53.071  1.00  0.00     0.169 HD
HETATM   11  O   UNL     1     -43.495  54.950 -53.523  1.00  0.00    -0.272 OA
BRANCH   9  12
HETATM   12  C   UNL     1     -40.724  53.907 -53.151  1.00  0.00     0.034 A 
HETATM   13  C   UNL     1     -40.756  53.124 -54.311  1.00  0.00     0.030 A 
HETATM   14  C   UNL     1     -40.367  51.779 -54.280  1.00  0.00     0.019 A 
HETATM   15  C   UNL     1     -39.941  51.205 -53.079  1.00  0.00     0.032 A 
HETATM   16  C   UNL     1     -39.875  51.994 -51.927  1.00  0.00     0.019 A 
HETATM   17  C   UNL     1     -40.271  53.338 -51.961  1.00  0.00     0.030 A 
BRANCH  15  18
HETATM   18  C   UNL     1     -39.546  49.776 -52.984  1.00  0.00     0.249 C 
HETATM   19  N   UNL     1     -39.484  49.225 -51.733  1.00  0.00    -0.366 N 
HETATM   20  H   UNL     1     -39.471  49.788 -50.895  1.00  0.00     0.159 HD
HETATM   21  H   UNL     1     -39.094  48.292 -51.678  1.00  0.00     0.159 HD
HETATM   22  O   UNL     1     -39.242  49.121 -53.972  1.00  0.00    -0.268 OA
ENDBRANCH  15  18
ENDBRANCH   9  12
ENDBRANCH   7   8
ENDBRANCH   6   7
ENDBRANCH   2   6
BRANCH   1  23
HETATM   23  C   UNL     1     -43.631  57.530 -58.363  1.00  0.00     0.049 A 
HETATM   24  C   UNL     1     -44.980  57.711 -58.741  1.00  0.00    -0.035 A 
HETATM   25  C   UNL     1     -45.799  58.927 -58.398  1.00  0.00     0.050 C 
HETATM   26  C   UNL     1     -45.596  56.702 -59.502  1.00  0.00     0.009 A 
HETATM   27  C   UNL     1     -44.884  55.573 -59.911  1.00  0.00     0.001 A 
HETATM   28  C   UNL     1     -43.545  55.426 -59.562  1.00  0.00     0.002 A 
HETATM   29  C   UNL     1     -42.915  56.400 -58.789  1.00  0.00     0.031 A 
ENDBRANCH   1  23
BRANCH   5  30
HETATM   30  C   UNL     1     -42.003  60.136 -59.321  1.00  0.00     0.040 A 
HETATM   31  C   UNL     1     -41.239  61.297 -59.661  1.00  0.00     0.006 A 
HETATM   32  C   UNL     1     -41.423  61.525 -61.027  1.00  0.00     0.043 A 
HETATM   33  C   UNL     1     -40.394  62.176 -58.949  1.00  0.00     0.015 A 
HETATM   34  C   UNL     1     -40.810  62.581 -61.712  1.00  0.00     0.030 A 
HETATM   35  N   UNL     1     -42.277  60.551 -61.490  1.00  0.00    -0.364 N 
HETATM   36  C   UNL     1     -39.980  63.434 -60.980  1.00  0.00     0.002 A 
HETATM   37  C   UNL     1     -39.772  63.236 -59.618  1.00  0.00     0.001 A 
HETATM   38  H   UNL     1     -42.598  60.479 -62.446  1.00  0.00     0.165 HD
HETATM   39  C   UNL     1     -42.639  59.712 -60.469  1.00  0.00     0.104 A 
ENDBRANCH   5  30
TORSDOF 7
ENDMDL
MODEL 5
REMARK VINA RESULT:      -8.8      3.667      9.265
REMARK  7 active torsions:
REMARK  status: ('A' for Active; 'I' for Inactive)
REMARK    1  A    between atoms: C_3  and  N_4 
REMARK    2  A    between atoms: C_5  and  S_6 
REMARK    3  A    between atoms: S_6  and  C_7 
REMARK    4  A    between atoms: C_7  and  C_8 
REMARK       I    between atoms: C_8  and  N_9 
REMARK    5  A    between atoms: N_9  and  C_10 
REMARK    6  A    between atoms: C_13  and  C_14 
REMARK       I    between atoms: C_14  and  N_15 
REMARK    7  A    between atoms: C_22  and  C_23 
ROOT
HETATM    1  N   UNL     1     -42.259  56.060 -54.238  1.00  0.00    -0.271 N 
HETATM    2  C   UNL     1     -43.072  56.170 -55.352  1.00  0.00     0.197 C 
HETATM    3  N   UNL     1     -42.975  55.085 -56.087  1.00  0.00    -0.122 NA
HETATM    4  N   UNL     1     -42.191  54.193 -55.414  1.00  0.00    -0.128 NA
HETATM    5  C   UNL     1     -41.828  54.739 -54.265  1.00  0.00     0.171 C 
ENDROOT
BRANCH   2   6
HETATM    6  S   UNL     1     -43.976  57.580 -55.800  1.00  0.00    -0.080 SA
BRANCH   6   7
HETATM    7  C   UNL     1     -42.986  58.241 -57.166  1.00  0.00     0.185 C 
BRANCH   7   8
HETATM    8  C   UNL     1     -43.690  58.092 -58.508  1.00  0.00     0.231 C 
HETATM    9  N   UNL     1     -45.063  58.232 -58.417  1.00  0.00    -0.327 N 
HETATM   10  H   UNL     1     -45.413  58.650 -57.553  1.00  0.00     0.169 HD
HETATM   11  O   UNL     1     -43.055  57.837 -59.527  1.00  0.00    -0.272 OA
BRANCH   9  12
HETATM   12  C   UNL     1     -46.033  57.961 -59.400  1.00  0.00     0.034 A 
HETATM   13  C   UNL     1     -46.242  56.616 -59.729  1.00  0.00     0.030 A 
HETATM   14  C   UNL     1     -47.140  56.256 -60.741  1.00  0.00     0.019 A 
HETATM   15  C   UNL     1     -47.839  57.246 -61.436  1.00  0.00     0.032 A 
HETATM   16  C   UNL     1     -47.659  58.588 -61.086  1.00  0.00     0.019 A 
HETATM   17  C   UNL     1     -46.755  58.945 -60.076  1.00  0.00     0.030 A 
BRANCH  15  18
HETATM   18  C   UNL     1     -48.780  56.922 -62.539  1.00  0.00     0.249 C 
HETATM   19  N   UNL     1     -49.979  57.582 -62.554  1.00  0.00    -0.366 N 
HETATM   20  H   UNL     1     -50.328  58.087 -61.752  1.00  0.00     0.159 HD
HETATM   21  H   UNL     1     -50.655  57.259 -63.236  1.00  0.00     0.159 HD
HETATM   22  O   UNL     1     -48.525  56.068 -63.378  1.00  0.00    -0.268 OA
ENDBRANCH  15  18
ENDBRANCH   9  12
ENDBRANCH   7   8
ENDBRANCH   6   7
ENDBRANCH   2   6
BRANCH   1  23
HETATM   23  C   UNL     1     -41.859  57.092 -53.352  1.00  0.00     0.049 A 
HETATM   24  C   UNL     1     -42.651  57.442 -52.236  1.00  0.00    -0.035 A 
HETATM   25  C   UNL     1     -43.920  56.733 -51.843  1.00  0.00     0.050 C 
HETATM   26  C   UNL     1     -42.221  58.508 -51.427  1.00  0.00     0.009 A 
HETATM   27  C   UNL     1     -41.024  59.175 -51.691  1.00  0.00     0.001 A 
HETATM   28  C   UNL     1     -40.235  58.795 -52.774  1.00  0.00     0.002 A 
HETATM   29  C   UNL     1     -40.648  57.756 -53.606  1.00  0.00     0.031 A 
ENDBRANCH   1  23
BRANCH   5  30
HETATM   30  C   UNL     1     -41.140  53.959 -53.186  1.00  0.00     0.040 A 
HETATM   31  C   UNL     1     -40.639  52.624 -53.289  1.00  0.00     0.006 A 
HETATM   32  C   UNL     1     -40.096  52.291 -52.045  1.00  0.00     0.043 A 
HETATM   33  C   UNL     1     -40.577  51.660 -54.320  1.00  0.00     0.015 A 
HETATM   34  C   UNL     1     -39.501  51.051 -51.782  1.00  0.00     0.030 A 
HETATM   35  N   UNL     1     -40.277  53.375 -51.219  1.00  0.00    -0.364 N 
HETATM   36  C   UNL     1     -39.455  50.119 -52.821  1.00  0.00     0.002 A 
HETATM   37  C   UNL     1     -39.984  50.416 -54.073  1.00  0.00     0.001 A 
HETATM   38  H   UNL     1     -39.992  53.410 -50.250  1.00  0.00     0.165 HD
HETATM   39  C   UNL     1     -40.911  54.385 -51.895  1.00  0.00     0.104 A 
ENDBRANCH   5  30
TORSDOF 7
ENDMDL
MODEL 6
REMARK VINA RESULT:      -8.7      2.063      3.461
REMARK  7 active torsions:
REMARK  status: ('A' for Active; 'I' for Inactive)
REMARK    1  A    between atoms: C_3  and  N_4 
REMARK    2  A    between atoms: C_5  and  S_6 
REMARK    3  A    between atoms: S_6  and  C_7 
REMARK    4  A    between atoms: C_7  and  C_8 
REMARK       I    between atoms: C_8  and  N_9 
REMARK    5  A    between atoms: N_9  and  C_10 
REMARK    6  A    between atoms: C_13  and  C_14 
REMARK       I    between atoms: C_14  and  N_15 
REMARK    7  A    between atoms: C_22  and  C_23 
ROOT
HETATM    1  N   UNL     1     -43.538  57.906 -53.824  1.00  0.00    -0.271 N 
HETATM    2  C   UNL     1     -43.666  56.848 -52.942  1.00  0.00     0.197 C 
HETATM    3  N   UNL     1     -43.635  55.710 -53.598  1.00  0.00    -0.122 NA
HETATM    4  N   UNL     1     -43.368  55.991 -54.907  1.00  0.00    -0.128 NA
HETATM    5  C   UNL     1     -43.223  57.299 -55.034  1.00  0.00     0.171 C 
ENDROOT
BRANCH   2   6
HETATM    6  S   UNL     1     -43.969  56.990 -51.241  1.00  0.00    -0.080 SA
BRANCH   6   7
HETATM    7  C   UNL     1     -42.322  56.702 -50.543  1.00  0.00     0.185 C 
BRANCH   7   8
HETATM    8  C   UNL     1     -41.911  55.239 -50.630  1.00  0.00     0.231 C 
HETATM    9  N   UNL     1     -41.042  54.982 -51.676  1.00  0.00    -0.327 N 
HETATM   10  H   UNL     1     -40.595  55.799 -52.096  1.00  0.00     0.169 HD
HETATM   11  O   UNL     1     -42.365  54.410 -49.847  1.00  0.00    -0.272 OA
BRANCH   9  12
HETATM   12  C   UNL     1     -40.622  53.735 -52.173  1.00  0.00     0.034 A 
HETATM   13  C   UNL     1     -41.014  53.409 -53.478  1.00  0.00     0.030 A 
HETATM   14  C   UNL     1     -40.697  52.163 -54.032  1.00  0.00     0.019 A 
HETATM   15  C   UNL     1     -39.983  51.227 -53.279  1.00  0.00     0.032 A 
HETATM   16  C   UNL     1     -39.561  51.563 -51.989  1.00  0.00     0.019 A 
HETATM   17  C   UNL     1     -39.884  52.808 -51.436  1.00  0.00     0.030 A 
BRANCH  15  18
HETATM   18  C   UNL     1     -39.648  49.880 -53.808  1.00  0.00     0.249 C 
HETATM   19  N   UNL     1     -39.874  49.655 -55.138  1.00  0.00    -0.366 N 
HETATM   20  H   UNL     1     -40.450  50.265 -55.699  1.00  0.00     0.159 HD
HETATM   21  H   UNL     1     -39.758  48.699 -55.453  1.00  0.00     0.159 HD
HETATM   22  O   UNL     1     -39.229  48.986 -53.084  1.00  0.00    -0.268 OA
ENDBRANCH  15  18
ENDBRANCH   9  12
ENDBRANCH   7   8
ENDBRANCH   6   7
ENDBRANCH   2   6
BRANCH   1  23
HETATM   23  C   UNL     1     -43.798  59.278 -53.575  1.00  0.00     0.049 A 
HETATM   24  C   UNL     1     -42.819  60.109 -52.987  1.00  0.00    -0.035 A 
HETATM   25  C   UNL     1     -41.423  59.660 -52.643  1.00  0.00     0.050 C 
HETATM   26  C   UNL     1     -43.158  61.447 -52.722  1.00  0.00     0.009 A 
HETATM   27  C   UNL     1     -44.412  61.954 -53.068  1.00  0.00     0.001 A 
HETATM   28  C   UNL     1     -45.354  61.131 -53.681  1.00  0.00     0.002 A 
HETATM   29  C   UNL     1     -45.052  59.794 -53.935  1.00  0.00     0.031 A 
ENDBRANCH   1  23
BRANCH   5  30
HETATM   30  C   UNL     1     -42.716  57.935 -56.293  1.00  0.00     0.040 A 
HETATM   31  C   UNL     1     -42.687  57.341 -57.594  1.00  0.00     0.006 A 
HETATM   32  C   UNL     1     -42.117  58.277 -58.460  1.00  0.00     0.043 A 
HETATM   33  C   UNL     1     -43.100  56.103 -58.132  1.00  0.00     0.015 A 
HETATM   34  C   UNL     1     -41.939  58.038 -59.828  1.00  0.00     0.030 A 
HETATM   35  N   UNL     1     -41.798  59.385 -57.710  1.00  0.00    -0.364 N 
HETATM   36  C   UNL     1     -42.358  56.804 -60.332  1.00  0.00     0.002 A 
HETATM   37  C   UNL     1     -42.931  55.849 -59.498  1.00  0.00     0.001 A 
HETATM   38  H   UNL     1     -41.357  60.217 -58.077  1.00  0.00     0.165 HD
HETATM   39  C   UNL     1     -42.149  59.187 -56.400  1.00  0.00     0.104 A 
ENDBRANCH   5  30
TORSDOF 7
ENDMDL
MODEL 7
REMARK VINA RESULT:      -8.5      1.786      3.573
REMARK  7 active torsions:
REMARK  status: ('A' for Active; 'I' for Inactive)
REMARK    1  A    between atoms: C_3  and  N_4 
REMARK    2  A    between atoms: C_5  and  S_6 
REMARK    3  A    between atoms: S_6  and  C_7 
REMARK    4  A    between atoms: C_7  and  C_8 
REMARK       I    between atoms: C_8  and  N_9 
REMARK    5  A    between atoms: N_9  and  C_10 
REMARK    6  A    between atoms: C_13  and  C_14 
REMARK       I    between atoms: C_14  and  N_15 
REMARK    7  A    between atoms: C_22  and  C_23 
ROOT
HETATM    1  N   UNL     1     -42.946  58.061 -56.033  1.00  0.00    -0.271 N 
HETATM    2  C   UNL     1     -42.124  57.313 -55.209  1.00  0.00     0.197 C 
HETATM    3  N   UNL     1     -42.089  56.067 -55.622  1.00  0.00    -0.122 NA
HETATM    4  N   UNL     1     -42.790  55.994 -56.791  1.00  0.00    -0.128 NA
HETATM    5  C   UNL     1     -43.235  57.204 -57.089  1.00  0.00     0.171 C 
ENDROOT
BRANCH   2   6
HETATM    6  S   UNL     1     -41.363  57.889 -53.761  1.00  0.00    -0.080 SA
BRANCH   6   7
HETATM    7  C   UNL     1     -42.443  57.206 -52.476  1.00  0.00     0.185 C 
BRANCH   7   8
HETATM    8  C   UNL     1     -42.358  55.687 -52.405  1.00  0.00     0.231 C 
HETATM    9  N   UNL     1     -41.062  55.212 -52.491  1.00  0.00    -0.327 N 
HETATM   10  H   UNL     1     -40.323  55.902 -52.343  1.00  0.00     0.169 HD
HETATM   11  O   UNL     1     -43.375  55.004 -52.319  1.00  0.00    -0.272 OA
BRANCH   9  12
HETATM   12  C   UNL     1     -40.630  53.884 -52.661  1.00  0.00     0.034 A 
HETATM   13  C   UNL     1     -40.831  53.310 -53.923  1.00  0.00     0.030 A 
HETATM   14  C   UNL     1     -40.493  51.973 -54.165  1.00  0.00     0.019 A 
HETATM   15  C   UNL     1     -39.950  51.195 -53.138  1.00  0.00     0.032 A 
HETATM   16  C   UNL     1     -39.716  51.776 -51.887  1.00  0.00     0.019 A 
HETATM   17  C   UNL     1     -40.061  53.112 -51.648  1.00  0.00     0.030 A 
BRANCH  15  18
HETATM   18  C   UNL     1     -39.601  49.764 -53.332  1.00  0.00     0.249 C 
HETATM   19  N   UNL     1     -39.302  49.035 -52.213  1.00  0.00    -0.366 N 
HETATM   20  H   UNL     1     -39.092  49.469 -51.326  1.00  0.00     0.159 HD
HETATM   21  H   UNL     1     -38.948  48.100 -52.374  1.00  0.00     0.159 HD
HETATM   22  O   UNL     1     -39.537  49.258 -54.444  1.00  0.00    -0.268 OA
ENDBRANCH  15  18
ENDBRANCH   9  12
ENDBRANCH   7   8
ENDBRANCH   6   7
ENDBRANCH   2   6
BRANCH   1  23
HETATM   23  C   UNL     1     -43.475  59.354 -55.788  1.00  0.00     0.049 A 
HETATM   24  C   UNL     1     -42.931  60.495 -56.420  1.00  0.00    -0.035 A 
HETATM   25  C   UNL     1     -41.822  60.450 -57.438  1.00  0.00     0.050 C 
HETATM   26  C   UNL     1     -43.469  61.752 -56.094  1.00  0.00     0.009 A 
HETATM   27  C   UNL     1     -44.539  61.869 -55.205  1.00  0.00     0.001 A 
HETATM   28  C   UNL     1     -45.088  60.732 -54.619  1.00  0.00     0.002 A 
HETATM   29  C   UNL     1     -44.560  59.474 -54.906  1.00  0.00     0.031 A 
ENDBRANCH   1  23
BRANCH   5  30
HETATM   30  C   UNL     1     -43.862  57.528 -58.410  1.00  0.00     0.040 A 
HETATM   31  C   UNL     1     -45.171  58.065 -58.622  1.00  0.00     0.006 A 
HETATM   32  C   UNL     1     -45.346  58.188 -60.003  1.00  0.00     0.043 A 
HETATM   33  C   UNL     1     -46.227  58.475 -57.779  1.00  0.00     0.015 A 
HETATM   34  C   UNL     1     -46.517  58.695 -60.579  1.00  0.00     0.030 A 
HETATM   35  N   UNL     1     -44.197  57.728 -60.601  1.00  0.00    -0.364 N 
HETATM   36  C   UNL     1     -47.544  59.093 -59.719  1.00  0.00     0.002 A 
HETATM   37  C   UNL     1     -47.404  58.986 -58.339  1.00  0.00     0.001 A 
HETATM   38  H   UNL     1     -44.049  57.686 -61.601  1.00  0.00     0.165 HD
HETATM   39  C   UNL     1     -43.297  57.321 -59.651  1.00  0.00     0.104 A 
ENDBRANCH   5  30
TORSDOF 7
ENDMDL
MODEL 8
REMARK VINA RESULT:      -8.3      2.369      3.463
REMARK  7 active torsions:
REMARK  status: ('A' for Active; 'I' for Inactive)
REMARK    1  A    between atoms: C_3  and  N_4 
REMARK    2  A    between atoms: C_5  and  S_6 
REMARK    3  A    between atoms: S_6  and  C_7 
REMARK    4  A    between atoms: C_7  and  C_8 
REMARK       I    between atoms: C_8  and  N_9 
REMARK    5  A    between atoms: N_9  and  C_10 
REMARK    6  A    between atoms: C_13  and  C_14 
REMARK       I    between atoms: C_14  and  N_15 
REMARK    7  A    between atoms: C_22  and  C_23 
ROOT
HETATM    1  N   UNL     1     -43.542  59.104 -56.397  1.00  0.00    -0.271 N 
HETATM    2  C   UNL     1     -43.111  58.649 -55.163  1.00  0.00     0.197 C 
HETATM    3  N   UNL     1     -41.941  59.171 -54.876  1.00  0.00    -0.122 NA
HETATM    4  N   UNL     1     -41.632  60.069 -55.857  1.00  0.00    -0.128 NA
HETATM    5  C   UNL     1     -42.628  60.097 -56.728  1.00  0.00     0.171 C 
ENDROOT
BRANCH   2   6
HETATM    6  S   UNL     1     -43.917  57.456 -54.196  1.00  0.00    -0.080 SA
BRANCH   6   7
HETATM    7  C   UNL     1     -42.736  57.214 -52.843  1.00  0.00     0.185 C 
BRANCH   7   8
HETATM    8  C   UNL     1     -42.538  55.740 -52.513  1.00  0.00     0.231 C 
HETATM    9  N   UNL     1     -41.399  55.205 -53.089  1.00  0.00    -0.327 N 
HETATM   10  H   UNL     1     -40.718  55.880 -53.441  1.00  0.00     0.169 HD
HETATM   11  O   UNL     1     -43.359  55.132 -51.832  1.00  0.00    -0.272 OA
BRANCH   9  12
HETATM   12  C   UNL     1     -41.015  53.854 -53.165  1.00  0.00     0.034 A 
HETATM   13  C   UNL     1     -40.364  53.318 -52.047  1.00  0.00     0.030 A 
HETATM   14  C   UNL     1     -39.887  52.001 -52.057  1.00  0.00     0.019 A 
HETATM   15  C   UNL     1     -40.059  51.207 -53.194  1.00  0.00     0.032 A 
HETATM   16  C   UNL     1     -40.739  51.729 -54.299  1.00  0.00     0.019 A 
HETATM   17  C   UNL     1     -41.210  53.048 -54.287  1.00  0.00     0.030 A 
BRANCH  15  18
HETATM   18  C   UNL     1     -39.546  49.815 -53.269  1.00  0.00     0.249 C 
HETATM   19  N   UNL     1     -39.378  49.145 -52.088  1.00  0.00    -0.366 N 
HETATM   20  H   UNL     1     -39.369  49.617 -51.195  1.00  0.00     0.159 HD
HETATM   21  H   UNL     1     -38.913  48.247 -52.149  1.00  0.00     0.159 HD
HETATM   22  O   UNL     1     -39.240  49.294 -54.333  1.00  0.00    -0.268 OA
ENDBRANCH  15  18
ENDBRANCH   9  12
ENDBRANCH   7   8
ENDBRANCH   6   7
ENDBRANCH   2   6
BRANCH   1  23
HETATM   23  C   UNL     1     -44.595  58.585 -57.193  1.00  0.00     0.049 A 
HETATM   24  C   UNL     1     -44.371  57.516 -58.089  1.00  0.00    -0.035 A 
HETATM   25  C   UNL     1     -43.057  56.795 -58.234  1.00  0.00     0.050 C 
HETATM   26  C   UNL     1     -45.446  57.083 -58.885  1.00  0.00     0.009 A 
HETATM   27  C   UNL     1     -46.710  57.661 -58.763  1.00  0.00     0.001 A 
HETATM   28  C   UNL     1     -46.924  58.689 -57.849  1.00  0.00     0.002 A 
HETATM   29  C   UNL     1     -45.871  59.154 -57.063  1.00  0.00     0.031 A 
ENDBRANCH   1  23
BRANCH   5  30
HETATM   30  C   UNL     1     -42.717  61.124 -57.815  1.00  0.00     0.040 A 
HETATM   31  C   UNL     1     -42.445  60.918 -59.204  1.00  0.00     0.006 A 
HETATM   32  C   UNL     1     -42.634  62.145 -59.846  1.00  0.00     0.043 A 
HETATM   33  C   UNL     1     -42.067  59.808 -59.991  1.00  0.00     0.015 A 
HETATM   34  C   UNL     1     -42.464  62.316 -61.225  1.00  0.00     0.030 A 
HETATM   35  N   UNL     1     -42.989  63.058 -58.881  1.00  0.00    -0.364 N 
HETATM   36  C   UNL     1     -42.091  61.199 -61.977  1.00  0.00     0.002 A 
HETATM   37  C   UNL     1     -41.895  59.962 -61.371  1.00  0.00     0.001 A 
HETATM   38  H   UNL     1     -43.175  64.036 -59.059  1.00  0.00     0.165 HD
HETATM   39  C   UNL     1     -43.037  62.455 -57.652  1.00  0.00     0.104 A 
ENDBRANCH   5  30
TORSDOF 7
ENDMDL
MODEL 9
REMARK VINA RESULT:      -8.3      1.563      2.824
REMARK  7 active torsions:
REMARK  status: ('A' for Active; 'I' for Inactive)
REMARK    1  A    between atoms: C_3  and  N_4 
REMARK    2  A    between atoms: C_5  and  S_6 
REMARK    3  A    between atoms: S_6  and  C_7 
REMARK    4  A    between atoms: C_7  and  C_8 
REMARK       I    between atoms: C_8  and  N_9 
REMARK    5  A    between atoms: N_9  and  C_10 
REMARK    6  A    between atoms: C_13  and  C_14 
REMARK       I    between atoms: C_14  and  N_15 
REMARK    7  A    between atoms: C_22  and  C_23 
ROOT
HETATM    1  N   UNL     1     -42.443  57.963 -55.130  1.00  0.00    -0.271 N 
HETATM    2  C   UNL     1     -41.531  57.360 -54.282  1.00  0.00     0.197 C 
HETATM    3  N   UNL     1     -41.177  56.190 -54.762  1.00  0.00    -0.122 NA
HETATM    4  N   UNL     1     -41.756  56.050 -55.990  1.00  0.00    -0.128 NA
HETATM    5  C   UNL     1     -42.448  57.146 -56.255  1.00  0.00     0.171 C 
ENDROOT
BRANCH   2   6
HETATM    6  S   UNL     1     -41.031  57.980 -52.742  1.00  0.00    -0.080 SA
BRANCH   6   7
HETATM    7  C   UNL     1     -42.200  57.173 -51.617  1.00  0.00     0.185 C 
BRANCH   7   8
HETATM    8  C   UNL     1     -42.197  55.659 -51.778  1.00  0.00     0.231 C 
HETATM    9  N   UNL     1     -40.930  55.109 -51.701  1.00  0.00    -0.327 N 
HETATM   10  H   UNL     1     -40.205  55.713 -51.311  1.00  0.00     0.169 HD
HETATM   11  O   UNL     1     -43.241  55.047 -51.990  1.00  0.00    -0.272 OA
BRANCH   9  12
HETATM   12  C   UNL     1     -40.533  53.793 -52.000  1.00  0.00     0.034 A 
HETATM   13  C   UNL     1     -40.594  53.404 -53.345  1.00  0.00     0.030 A 
HETATM   14  C   UNL     1     -40.281  52.095 -53.728  1.00  0.00     0.019 A 
HETATM   15  C   UNL     1     -39.902  51.158 -52.762  1.00  0.00     0.032 A 
HETATM   16  C   UNL     1     -39.806  51.553 -51.424  1.00  0.00     0.019 A 
HETATM   17  C   UNL     1     -40.126  52.863 -51.044  1.00  0.00     0.030 A 
BRANCH  15  18
HETATM   18  C   UNL     1     -39.588  49.748 -53.110  1.00  0.00     0.249 C 
HETATM   19  N   UNL     1     -39.384  48.878 -52.074  1.00  0.00    -0.366 N 
HETATM   20  H   UNL     1     -39.218  49.192 -51.129  1.00  0.00     0.159 HD
HETATM   21  H   UNL     1     -39.050  47.956 -52.328  1.00  0.00     0.159 HD
HETATM   22  O   UNL     1     -39.469  49.379 -54.271  1.00  0.00    -0.268 OA
ENDBRANCH  15  18
ENDBRANCH   9  12
ENDBRANCH   7   8
ENDBRANCH   6   7
ENDBRANCH   2   6
BRANCH   1  23
HETATM   23  C   UNL     1     -43.273  59.080 -54.858  1.00  0.00     0.049 A 
HETATM   24  C   UNL     1     -44.571  58.910 -54.327  1.00  0.00    -0.035 A 
HETATM   25  C   UNL     1     -45.160  57.578 -53.941  1.00  0.00     0.050 C 
HETATM   26  C   UNL     1     -45.361  60.055 -54.127  1.00  0.00     0.009 A 
HETATM   27  C   UNL     1     -44.863  61.330 -54.404  1.00  0.00     0.001 A 
HETATM   28  C   UNL     1     -43.568  61.484 -54.892  1.00  0.00     0.002 A 
HETATM   29  C   UNL     1     -42.771  60.363 -55.121  1.00  0.00     0.031 A 
ENDBRANCH   1  23
BRANCH   5  30
HETATM   30  C   UNL     1     -43.037  57.420 -57.605  1.00  0.00     0.040 A 
HETATM   31  C   UNL     1     -43.577  56.452 -58.509  1.00  0.00     0.006 A 
HETATM   32  C   UNL     1     -43.993  57.143 -59.650  1.00  0.00     0.043 A 
HETATM   33  C   UNL     1     -43.770  55.054 -58.473  1.00  0.00     0.015 A 
HETATM   34  C   UNL     1     -44.587  56.511 -60.749  1.00  0.00     0.030 A 
HETATM   35  N   UNL     1     -43.700  58.472 -59.450  1.00  0.00    -0.364 N 
HETATM   36  C   UNL     1     -44.764  55.127 -60.683  1.00  0.00     0.002 A 
HETATM   37  C   UNL     1     -44.364  54.406 -59.563  1.00  0.00     0.001 A 
HETATM   38  H   UNL     1     -43.880  59.205 -60.122  1.00  0.00     0.165 HD
HETATM   39  C   UNL     1     -43.117  58.650 -58.223  1.00  0.00     0.104 A 
ENDBRANCH   5  30
TORSDOF 7
ENDMDL
MODEL 10
REMARK VINA RESULT:      -8.2      3.051      7.671
REMARK  7 active torsions:
REMARK  status: ('A' for Active; 'I' for Inactive)
REMARK    1  A    between atoms: C_3  and  N_4 
REMARK    2  A    between atoms: C_5  and  S_6 
REMARK    3  A    between atoms: S_6  and  C_7 
REMARK    4  A    between atoms: C_7  and  C_8 
REMARK       I    between atoms: C_8  and  N_9 
REMARK    5  A    between atoms: N_9  and  C_10 
REMARK    6  A    between atoms: C_13  and  C_14 
REMARK       I    between atoms: C_14  and  N_15 
REMARK    7  A    between atoms: C_22  and  C_23 
ROOT
HETATM    1  N   UNL     1     -42.679  56.828 -52.829  1.00  0.00    -0.271 N 
HETATM    2  C   UNL     1     -43.990  57.256 -52.724  1.00  0.00     0.197 C 
HETATM    3  N   UNL     1     -44.756  56.561 -53.534  1.00  0.00    -0.122 NA
HETATM    4  N   UNL     1     -43.987  55.584 -54.099  1.00  0.00    -0.128 NA
HETATM    5  C   UNL     1     -42.760  55.685 -53.616  1.00  0.00     0.171 C 
ENDROOT
BRANCH   2   6
HETATM    6  S   UNL     1     -44.533  58.605 -51.779  1.00  0.00    -0.080 SA
BRANCH   6   7
HETATM    7  C   UNL     1     -45.132  59.741 -53.057  1.00  0.00     0.185 C 
BRANCH   7   8
HETATM    8  C   UNL     1     -44.160  59.853 -54.224  1.00  0.00     0.231 C 
HETATM    9  N   UNL     1     -44.552  59.117 -55.327  1.00  0.00    -0.327 N 
HETATM   10  H   UNL     1     -45.523  58.802 -55.331  1.00  0.00     0.169 HD
HETATM   11  O   UNL     1     -43.130  60.515 -54.124  1.00  0.00    -0.272 OA
BRANCH   9  12
HETATM   12  C   UNL     1     -43.813  58.829 -56.489  1.00  0.00     0.034 A 
HETATM   13  C   UNL     1     -43.677  59.863 -57.425  1.00  0.00     0.030 A 
HETATM   14  C   UNL     1     -43.014  59.649 -58.639  1.00  0.00     0.019 A 
HETATM   15  C   UNL     1     -42.480  58.391 -58.929  1.00  0.00     0.032 A 
HETATM   16  C   UNL     1     -42.583  57.367 -57.982  1.00  0.00     0.019 A 
HETATM   17  C   UNL     1     -43.252  57.583 -56.770  1.00  0.00     0.030 A 
BRANCH  15  18
HETATM   18  C   UNL     1     -41.794  58.101 -60.215  1.00  0.00     0.249 C 
HETATM   19  N   UNL     1     -41.181  56.884 -60.337  1.00  0.00    -0.366 N 
HETATM   20  H   UNL     1     -40.987  56.294 -59.541  1.00  0.00     0.159 HD
HETATM   21  H   UNL     1     -40.615  56.753 -61.167  1.00  0.00     0.159 HD
HETATM   22  O   UNL     1     -41.733  58.926 -61.116  1.00  0.00    -0.268 OA
ENDBRANCH  15  18
ENDBRANCH   9  12
ENDBRANCH   7   8
ENDBRANCH   6   7
ENDBRANCH   2   6
BRANCH   1  23
HETATM   23  C   UNL     1     -41.513  57.480 -52.353  1.00  0.00     0.049 A 
HETATM   24  C   UNL     1     -41.099  57.342 -51.010  1.00  0.00    -0.035 A 
HETATM   25  C   UNL     1     -41.786  56.463 -49.999  1.00  0.00     0.050 C 
HETATM   26  C   UNL     1     -39.963  58.056 -50.591  1.00  0.00     0.009 A 
HETATM   27  C   UNL     1     -39.237  58.844 -51.485  1.00  0.00     0.001 A 
HETATM   28  C   UNL     1     -39.636  58.940 -52.815  1.00  0.00     0.002 A 
HETATM   29  C   UNL     1     -40.773  58.262 -53.253  1.00  0.00     0.031 A 
ENDBRANCH   1  23
BRANCH   5  30
HETATM   30  C   UNL     1     -41.712  54.642 -53.860  1.00  0.00     0.040 A 
HETATM   31  C   UNL     1     -41.147  53.760 -52.886  1.00  0.00     0.006 A 
HETATM   32  C   UNL     1     -40.198  52.974 -53.545  1.00  0.00     0.043 A 
HETATM   33  C   UNL     1     -41.352  53.537 -51.507  1.00  0.00     0.015 A 
HETATM   34  C   UNL     1     -39.448  51.984 -52.898  1.00  0.00     0.030 A 
HETATM   35  N   UNL     1     -40.179  53.377 -54.860  1.00  0.00    -0.364 N 
HETATM   36  C   UNL     1     -39.674  51.787 -51.534  1.00  0.00     0.002 A 
HETATM   37  C   UNL     1     -40.612  52.550 -50.845  1.00  0.00     0.001 A 
HETATM   38  H   UNL     1     -39.572  52.988 -55.569  1.00  0.00     0.165 HD
HETATM   39  C   UNL     1     -41.083  54.386 -55.060  1.00  0.00     0.104 A 
ENDBRANCH   5  30
TORSDOF 7
ENDMDL
