MODEL 1
REMARK VINA RESULT:      -8.4      0.000      0.000
REMARK  5 active torsions:
REMARK  status: ('A' for Active; 'I' for Inactive)
REMARK    1  A    between atoms: C_8  and  C_9 
REMARK    2  A    between atoms: C_9  and  C_10 
REMARK       I    between atoms: C_10  and  N_11 
REMARK    3  A    between atoms: N_11  and  C_12 
REMARK    4  A    between atoms: C_12  and  C_13 
REMARK    5  A    between atoms: C_13  and  C_14 
ROOT
HETATM    1  C   UNL     1     -42.952  56.881 -57.510  1.00  0.00     0.226 C 
HETATM    2  N   UNL     1     -42.682  55.559 -57.217  1.00  0.00    -0.360 N 
HETATM    3  O   UNL     1     -42.958  57.766 -56.656  1.00  0.00    -0.273 OA
HETATM    4  H   UNL     1     -42.992  54.874 -57.893  1.00  0.00     0.162 HD
ENDROOT
BRANCH   2   5
HETATM    5  C   UNL     1     -42.505  55.106 -55.849  1.00  0.00     0.127 C 
BRANCH   5   6
HETATM    6  C   UNL     1     -41.045  54.803 -55.492  1.00  0.00     0.060 C 
BRANCH   6   7
HETATM    7  C   UNL     1     -40.878  54.453 -54.044  1.00  0.00    -0.029 A 
HETATM    8  C   UNL     1     -40.446  53.195 -53.514  1.00  0.00    -0.002 A 
HETATM    9  C   UNL     1     -40.423  53.313 -52.124  1.00  0.00     0.044 A 
HETATM   10  C   UNL     1     -40.068  51.966 -54.093  1.00  0.00     0.016 A 
HETATM   11  C   UNL     1     -40.034  52.265 -51.280  1.00  0.00     0.054 A 
HETATM   12  N   UNL     1     -40.841  54.587 -51.819  1.00  0.00    -0.365 N 
HETATM   13  C   UNL     1     -39.658  51.061 -51.884  1.00  0.00     0.036 A 
HETATM   14 CL   UNL     1     -39.166  49.742 -50.889  1.00  0.00    -0.084 Cl
HETATM   15  C   UNL     1     -39.673  50.906 -53.267  1.00  0.00     0.025 A 
HETATM   16  H   UNL     1     -40.932  54.952 -50.880  1.00  0.00     0.165 HD
HETATM   17  C   UNL     1     -41.113  55.283 -52.966  1.00  0.00     0.096 A 
ENDBRANCH   6   7
ENDBRANCH   5   6
ENDBRANCH   2   5
BRANCH   1  18
HETATM   18  C   UNL     1     -43.246  57.183 -58.984  1.00  0.00     0.111 C 
HETATM   19  C   UNL     1     -42.175  56.595 -59.899  1.00  0.00     0.025 C 
BRANCH  18  20
HETATM   20  C   UNL     1     -44.667  56.817 -59.330  1.00  0.00     0.004 A 
HETATM   21  C   UNL     1     -45.232  55.610 -59.719  1.00  0.00     0.033 A 
HETATM   22  C   UNL     1     -44.683  54.252 -59.948  1.00  0.00     0.070 C 
HETATM   23  N   UNL     1     -46.564  55.865 -59.909  1.00  0.00    -0.282 N 
HETATM   24  H   UNL     1     -47.289  55.220 -60.204  1.00  0.00     0.189 HD
HETATM   25  N   UNL     1     -46.915  57.128 -59.662  1.00  0.00    -0.179 NA
HETATM   26  C   UNL     1     -45.773  57.725 -59.311  1.00  0.00     0.060 A 
HETATM   27  C   UNL     1     -45.771  59.169 -58.958  1.00  0.00     0.073 C 
ENDBRANCH  18  20
ENDBRANCH   1  18
TORSDOF 5
ENDMDL
MODEL 2
REMARK VINA RESULT:      -8.2      4.240      7.483
REMARK  5 active torsions:
REMARK  status: ('A' for Active; 'I' for Inactive)
REMARK    1  A    between atoms: C_8  and  C_9 
REMARK    2  A    between atoms: C_9  and  C_10 
REMARK       I    between atoms: C_10  and  N_11 
REMARK    3  A    between atoms: N_11  and  C_12 
REMARK    4  A    between atoms: C_12  and  C_13 
REMARK    5  A    between atoms: C_13  and  C_14 
ROOT
HETATM    1  C   UNL     1     -42.524  54.341 -53.919  1.00  0.00     0.226 C 
HETATM    2  N   UNL     1     -43.042  55.239 -54.832  1.00  0.00    -0.360 N 
HETATM    3  O   UNL     1     -43.162  53.932 -52.950  1.00  0.00    -0.273 OA
HETATM    4  H   UNL     1     -42.375  55.743 -55.399  1.00  0.00     0.162 HD
ENDROOT
BRANCH   2   5
HETATM    5  C   UNL     1     -44.343  55.854 -54.637  1.00  0.00     0.127 C 
BRANCH   5   6
HETATM    6  C   UNL     1     -44.269  57.356 -54.341  1.00  0.00     0.060 C 
BRANCH   6   7
HETATM    7  C   UNL     1     -43.728  57.637 -52.972  1.00  0.00    -0.029 A 
HETATM    8  C   UNL     1     -42.400  58.064 -52.650  1.00  0.00    -0.002 A 
HETATM    9  C   UNL     1     -42.334  58.214 -51.264  1.00  0.00     0.044 A 
HETATM   10  C   UNL     1     -41.247  58.339 -53.414  1.00  0.00     0.016 A 
HETATM   11  C   UNL     1     -41.173  58.635 -50.602  1.00  0.00     0.054 A 
HETATM   12  N   UNL     1     -43.568  57.877 -50.761  1.00  0.00    -0.365 N 
HETATM   13  C   UNL     1     -40.049  58.907 -51.387  1.00  0.00     0.036 A 
HETATM   14 CL   UNL     1     -38.598  59.433 -50.619  1.00  0.00    -0.084 Cl
HETATM   15  C   UNL     1     -40.077  58.763 -52.771  1.00  0.00     0.025 A 
HETATM   16  H   UNL     1     -43.809  57.884 -49.779  1.00  0.00     0.165 HD
HETATM   17  C   UNL     1     -44.416  57.532 -51.779  1.00  0.00     0.096 A 
ENDBRANCH   6   7
ENDBRANCH   5   6
ENDBRANCH   2   5
BRANCH   1  18
HETATM   18  C   UNL     1     -41.088  53.880 -54.192  1.00  0.00     0.111 C 
HETATM   19  C   UNL     1     -40.235  55.011 -54.759  1.00  0.00     0.025 C 
BRANCH  18  20
HETATM   20  C   UNL     1     -40.516  53.177 -52.987  1.00  0.00     0.004 A 
HETATM   21  C   UNL     1     -40.345  53.602 -51.676  1.00  0.00     0.033 A 
HETATM   22  C   UNL     1     -40.640  54.869 -50.966  1.00  0.00     0.070 C 
HETATM   23  N   UNL     1     -39.771  52.550 -51.014  1.00  0.00    -0.282 N 
HETATM   24  H   UNL     1     -39.494  52.499 -50.039  1.00  0.00     0.189 HD
HETATM   25  N   UNL     1     -39.567  51.475 -51.777  1.00  0.00    -0.179 NA
HETATM   26  C   UNL     1     -40.011  51.838 -52.983  1.00  0.00     0.060 A 
HETATM   27  C   UNL     1     -39.944  50.878 -54.117  1.00  0.00     0.073 C 
ENDBRANCH  18  20
ENDBRANCH   1  18
TORSDOF 5
ENDMDL
MODEL 3
REMARK VINA RESULT:      -8.1      1.791      2.783
REMARK  5 active torsions:
REMARK  status: ('A' for Active; 'I' for Inactive)
REMARK    1  A    between atoms: C_8  and  C_9 
REMARK    2  A    between atoms: C_9  and  C_10 
REMARK       I    between atoms: C_10  and  N_11 
REMARK    3  A    between atoms: N_11  and  C_12 
REMARK    4  A    between atoms: C_12  and  C_13 
REMARK    5  A    between atoms: C_13  and  C_14 
ROOT
HETATM    1  C   UNL     1     -44.067  57.319 -56.316  1.00  0.00     0.226 C 
HETATM    2  N   UNL     1     -43.500  56.111 -55.964  1.00  0.00    -0.360 N 
HETATM    3  O   UNL     1     -44.211  58.246 -55.520  1.00  0.00    -0.273 OA
HETATM    4  H   UNL     1     -43.696  55.325 -56.569  1.00  0.00     0.162 HD
ENDROOT
BRANCH   2   5
HETATM    5  C   UNL     1     -43.141  55.813 -54.588  1.00  0.00     0.127 C 
BRANCH   5   6
HETATM    6  C   UNL     1     -41.642  55.962 -54.304  1.00  0.00     0.060 C 
BRANCH   6   7
HETATM    7  C   UNL     1     -41.180  55.044 -53.213  1.00  0.00    -0.029 A 
HETATM    8  C   UNL     1     -40.781  53.677 -53.359  1.00  0.00    -0.002 A 
HETATM    9  C   UNL     1     -40.419  53.209 -52.095  1.00  0.00     0.044 A 
HETATM   10  C   UNL     1     -40.693  52.794 -54.456  1.00  0.00     0.016 A 
HETATM   11  C   UNL     1     -39.964  51.903 -51.871  1.00  0.00     0.054 A 
HETATM   12  N   UNL     1     -40.605  54.246 -51.212  1.00  0.00    -0.365 N 
HETATM   13  C   UNL     1     -39.880  51.054 -52.979  1.00  0.00     0.036 A 
HETATM   14 CL   UNL     1     -39.320  49.439 -52.757  1.00  0.00    -0.084 Cl
HETATM   15  C   UNL     1     -40.237  51.485 -54.253  1.00  0.00     0.025 A 
HETATM   16  H   UNL     1     -40.431  54.191 -50.217  1.00  0.00     0.165 HD
HETATM   17  C   UNL     1     -41.059  55.356 -51.873  1.00  0.00     0.096 A 
ENDBRANCH   6   7
ENDBRANCH   5   6
ENDBRANCH   2   5
BRANCH   1  18
HETATM   18  C   UNL     1     -44.513  57.436 -57.777  1.00  0.00     0.111 C 
HETATM   19  C   UNL     1     -45.365  58.682 -58.005  1.00  0.00     0.025 C 
BRANCH  18  20
HETATM   20  C   UNL     1     -43.338  57.274 -58.709  1.00  0.00     0.004 A 
HETATM   21  C   UNL     1     -42.221  58.071 -58.917  1.00  0.00     0.033 A 
HETATM   22  C   UNL     1     -41.757  59.353 -58.336  1.00  0.00     0.070 C 
HETATM   23  N   UNL     1     -41.487  57.439 -59.886  1.00  0.00    -0.282 N 
HETATM   24  H   UNL     1     -40.609  57.734 -60.298  1.00  0.00     0.189 HD
HETATM   25  N   UNL     1     -42.024  56.294 -60.313  1.00  0.00    -0.179 NA
HETATM   26  C   UNL     1     -43.154  56.179 -59.610  1.00  0.00     0.060 A 
HETATM   27  C   UNL     1     -44.038  55.002 -59.820  1.00  0.00     0.073 C 
ENDBRANCH  18  20
ENDBRANCH   1  18
TORSDOF 5
ENDMDL
MODEL 4
REMARK VINA RESULT:      -7.8      1.479      2.056
REMARK  5 active torsions:
REMARK  status: ('A' for Active; 'I' for Inactive)
REMARK    1  A    between atoms: C_8  and  C_9 
REMARK    2  A    between atoms: C_9  and  C_10 
REMARK       I    between atoms: C_10  and  N_11 
REMARK    3  A    between atoms: N_11  and  C_12 
REMARK    4  A    between atoms: C_12  and  C_13 
REMARK    5  A    between atoms: C_13  and  C_14 
ROOT
HETATM    1  C   UNL     1     -42.682  57.211 -57.511  1.00  0.00     0.226 C 
HETATM    2  N   UNL     1     -42.412  55.923 -57.094  1.00  0.00    -0.360 N 
HETATM    3  O   UNL     1     -42.624  58.182 -56.759  1.00  0.00    -0.273 OA
HETATM    4  H   UNL     1     -42.771  55.175 -57.671  1.00  0.00     0.162 HD
ENDROOT
BRANCH   2   5
HETATM    5  C   UNL     1     -42.155  55.616 -55.697  1.00  0.00     0.127 C 
BRANCH   5   6
HETATM    6  C   UNL     1     -42.548  54.187 -55.305  1.00  0.00     0.060 C 
BRANCH   6   7
HETATM    7  C   UNL     1     -41.573  53.575 -54.346  1.00  0.00    -0.029 A 
HETATM    8  C   UNL     1     -41.551  53.747 -52.924  1.00  0.00    -0.002 A 
HETATM    9  C   UNL     1     -40.486  52.994 -52.429  1.00  0.00     0.044 A 
HETATM   10  C   UNL     1     -42.344  54.475 -52.013  1.00  0.00     0.016 A 
HETATM   11  C   UNL     1     -40.177  52.923 -51.064  1.00  0.00     0.054 A 
HETATM   12  N   UNL     1     -39.874  52.399 -53.507  1.00  0.00    -0.365 N 
HETATM   13  C   UNL     1     -40.986  53.649 -50.185  1.00  0.00     0.036 A 
HETATM   14 CL   UNL     1     -40.651  53.591 -48.495  1.00  0.00    -0.084 Cl
HETATM   15  C   UNL     1     -42.053  54.415 -50.644  1.00  0.00     0.025 A 
HETATM   16  H   UNL     1     -39.062  51.799 -53.447  1.00  0.00     0.165 HD
HETATM   17  C   UNL     1     -40.521  52.739 -54.665  1.00  0.00     0.096 A 
ENDBRANCH   6   7
ENDBRANCH   5   6
ENDBRANCH   2   5
BRANCH   1  18
HETATM   18  C   UNL     1     -43.064  57.357 -58.988  1.00  0.00     0.111 C 
HETATM   19  C   UNL     1     -42.054  56.664 -59.899  1.00  0.00     0.025 C 
BRANCH  18  20
HETATM   20  C   UNL     1     -44.506  56.974 -59.207  1.00  0.00     0.004 A 
HETATM   21  C   UNL     1     -45.087  55.761 -59.552  1.00  0.00     0.033 A 
HETATM   22  C   UNL     1     -44.543  54.412 -59.839  1.00  0.00     0.070 C 
HETATM   23  N   UNL     1     -46.434  55.998 -59.619  1.00  0.00    -0.282 N 
HETATM   24  H   UNL     1     -47.174  55.344 -59.852  1.00  0.00     0.189 HD
HETATM   25  N   UNL     1     -46.779  57.255 -59.333  1.00  0.00    -0.179 NA
HETATM   26  C   UNL     1     -45.618  57.866 -59.083  1.00  0.00     0.060 A 
HETATM   27  C   UNL     1     -45.603  59.308 -58.722  1.00  0.00     0.073 C 
ENDBRANCH  18  20
ENDBRANCH   1  18
TORSDOF 5
ENDMDL
MODEL 5
REMARK VINA RESULT:      -7.7      2.242      3.483
REMARK  5 active torsions:
REMARK  status: ('A' for Active; 'I' for Inactive)
REMARK    1  A    between atoms: C_8  and  C_9 
REMARK    2  A    between atoms: C_9  and  C_10 
REMARK       I    between atoms: C_10  and  N_11 
REMARK    3  A    between atoms: N_11  and  C_12 
REMARK    4  A    between atoms: C_12  and  C_13 
REMARK    5  A    between atoms: C_13  and  C_14 
ROOT
HETATM    1  C   UNL     1     -43.925  57.292 -56.296  1.00  0.00     0.226 C 
HETATM    2  N   UNL     1     -43.474  56.027 -55.977  1.00  0.00    -0.360 N 
HETATM    3  O   UNL     1     -43.928  58.221 -55.491  1.00  0.00    -0.273 OA
HETATM    4  H   UNL     1     -43.784  55.272 -56.574  1.00  0.00     0.162 HD
ENDROOT
BRANCH   2   5
HETATM    5  C   UNL     1     -43.082  55.680 -54.622  1.00  0.00     0.127 C 
BRANCH   5   6
HETATM    6  C   UNL     1     -41.571  55.781 -54.380  1.00  0.00     0.060 C 
BRANCH   6   7
HETATM    7  C   UNL     1     -41.066  54.683 -53.494  1.00  0.00    -0.029 A 
HETATM    8  C   UNL     1     -40.960  54.718 -52.067  1.00  0.00    -0.002 A 
HETATM    9  C   UNL     1     -40.452  53.486 -51.655  1.00  0.00     0.044 A 
HETATM   10  C   UNL     1     -41.253  55.689 -51.086  1.00  0.00     0.016 A 
HETATM   11  C   UNL     1     -40.229  53.169 -50.309  1.00  0.00     0.054 A 
HETATM   12  N   UNL     1     -40.242  52.736 -52.788  1.00  0.00    -0.365 N 
HETATM   13  C   UNL     1     -40.537  54.148 -49.360  1.00  0.00     0.036 A 
HETATM   14 CL   UNL     1     -40.286  53.805 -47.689  1.00  0.00    -0.084 Cl
HETATM   15  C   UNL     1     -41.041  55.390 -49.734  1.00  0.00     0.025 A 
HETATM   16  H   UNL     1     -39.867  51.796 -52.793  1.00  0.00     0.165 HD
HETATM   17  C   UNL     1     -40.611  53.444 -53.900  1.00  0.00     0.096 A 
ENDBRANCH   6   7
ENDBRANCH   5   6
ENDBRANCH   2   5
BRANCH   1  18
HETATM   18  C   UNL     1     -44.428  57.468 -57.733  1.00  0.00     0.111 C 
HETATM   19  C   UNL     1     -45.237  58.753 -57.889  1.00  0.00     0.025 C 
BRANCH  18  20
HETATM   20  C   UNL     1     -43.301  57.287 -58.719  1.00  0.00     0.004 A 
HETATM   21  C   UNL     1     -42.184  58.068 -58.983  1.00  0.00     0.033 A 
HETATM   22  C   UNL     1     -41.675  59.345 -58.429  1.00  0.00     0.070 C 
HETATM   23  N   UNL     1     -41.506  57.424 -59.983  1.00  0.00    -0.282 N 
HETATM   24  H   UNL     1     -40.644  57.705 -60.439  1.00  0.00     0.189 HD
HETATM   25  N   UNL     1     -42.078  56.285 -60.380  1.00  0.00    -0.179 NA
HETATM   26  C   UNL     1     -43.175  56.187 -59.624  1.00  0.00     0.060 A 
HETATM   27  C   UNL     1     -44.084  55.022 -59.787  1.00  0.00     0.073 C 
ENDBRANCH  18  20
ENDBRANCH   1  18
TORSDOF 5
ENDMDL
MODEL 6
REMARK VINA RESULT:      -7.5      2.378      3.491
REMARK  5 active torsions:
REMARK  status: ('A' for Active; 'I' for Inactive)
REMARK    1  A    between atoms: C_8  and  C_9 
REMARK    2  A    between atoms: C_9  and  C_10 
REMARK       I    between atoms: C_10  and  N_11 
REMARK    3  A    between atoms: N_11  and  C_12 
REMARK    4  A    between atoms: C_12  and  C_13 
REMARK    5  A    between atoms: C_13  and  C_14 
ROOT
HETATM    1  C   UNL     1     -43.532  56.851 -56.661  1.00  0.00     0.226 C 
HETATM    2  N   UNL     1     -43.548  55.849 -55.713  1.00  0.00    -0.360 N 
HETATM    3  O   UNL     1     -42.902  56.764 -57.714  1.00  0.00    -0.273 OA
HETATM    4  H   UNL     1     -43.823  56.115 -54.777  1.00  0.00     0.162 HD
ENDROOT
BRANCH   2   5
HETATM    5  C   UNL     1     -42.717  54.664 -55.846  1.00  0.00     0.127 C 
BRANCH   5   6
HETATM    6  C   UNL     1     -41.262  54.890 -55.422  1.00  0.00     0.060 C 
BRANCH   6   7
HETATM    7  C   UNL     1     -41.028  54.525 -53.987  1.00  0.00    -0.029 A 
HETATM    8  C   UNL     1     -40.556  53.267 -53.491  1.00  0.00    -0.002 A 
HETATM    9  C   UNL     1     -40.476  53.369 -52.102  1.00  0.00     0.044 A 
HETATM   10  C   UNL     1     -40.185  52.051 -54.101  1.00  0.00     0.016 A 
HETATM   11  C   UNL     1     -40.037  52.316 -51.288  1.00  0.00     0.054 A 
HETATM   12  N   UNL     1     -40.899  54.633 -51.764  1.00  0.00    -0.365 N 
HETATM   13  C   UNL     1     -39.669  51.126 -51.923  1.00  0.00     0.036 A 
HETATM   14 CL   UNL     1     -39.116  49.803 -50.966  1.00  0.00    -0.084 Cl
HETATM   15  C   UNL     1     -39.740  50.988 -53.306  1.00  0.00     0.025 A 
HETATM   16  H   UNL     1     -40.956  54.985 -50.817  1.00  0.00     0.165 HD
HETATM   17  C   UNL     1     -41.230  55.339 -52.889  1.00  0.00     0.096 A 
ENDBRANCH   6   7
ENDBRANCH   5   6
ENDBRANCH   2   5
BRANCH   1  18
HETATM   18  C   UNL     1     -44.358  58.096 -56.318  1.00  0.00     0.111 C 
HETATM   19  C   UNL     1     -45.146  57.905 -55.025  1.00  0.00     0.025 C 
BRANCH  18  20
HETATM   20  C   UNL     1     -43.504  59.337 -56.380  1.00  0.00     0.004 A 
HETATM   21  C   UNL     1     -42.422  59.742 -55.610  1.00  0.00     0.033 A 
HETATM   22  C   UNL     1     -41.705  59.142 -54.459  1.00  0.00     0.070 C 
HETATM   23  N   UNL     1     -42.041  60.958 -56.110  1.00  0.00    -0.282 N 
HETATM   24  H   UNL     1     -41.288  61.559 -55.792  1.00  0.00     0.189 HD
HETATM   25  N   UNL     1     -42.773  61.371 -57.147  1.00  0.00    -0.179 NA
HETATM   26  C   UNL     1     -43.671  60.399 -57.324  1.00  0.00     0.060 A 
HETATM   27  C   UNL     1     -44.678  60.511 -58.412  1.00  0.00     0.073 C 
ENDBRANCH  18  20
ENDBRANCH   1  18
TORSDOF 5
ENDMDL
MODEL 7
REMARK VINA RESULT:      -7.5     15.132     17.693
REMARK  5 active torsions:
REMARK  status: ('A' for Active; 'I' for Inactive)
REMARK    1  A    between atoms: C_8  and  C_9 
REMARK    2  A    between atoms: C_9  and  C_10 
REMARK       I    between atoms: C_10  and  N_11 
REMARK    3  A    between atoms: N_11  and  C_12 
REMARK    4  A    between atoms: C_12  and  C_13 
REMARK    5  A    between atoms: C_13  and  C_14 
ROOT
HETATM    1  C   UNL     1     -32.834  39.923 -52.501  1.00  0.00     0.226 C 
HETATM    2  N   UNL     1     -34.103  39.964 -51.960  1.00  0.00    -0.360 N 
HETATM    3  O   UNL     1     -31.990  40.792 -52.289  1.00  0.00    -0.273 OA
HETATM    4  H   UNL     1     -34.808  39.399 -52.415  1.00  0.00     0.162 HD
ENDROOT
BRANCH   2   5
HETATM    5  C   UNL     1     -34.565  41.108 -51.194  1.00  0.00     0.127 C 
BRANCH   5   6
HETATM    6  C   UNL     1     -34.986  42.296 -52.067  1.00  0.00     0.060 C 
BRANCH   6   7
HETATM    7  C   UNL     1     -36.077  41.932 -53.028  1.00  0.00    -0.029 A 
HETATM    8  C   UNL     1     -36.021  42.019 -54.456  1.00  0.00    -0.002 A 
HETATM    9  C   UNL     1     -37.247  41.573 -54.950  1.00  0.00     0.044 A 
HETATM   10  C   UNL     1     -35.035  42.435 -55.374  1.00  0.00     0.016 A 
HETATM   11  C   UNL     1     -37.537  41.513 -56.320  1.00  0.00     0.054 A 
HETATM   12  N   UNL     1     -38.025  41.242 -53.866  1.00  0.00    -0.365 N 
HETATM   13  C   UNL     1     -36.536  41.925 -57.205  1.00  0.00     0.036 A 
HETATM   14 CL   UNL     1     -36.841  41.865 -58.901  1.00  0.00    -0.084 Cl
HETATM   15  C   UNL     1     -35.303  42.380 -56.748  1.00  0.00     0.025 A 
HETATM   16  H   UNL     1     -38.974  40.896 -53.924  1.00  0.00     0.165 HD
HETATM   17  C   UNL     1     -37.331  41.451 -52.704  1.00  0.00     0.096 A 
ENDBRANCH   6   7
ENDBRANCH   5   6
ENDBRANCH   2   5
BRANCH   1  18
HETATM   18  C   UNL     1     -32.537  38.713 -53.393  1.00  0.00     0.111 C 
HETATM   19  C   UNL     1     -32.833  37.400 -52.673  1.00  0.00     0.025 C 
BRANCH  18  20
HETATM   20  C   UNL     1     -33.189  38.873 -54.744  1.00  0.00     0.004 A 
HETATM   21  C   UNL     1     -34.499  38.676 -55.155  1.00  0.00     0.033 A 
HETATM   22  C   UNL     1     -35.734  38.239 -54.461  1.00  0.00     0.070 C 
HETATM   23  N   UNL     1     -34.519  38.967 -56.493  1.00  0.00    -0.282 N 
HETATM   24  H   UNL     1     -35.306  38.927 -57.132  1.00  0.00     0.189 HD
HETATM   25  N   UNL     1     -33.338  39.350 -56.983  1.00  0.00    -0.179 NA
HETATM   26  C   UNL     1     -32.514  39.296 -55.933  1.00  0.00     0.060 A 
HETATM   27  C   UNL     1     -31.082  39.660 -56.097  1.00  0.00     0.073 C 
ENDBRANCH  18  20
ENDBRANCH   1  18
TORSDOF 5
ENDMDL
MODEL 8
REMARK VINA RESULT:      -7.5      3.569      6.372
REMARK  5 active torsions:
REMARK  status: ('A' for Active; 'I' for Inactive)
REMARK    1  A    between atoms: C_8  and  C_9 
REMARK    2  A    between atoms: C_9  and  C_10 
REMARK       I    between atoms: C_10  and  N_11 
REMARK    3  A    between atoms: N_11  and  C_12 
REMARK    4  A    between atoms: C_12  and  C_13 
REMARK    5  A    between atoms: C_13  and  C_14 
ROOT
HETATM    1  C   UNL     1     -41.810  59.243 -52.838  1.00  0.00     0.226 C 
HETATM    2  N   UNL     1     -41.976  58.306 -53.838  1.00  0.00    -0.360 N 
HETATM    3  O   UNL     1     -41.719  60.449 -53.062  1.00  0.00    -0.273 OA
HETATM    4  H   UNL     1     -41.737  57.351 -53.608  1.00  0.00     0.162 HD
ENDROOT
BRANCH   2   5
HETATM    5  C   UNL     1     -41.935  58.679 -55.242  1.00  0.00     0.127 C 
BRANCH   5   6
HETATM    6  C   UNL     1     -42.590  57.646 -56.166  1.00  0.00     0.060 C 
BRANCH   6   7
HETATM    7  C   UNL     1     -42.936  56.379 -55.443  1.00  0.00    -0.029 A 
HETATM    8  C   UNL     1     -42.047  55.297 -55.144  1.00  0.00    -0.002 A 
HETATM    9  C   UNL     1     -42.782  54.331 -54.454  1.00  0.00     0.044 A 
HETATM   10  C   UNL     1     -40.681  55.052 -55.396  1.00  0.00     0.016 A 
HETATM   11  C   UNL     1     -42.218  53.134 -53.995  1.00  0.00     0.054 A 
HETATM   12  N   UNL     1     -44.071  54.801 -54.352  1.00  0.00    -0.365 N 
HETATM   13  C   UNL     1     -40.860  52.924 -54.254  1.00  0.00     0.036 A 
HETATM   14 CL   UNL     1     -40.118  51.468 -53.704  1.00  0.00    -0.084 Cl
HETATM   15  C   UNL     1     -40.098  53.862 -54.943  1.00  0.00     0.025 A 
HETATM   16  H   UNL     1     -44.829  54.302 -53.906  1.00  0.00     0.165 HD
HETATM   17  C   UNL     1     -44.174  56.033 -54.939  1.00  0.00     0.096 A 
ENDBRANCH   6   7
ENDBRANCH   5   6
ENDBRANCH   2   5
BRANCH   1  18
HETATM   18  C   UNL     1     -41.745  58.681 -51.414  1.00  0.00     0.111 C 
HETATM   19  C   UNL     1     -41.795  59.794 -50.371  1.00  0.00     0.025 C 
BRANCH  18  20
HETATM   20  C   UNL     1     -42.752  57.574 -51.231  1.00  0.00     0.004 A 
HETATM   21  C   UNL     1     -44.132  57.608 -51.085  1.00  0.00     0.033 A 
HETATM   22  C   UNL     1     -45.128  58.705 -51.047  1.00  0.00     0.070 C 
HETATM   23  N   UNL     1     -44.526  56.304 -50.947  1.00  0.00    -0.282 N 
HETATM   24  H   UNL     1     -45.464  55.944 -50.813  1.00  0.00     0.189 HD
HETATM   25  N   UNL     1     -43.523  55.425 -51.006  1.00  0.00    -0.179 NA
HETATM   26  C   UNL     1     -42.434  56.180 -51.174  1.00  0.00     0.060 A 
HETATM   27  C   UNL     1     -41.097  55.537 -51.283  1.00  0.00     0.073 C 
ENDBRANCH  18  20
ENDBRANCH   1  18
TORSDOF 5
ENDMDL
MODEL 9
REMARK VINA RESULT:      -7.3      3.370      4.286
REMARK  5 active torsions:
REMARK  status: ('A' for Active; 'I' for Inactive)
REMARK    1  A    between atoms: C_8  and  C_9 
REMARK    2  A    between atoms: C_9  and  C_10 
REMARK       I    between atoms: C_10  and  N_11 
REMARK    3  A    between atoms: N_11  and  C_12 
REMARK    4  A    between atoms: C_12  and  C_13 
REMARK    5  A    between atoms: C_13  and  C_14 
ROOT
HETATM    1  C   UNL     1     -42.744  58.485 -52.243  1.00  0.00     0.226 C 
HETATM    2  N   UNL     1     -41.653  57.662 -52.052  1.00  0.00    -0.360 N 
HETATM    3  O   UNL     1     -43.633  58.619 -51.404  1.00  0.00    -0.273 OA
HETATM    4  H   UNL     1     -41.149  57.378 -52.882  1.00  0.00     0.162 HD
ENDROOT
BRANCH   2   5
HETATM    5  C   UNL     1     -41.544  56.803 -50.886  1.00  0.00     0.127 C 
BRANCH   5   6
HETATM    6  C   UNL     1     -42.319  55.488 -51.023  1.00  0.00     0.060 C 
BRANCH   6   7
HETATM    7  C   UNL     1     -41.429  54.290 -50.884  1.00  0.00    -0.029 A 
HETATM    8  C   UNL     1     -41.032  53.395 -51.929  1.00  0.00    -0.002 A 
HETATM    9  C   UNL     1     -40.197  52.432 -51.360  1.00  0.00     0.044 A 
HETATM   10  C   UNL     1     -41.306  53.319 -53.310  1.00  0.00     0.016 A 
HETATM   11  C   UNL     1     -39.614  51.399 -52.104  1.00  0.00     0.054 A 
HETATM   12  N   UNL     1     -40.103  52.721 -50.019  1.00  0.00    -0.365 N 
HETATM   13  C   UNL     1     -39.898  51.354 -53.472  1.00  0.00     0.036 A 
HETATM   14 CL   UNL     1     -39.200  50.105 -54.434  1.00  0.00    -0.084 Cl
HETATM   15  C   UNL     1     -40.730  52.295 -54.073  1.00  0.00     0.025 A 
HETATM   16  H   UNL     1     -39.567  52.180 -49.352  1.00  0.00     0.165 HD
HETATM   17  C   UNL     1     -40.836  53.838 -49.722  1.00  0.00     0.096 A 
ENDBRANCH   6   7
ENDBRANCH   5   6
ENDBRANCH   2   5
BRANCH   1  18
HETATM   18  C   UNL     1     -42.781  59.230 -53.582  1.00  0.00     0.111 C 
HETATM   19  C   UNL     1     -41.378  59.445 -54.141  1.00  0.00     0.025 C 
BRANCH  18  20
HETATM   20  C   UNL     1     -43.764  58.584 -54.525  1.00  0.00     0.004 A 
HETATM   21  C   UNL     1     -43.778  57.324 -55.108  1.00  0.00     0.033 A 
HETATM   22  C   UNL     1     -42.866  56.158 -55.044  1.00  0.00     0.070 C 
HETATM   23  N   UNL     1     -44.908  57.283 -55.881  1.00  0.00    -0.282 N 
HETATM   24  H   UNL     1     -45.243  56.521 -56.461  1.00  0.00     0.189 HD
HETATM   25  N   UNL     1     -45.635  58.401 -55.839  1.00  0.00    -0.179 NA
HETATM   26  C   UNL     1     -44.953  59.207 -55.021  1.00  0.00     0.060 A 
HETATM   27  C   UNL     1     -45.467  60.571 -54.728  1.00  0.00     0.073 C 
ENDBRANCH  18  20
ENDBRANCH   1  18
TORSDOF 5
ENDMDL
MODEL 10
REMARK VINA RESULT:      -7.3      3.599      8.336
REMARK  5 active torsions:
REMARK  status: ('A' for Active; 'I' for Inactive)
REMARK    1  A    between atoms: C_8  and  C_9 
REMARK    2  A    between atoms: C_9  and  C_10 
REMARK       I    between atoms: C_10  and  N_11 
REMARK    3  A    between atoms: N_11  and  C_12 
REMARK    4  A    between atoms: C_12  and  C_13 
REMARK    5  A    between atoms: C_13  and  C_14 
ROOT
HETATM    1  C   UNL     1     -42.126  54.397 -53.591  1.00  0.00     0.226 C 
HETATM    2  N   UNL     1     -41.810  55.739 -53.527  1.00  0.00    -0.360 N 
HETATM    3  O   UNL     1     -43.210  53.948 -53.221  1.00  0.00    -0.273 OA
HETATM    4  H   UNL     1     -40.827  55.975 -53.557  1.00  0.00     0.162 HD
ENDROOT
BRANCH   2   5
HETATM    5  C   UNL     1     -42.702  56.699 -52.901  1.00  0.00     0.127 C 
BRANCH   5   6
HETATM    6  C   UNL     1     -42.706  58.068 -53.592  1.00  0.00     0.060 C 
BRANCH   6   7
HETATM    7  C   UNL     1     -43.764  58.165 -54.649  1.00  0.00    -0.029 A 
HETATM    8  C   UNL     1     -43.628  57.806 -56.029  1.00  0.00    -0.002 A 
HETATM    9  C   UNL     1     -44.855  58.047 -56.646  1.00  0.00     0.044 A 
HETATM   10  C   UNL     1     -42.569  57.295 -56.808  1.00  0.00     0.016 A 
HETATM   11  C   UNL     1     -45.083  57.795 -58.005  1.00  0.00     0.054 A 
HETATM   12  N   UNL     1     -45.701  58.548 -55.684  1.00  0.00    -0.365 N 
HETATM   13  C   UNL     1     -44.018  57.281 -58.750  1.00  0.00     0.036 A 
HETATM   14 CL   UNL     1     -44.249  56.948 -60.426  1.00  0.00    -0.084 Cl
HETATM   15  C   UNL     1     -42.778  57.033 -58.168  1.00  0.00     0.025 A 
HETATM   16  H   UNL     1     -46.660  58.823 -55.850  1.00  0.00     0.165 HD
HETATM   17  C   UNL     1     -45.057  58.619 -54.479  1.00  0.00     0.096 A 
ENDBRANCH   6   7
ENDBRANCH   5   6
ENDBRANCH   2   5
BRANCH   1  18
HETATM   18  C   UNL     1     -41.030  53.489 -54.159  1.00  0.00     0.111 C 
HETATM   19  C   UNL     1     -40.035  54.276 -55.008  1.00  0.00     0.025 C 
BRANCH  18  20
HETATM   20  C   UNL     1     -40.424  52.638 -53.071  1.00  0.00     0.004 A 
HETATM   21  C   UNL     1     -40.177  52.907 -51.732  1.00  0.00     0.033 A 
HETATM   22  C   UNL     1     -40.394  54.094 -50.871  1.00  0.00     0.070 C 
HETATM   23  N   UNL     1     -39.607  51.772 -51.222  1.00  0.00    -0.282 N 
HETATM   24  H   UNL     1     -39.286  51.603 -50.275  1.00  0.00     0.189 HD
HETATM   25  N   UNL     1     -39.477  50.784 -52.110  1.00  0.00    -0.179 NA
HETATM   26  C   UNL     1     -39.966  51.294 -53.243  1.00  0.00     0.060 A 
HETATM   27  C   UNL     1     -39.986  50.467 -54.479  1.00  0.00     0.073 C 
ENDBRANCH  18  20
ENDBRANCH   1  18
TORSDOF 5
ENDMDL
