MODEL 1
REMARK VINA RESULT:      -8.7      0.000      0.000
REMARK  2 active torsions:
REMARK  status: ('A' for Active; 'I' for Inactive)
REMARK    1  A    between atoms: C_4  and  N_5 
REMARK    2  A    between atoms: C_12  and  C_13 
ROOT
HETATM    1  N   UNL     1     -41.258  53.394 -53.973  1.00  0.00    -0.236 N 
HETATM    2  N   UNL     1     -40.818  54.004 -55.170  1.00  0.00    -0.179 NA
HETATM    3  C   UNL     1     -41.654  55.084 -55.380  1.00  0.00     0.119 A 
HETATM    4  C   UNL     1     -42.546  55.235 -54.386  1.00  0.00     0.123 A 
HETATM    5  C   UNL     1     -42.321  54.137 -53.435  1.00  0.00     0.280 A 
HETATM    6  O   UNL     1     -42.964  53.950 -52.417  1.00  0.00    -0.265 OA
HETATM    7  N   UNL     1     -41.666  55.914 -56.467  1.00  0.00    -0.344 N 
HETATM    8  C   UNL     1     -42.594  56.925 -56.606  1.00  0.00     0.049 A 
HETATM    9  C   UNL     1     -43.530  57.158 -55.666  1.00  0.00     0.086 A 
HETATM   10  C   UNL     1     -43.553  56.297 -54.445  1.00  0.00     0.193 A 
HETATM   11  O   UNL     1     -44.385  56.501 -53.571  1.00  0.00    -0.287 OA
HETATM   12  H   UNL     1     -40.858  53.365 -55.964  1.00  0.00     0.155 HD
HETATM   13  H   UNL     1     -40.966  55.782 -57.188  1.00  0.00     0.167 HD
ENDROOT
BRANCH   8  14
HETATM   14  C   UNL     1     -42.542  57.757 -57.828  1.00  0.00     0.012 A 
HETATM   15  C   UNL     1     -42.887  57.276 -59.104  1.00  0.00     0.046 A 
HETATM   16 CL   UNL     1     -43.430  55.652 -59.364  1.00  0.00    -0.083 Cl
HETATM   17  C   UNL     1     -42.813  58.111 -60.224  1.00  0.00     0.025 A 
HETATM   18  C   UNL     1     -42.397  59.435 -60.090  1.00  0.00     0.002 A 
HETATM   19  C   UNL     1     -42.049  59.926 -58.834  1.00  0.00     0.001 A 
HETATM   20  C   UNL     1     -42.118  59.094 -57.714  1.00  0.00     0.015 A 
ENDBRANCH   8  14
BRANCH   1  21
HETATM   21  C   UNL     1     -40.624  52.233 -53.481  1.00  0.00     0.055 A 
HETATM   22  C   UNL     1     -40.103  52.183 -52.182  1.00  0.00     0.031 A 
HETATM   23  C   UNL     1     -39.492  51.023 -51.695  1.00  0.00     0.002 A 
HETATM   24  C   UNL     1     -39.389  49.893 -52.501  1.00  0.00     0.000 A 
HETATM   25  C   UNL     1     -39.893  49.925 -53.797  1.00  0.00     0.002 A 
HETATM   26  C   UNL     1     -40.504  51.086 -54.284  1.00  0.00     0.031 A 
ENDBRANCH   1  21
TORSDOF 2
ENDMDL
MODEL 2
REMARK VINA RESULT:      -8.4      2.404      7.860
REMARK  2 active torsions:
REMARK  status: ('A' for Active; 'I' for Inactive)
REMARK    1  A    between atoms: C_4  and  N_5 
REMARK    2  A    between atoms: C_12  and  C_13 
ROOT
HETATM    1  N   UNL     1     -42.528  56.778 -56.819  1.00  0.00    -0.236 N 
HETATM    2  N   UNL     1     -42.306  55.383 -56.794  1.00  0.00    -0.179 NA
HETATM    3  C   UNL     1     -41.833  55.092 -55.529  1.00  0.00     0.119 A 
HETATM    4  C   UNL     1     -41.793  56.180 -54.741  1.00  0.00     0.123 A 
HETATM    5  C   UNL     1     -42.242  57.319 -55.555  1.00  0.00     0.280 A 
HETATM    6  O   UNL     1     -42.315  58.472 -55.166  1.00  0.00    -0.265 OA
HETATM    7  N   UNL     1     -41.394  53.879 -55.075  1.00  0.00    -0.344 N 
HETATM    8  C   UNL     1     -40.876  53.715 -53.807  1.00  0.00     0.049 A 
HETATM    9  C   UNL     1     -40.792  54.744 -52.941  1.00  0.00     0.086 A 
HETATM   10  C   UNL     1     -41.277  56.089 -53.372  1.00  0.00     0.193 A 
HETATM   11  O   UNL     1     -41.224  57.034 -52.596  1.00  0.00    -0.287 OA
HETATM   12  H   UNL     1     -41.632  55.088 -57.501  1.00  0.00     0.155 HD
HETATM   13  H   UNL     1     -41.457  53.078 -55.691  1.00  0.00     0.167 HD
ENDROOT
BRANCH   8  14
HETATM   14  C   UNL     1     -40.404  52.370 -53.414  1.00  0.00     0.012 A 
HETATM   15  C   UNL     1     -39.915  52.069 -52.130  1.00  0.00     0.046 A 
HETATM   16 CL   UNL     1     -39.836  53.254 -50.869  1.00  0.00    -0.083 Cl
HETATM   17  C   UNL     1     -39.479  50.776 -51.818  1.00  0.00     0.025 A 
HETATM   18  C   UNL     1     -39.524  49.767 -52.779  1.00  0.00     0.002 A 
HETATM   19  C   UNL     1     -40.004  50.049 -54.055  1.00  0.00     0.001 A 
HETATM   20  C   UNL     1     -40.437  51.339 -54.371  1.00  0.00     0.015 A 
ENDBRANCH   8  14
BRANCH   1  21
HETATM   21  C   UNL     1     -42.995  57.413 -57.991  1.00  0.00     0.055 A 
HETATM   22  C   UNL     1     -44.358  57.667 -58.187  1.00  0.00     0.031 A 
HETATM   23  C   UNL     1     -44.812  58.312 -59.343  1.00  0.00     0.002 A 
HETATM   24  C   UNL     1     -43.909  58.712 -60.322  1.00  0.00     0.000 A 
HETATM   25  C   UNL     1     -42.551  58.463 -60.150  1.00  0.00     0.002 A 
HETATM   26  C   UNL     1     -42.098  57.817 -58.994  1.00  0.00     0.031 A 
ENDBRANCH   1  21
TORSDOF 2
ENDMDL
MODEL 3
REMARK VINA RESULT:      -8.2      3.234      7.591
REMARK  2 active torsions:
REMARK  status: ('A' for Active; 'I' for Inactive)
REMARK    1  A    between atoms: C_4  and  N_5 
REMARK    2  A    between atoms: C_12  and  C_13 
ROOT
HETATM    1  N   UNL     1     -43.272  56.702 -56.830  1.00  0.00    -0.236 N 
HETATM    2  N   UNL     1     -43.308  55.685 -55.849  1.00  0.00    -0.179 NA
HETATM    3  C   UNL     1     -42.598  56.171 -54.767  1.00  0.00     0.119 A 
HETATM    4  C   UNL     1     -42.167  57.428 -54.968  1.00  0.00     0.123 A 
HETATM    5  C   UNL     1     -42.590  57.818 -56.321  1.00  0.00     0.280 A 
HETATM    6  O   UNL     1     -42.354  58.892 -56.845  1.00  0.00    -0.265 OA
HETATM    7  N   UNL     1     -42.287  55.496 -53.619  1.00  0.00    -0.344 N 
HETATM    8  C   UNL     1     -41.510  56.057 -52.627  1.00  0.00     0.049 A 
HETATM    9  C   UNL     1     -41.029  57.311 -52.732  1.00  0.00     0.086 A 
HETATM   10  C   UNL     1     -41.354  58.106 -53.955  1.00  0.00     0.193 A 
HETATM   11  O   UNL     1     -40.940  59.253 -54.064  1.00  0.00    -0.287 OA
HETATM   12  H   UNL     1     -42.895  54.814 -56.183  1.00  0.00     0.155 HD
HETATM   13  H   UNL     1     -42.645  54.556 -53.496  1.00  0.00     0.167 HD
ENDROOT
BRANCH   8  14
HETATM   14  C   UNL     1     -41.208  55.241 -51.431  1.00  0.00     0.012 A 
HETATM   15  C   UNL     1     -40.677  53.940 -51.499  1.00  0.00     0.046 A 
HETATM   16 CL   UNL     1     -40.304  53.172 -53.006  1.00  0.00    -0.083 Cl
HETATM   17  C   UNL     1     -40.416  53.215 -50.331  1.00  0.00     0.025 A 
HETATM   18  C   UNL     1     -40.679  53.775 -49.082  1.00  0.00     0.002 A 
HETATM   19  C   UNL     1     -41.207  55.060 -48.997  1.00  0.00     0.001 A 
HETATM   20  C   UNL     1     -41.473  55.786 -50.161  1.00  0.00     0.015 A 
ENDBRANCH   8  14
BRANCH   1  21
HETATM   21  C   UNL     1     -43.891  56.514 -58.085  1.00  0.00     0.055 A 
HETATM   22  C   UNL     1     -44.839  57.423 -58.572  1.00  0.00     0.031 A 
HETATM   23  C   UNL     1     -45.435  57.240 -59.825  1.00  0.00     0.002 A 
HETATM   24  C   UNL     1     -45.096  56.143 -60.609  1.00  0.00     0.000 A 
HETATM   25  C   UNL     1     -44.163  55.224 -60.140  1.00  0.00     0.002 A 
HETATM   26  C   UNL     1     -43.567  55.407 -58.887  1.00  0.00     0.031 A 
ENDBRANCH   1  21
TORSDOF 2
ENDMDL
MODEL 4
REMARK VINA RESULT:      -8.1      3.798      7.908
REMARK  2 active torsions:
REMARK  status: ('A' for Active; 'I' for Inactive)
REMARK    1  A    between atoms: C_4  and  N_5 
REMARK    2  A    between atoms: C_12  and  C_13 
ROOT
HETATM    1  N   UNL     1     -42.246  57.743 -52.310  1.00  0.00    -0.236 N 
HETATM    2  N   UNL     1     -41.661  56.626 -51.672  1.00  0.00    -0.179 NA
HETATM    3  C   UNL     1     -41.429  55.694 -52.666  1.00  0.00     0.119 A 
HETATM    4  C   UNL     1     -41.770  56.155 -53.881  1.00  0.00     0.123 A 
HETATM    5  C   UNL     1     -42.317  57.507 -53.692  1.00  0.00     0.280 A 
HETATM    6  O   UNL     1     -42.744  58.220 -54.583  1.00  0.00    -0.265 OA
HETATM    7  N   UNL     1     -40.960  54.420 -52.503  1.00  0.00    -0.344 N 
HETATM    8  C   UNL     1     -40.831  53.546 -53.563  1.00  0.00     0.049 A 
HETATM    9  C   UNL     1     -41.146  53.912 -54.821  1.00  0.00     0.086 A 
HETATM   10  C   UNL     1     -41.643  55.299 -55.064  1.00  0.00     0.193 A 
HETATM   11  O   UNL     1     -41.921  55.657 -56.201  1.00  0.00    -0.287 OA
HETATM   12  H   UNL     1     -42.267  56.234 -50.951  1.00  0.00     0.155 HD
HETATM   13  H   UNL     1     -40.696  54.114 -51.574  1.00  0.00     0.167 HD
ENDROOT
BRANCH   8  14
HETATM   14  C   UNL     1     -40.336  52.181 -53.286  1.00  0.00     0.012 A 
HETATM   15  C   UNL     1     -39.909  51.758 -52.013  1.00  0.00     0.046 A 
HETATM   16 CL   UNL     1     -39.943  52.805 -50.633  1.00  0.00    -0.083 Cl
HETATM   17  C   UNL     1     -39.447  50.453 -51.813  1.00  0.00     0.025 A 
HETATM   18  C   UNL     1     -39.403  49.552 -52.876  1.00  0.00     0.002 A 
HETATM   19  C   UNL     1     -39.820  49.954 -54.142  1.00  0.00     0.001 A 
HETATM   20  C   UNL     1     -40.279  51.257 -54.346  1.00  0.00     0.015 A 
ENDBRANCH   8  14
BRANCH   1  21
HETATM   21  C   UNL     1     -42.634  58.878 -51.565  1.00  0.00     0.055 A 
HETATM   22  C   UNL     1     -41.686  59.783 -51.072  1.00  0.00     0.031 A 
HETATM   23  C   UNL     1     -42.078  60.915 -50.349  1.00  0.00     0.002 A 
HETATM   24  C   UNL     1     -43.426  61.158 -50.105  1.00  0.00     0.000 A 
HETATM   25  C   UNL     1     -44.383  60.266 -50.579  1.00  0.00     0.002 A 
HETATM   26  C   UNL     1     -43.990  59.135 -51.301  1.00  0.00     0.031 A 
ENDBRANCH   1  21
TORSDOF 2
ENDMDL
MODEL 5
REMARK VINA RESULT:      -8.0      2.346      2.922
REMARK  2 active torsions:
REMARK  status: ('A' for Active; 'I' for Inactive)
REMARK    1  A    between atoms: C_4  and  N_5 
REMARK    2  A    between atoms: C_12  and  C_13 
ROOT
HETATM    1  N   UNL     1     -41.394  54.689 -54.538  1.00  0.00    -0.236 N 
HETATM    2  N   UNL     1     -42.255  54.331 -55.599  1.00  0.00    -0.179 NA
HETATM    3  C   UNL     1     -42.686  55.517 -56.161  1.00  0.00     0.119 A 
HETATM    4  C   UNL     1     -42.124  56.588 -55.576  1.00  0.00     0.123 A 
HETATM    5  C   UNL     1     -41.263  56.086 -54.495  1.00  0.00     0.280 A 
HETATM    6  O   UNL     1     -40.610  56.784 -53.739  1.00  0.00    -0.265 OA
HETATM    7  N   UNL     1     -43.608  55.665 -57.160  1.00  0.00    -0.344 N 
HETATM    8  C   UNL     1     -44.017  56.907 -57.601  1.00  0.00     0.049 A 
HETATM    9  C   UNL     1     -43.514  58.042 -57.079  1.00  0.00     0.086 A 
HETATM   10  C   UNL     1     -42.487  57.943 -55.999  1.00  0.00     0.193 A 
HETATM   11  O   UNL     1     -42.005  58.962 -55.520  1.00  0.00    -0.287 OA
HETATM   12  H   UNL     1     -43.052  53.779 -55.279  1.00  0.00     0.155 HD
HETATM   13  H   UNL     1     -43.997  54.834 -57.591  1.00  0.00     0.167 HD
ENDROOT
BRANCH   8  14
HETATM   14  C   UNL     1     -45.036  56.967 -58.671  1.00  0.00     0.012 A 
HETATM   15  C   UNL     1     -45.097  56.043 -59.731  1.00  0.00     0.046 A 
HETATM   16 CL   UNL     1     -43.984  54.723 -59.872  1.00  0.00    -0.083 Cl
HETATM   17  C   UNL     1     -46.083  56.154 -60.717  1.00  0.00     0.025 A 
HETATM   18  C   UNL     1     -47.021  57.184 -60.662  1.00  0.00     0.002 A 
HETATM   19  C   UNL     1     -46.973  58.108 -59.621  1.00  0.00     0.001 A 
HETATM   20  C   UNL     1     -45.988  58.002 -58.637  1.00  0.00     0.015 A 
ENDBRANCH   8  14
BRANCH   1  21
HETATM   21  C   UNL     1     -40.794  53.698 -53.730  1.00  0.00     0.055 A 
HETATM   22  C   UNL     1     -40.246  52.537 -54.289  1.00  0.00     0.031 A 
HETATM   23  C   UNL     1     -39.638  51.568 -53.484  1.00  0.00     0.002 A 
HETATM   24  C   UNL     1     -39.570  51.743 -52.106  1.00  0.00     0.000 A 
HETATM   25  C   UNL     1     -40.116  52.886 -51.530  1.00  0.00     0.002 A 
HETATM   26  C   UNL     1     -40.725  53.855 -52.335  1.00  0.00     0.031 A 
ENDBRANCH   1  21
TORSDOF 2
ENDMDL
MODEL 6
REMARK VINA RESULT:      -8.0      4.421      8.201
REMARK  2 active torsions:
REMARK  status: ('A' for Active; 'I' for Inactive)
REMARK    1  A    between atoms: C_4  and  N_5 
REMARK    2  A    between atoms: C_12  and  C_13 
ROOT
HETATM    1  N   UNL     1     -43.943  58.532 -52.386  1.00  0.00    -0.236 N 
HETATM    2  N   UNL     1     -42.985  57.798 -53.121  1.00  0.00    -0.179 NA
HETATM    3  C   UNL     1     -42.954  56.536 -52.557  1.00  0.00     0.119 A 
HETATM    4  C   UNL     1     -43.852  56.402 -51.566  1.00  0.00     0.123 A 
HETATM    5  C   UNL     1     -44.527  57.700 -51.418  1.00  0.00     0.280 A 
HETATM    6  O   UNL     1     -45.393  57.949 -50.597  1.00  0.00    -0.265 OA
HETATM    7  N   UNL     1     -42.107  55.513 -52.881  1.00  0.00    -0.344 N 
HETATM    8  C   UNL     1     -42.117  54.311 -52.203  1.00  0.00     0.049 A 
HETATM    9  C   UNL     1     -42.979  54.078 -51.194  1.00  0.00     0.086 A 
HETATM   10  C   UNL     1     -43.944  55.151 -50.809  1.00  0.00     0.193 A 
HETATM   11  O   UNL     1     -44.746  54.955 -49.905  1.00  0.00    -0.287 OA
HETATM   12  H   UNL     1     -42.060  58.226 -53.083  1.00  0.00     0.155 HD
HETATM   13  H   UNL     1     -41.456  55.644 -53.646  1.00  0.00     0.167 HD
ENDROOT
BRANCH   8  14
HETATM   14  C   UNL     1     -41.148  53.271 -52.610  1.00  0.00     0.012 A 
HETATM   15  C   UNL     1     -40.146  52.774 -51.757  1.00  0.00     0.046 A 
HETATM   16 CL   UNL     1     -39.966  53.325 -50.124  1.00  0.00    -0.083 Cl
HETATM   17  C   UNL     1     -39.254  51.792 -52.201  1.00  0.00     0.025 A 
HETATM   18  C   UNL     1     -39.347  51.292 -53.498  1.00  0.00     0.002 A 
HETATM   19  C   UNL     1     -40.331  51.775 -54.357  1.00  0.00     0.001 A 
HETATM   20  C   UNL     1     -41.221  52.758 -53.919  1.00  0.00     0.015 A 
ENDBRANCH   8  14
BRANCH   1  21
HETATM   21  C   UNL     1     -44.205  59.885 -52.694  1.00  0.00     0.055 A 
HETATM   22  C   UNL     1     -43.257  60.885 -52.440  1.00  0.00     0.031 A 
HETATM   23  C   UNL     1     -43.516  62.222 -52.764  1.00  0.00     0.002 A 
HETATM   24  C   UNL     1     -44.729  62.580 -53.344  1.00  0.00     0.000 A 
HETATM   25  C   UNL     1     -45.687  61.603 -53.596  1.00  0.00     0.002 A 
HETATM   26  C   UNL     1     -45.427  60.266 -53.272  1.00  0.00     0.031 A 
ENDBRANCH   1  21
TORSDOF 2
ENDMDL
MODEL 7
REMARK VINA RESULT:      -8.0      3.791      5.185
REMARK  2 active torsions:
REMARK  status: ('A' for Active; 'I' for Inactive)
REMARK    1  A    between atoms: C_4  and  N_5 
REMARK    2  A    between atoms: C_12  and  C_13 
ROOT
HETATM    1  N   UNL     1     -40.714  53.464 -53.158  1.00  0.00    -0.236 N 
HETATM    2  N   UNL     1     -41.156  54.227 -52.055  1.00  0.00    -0.179 NA
HETATM    3  C   UNL     1     -41.525  55.458 -52.563  1.00  0.00     0.119 A 
HETATM    4  C   UNL     1     -41.404  55.511 -53.900  1.00  0.00     0.123 A 
HETATM    5  C   UNL     1     -40.868  54.213 -54.335  1.00  0.00     0.280 A 
HETATM    6  O   UNL     1     -40.614  53.912 -55.489  1.00  0.00    -0.265 OA
HETATM    7  N   UNL     1     -41.928  56.554 -51.850  1.00  0.00    -0.344 N 
HETATM    8  C   UNL     1     -42.209  57.760 -52.457  1.00  0.00     0.049 A 
HETATM    9  C   UNL     1     -42.117  57.916 -53.792  1.00  0.00     0.086 A 
HETATM   10  C   UNL     1     -41.703  56.748 -54.626  1.00  0.00     0.193 A 
HETATM   11  O   UNL     1     -41.628  56.863 -55.843  1.00  0.00    -0.287 OA
HETATM   12  H   UNL     1     -40.429  54.339 -51.348  1.00  0.00     0.155 HD
HETATM   13  H   UNL     1     -42.026  56.471 -50.845  1.00  0.00     0.167 HD
ENDROOT
BRANCH   8  14
HETATM   14  C   UNL     1     -42.615  58.895 -51.601  1.00  0.00     0.012 A 
HETATM   15  C   UNL     1     -41.703  59.663 -50.853  1.00  0.00     0.046 A 
HETATM   16 CL   UNL     1     -39.998  59.358 -50.882  1.00  0.00    -0.083 Cl
HETATM   17  C   UNL     1     -42.148  60.723 -50.057  1.00  0.00     0.025 A 
HETATM   18  C   UNL     1     -43.506  61.035 -49.994  1.00  0.00     0.002 A 
HETATM   19  C   UNL     1     -44.422  60.284 -50.726  1.00  0.00     0.001 A 
HETATM   20  C   UNL     1     -43.981  59.222 -51.520  1.00  0.00     0.015 A 
ENDBRANCH   8  14
BRANCH   1  21
HETATM   21  C   UNL     1     -40.237  52.147 -52.979  1.00  0.00     0.055 A 
HETATM   22  C   UNL     1     -39.858  51.676 -51.716  1.00  0.00     0.031 A 
HETATM   23  C   UNL     1     -39.403  50.364 -51.543  1.00  0.00     0.002 A 
HETATM   24  C   UNL     1     -39.318  49.503 -52.632  1.00  0.00     0.000 A 
HETATM   25  C   UNL     1     -39.682  49.954 -53.897  1.00  0.00     0.002 A 
HETATM   26  C   UNL     1     -40.136  51.266 -54.069  1.00  0.00     0.031 A 
ENDBRANCH   1  21
TORSDOF 2
ENDMDL
MODEL 8
REMARK VINA RESULT:      -7.8      4.270      8.296
REMARK  2 active torsions:
REMARK  status: ('A' for Active; 'I' for Inactive)
REMARK    1  A    between atoms: C_4  and  N_5 
REMARK    2  A    between atoms: C_12  and  C_13 
ROOT
HETATM    1  N   UNL     1     -43.563  58.918 -51.422  1.00  0.00    -0.236 N 
HETATM    2  N   UNL     1     -42.544  58.069 -50.936  1.00  0.00    -0.179 NA
HETATM    3  C   UNL     1     -42.550  56.955 -51.754  1.00  0.00     0.119 A 
HETATM    4  C   UNL     1     -43.451  57.061 -52.746  1.00  0.00     0.123 A 
HETATM    5  C   UNL     1     -44.145  58.344 -52.563  1.00  0.00     0.280 A 
HETATM    6  O   UNL     1     -45.042  58.762 -53.274  1.00  0.00    -0.265 OA
HETATM    7  N   UNL     1     -41.797  55.824 -51.607  1.00  0.00    -0.344 N 
HETATM    8  C   UNL     1     -41.933  54.738 -52.448  1.00  0.00     0.049 A 
HETATM    9  C   UNL     1     -42.808  54.745 -53.472  1.00  0.00     0.086 A 
HETATM   10  C   UNL     1     -43.644  55.962 -53.696  1.00  0.00     0.193 A 
HETATM   11  O   UNL     1     -44.435  55.996 -54.630  1.00  0.00    -0.287 OA
HETATM   12  H   UNL     1     -42.700  57.796 -49.965  1.00  0.00     0.155 HD
HETATM   13  H   UNL     1     -41.115  55.787 -50.859  1.00  0.00     0.167 HD
ENDROOT
BRANCH   8  14
HETATM   14  C   UNL     1     -41.090  53.550 -52.196  1.00  0.00     0.012 A 
HETATM   15  C   UNL     1     -40.358  52.895 -53.204  1.00  0.00     0.046 A 
HETATM   16 CL   UNL     1     -40.362  53.438 -54.849  1.00  0.00    -0.083 Cl
HETATM   17  C   UNL     1     -39.581  51.771 -52.905  1.00  0.00     0.025 A 
HETATM   18  C   UNL     1     -39.520  51.285 -51.600  1.00  0.00     0.002 A 
HETATM   19  C   UNL     1     -40.239  51.920 -50.591  1.00  0.00     0.001 A 
HETATM   20  C   UNL     1     -41.020  53.040 -50.886  1.00  0.00     0.015 A 
ENDBRANCH   8  14
BRANCH   1  21
HETATM   21  C   UNL     1     -43.841  60.148 -50.785  1.00  0.00     0.055 A 
HETATM   22  C   UNL     1     -45.016  60.336 -50.047  1.00  0.00     0.031 A 
HETATM   23  C   UNL     1     -45.276  61.552 -49.405  1.00  0.00     0.002 A 
HETATM   24  C   UNL     1     -44.366  62.600 -49.493  1.00  0.00     0.000 A 
HETATM   25  C   UNL     1     -43.196  62.436 -50.228  1.00  0.00     0.002 A 
HETATM   26  C   UNL     1     -42.937  61.220 -50.870  1.00  0.00     0.031 A 
ENDBRANCH   1  21
TORSDOF 2
ENDMDL
MODEL 9
REMARK VINA RESULT:      -7.6      4.115      5.407
REMARK  2 active torsions:
REMARK  status: ('A' for Active; 'I' for Inactive)
REMARK    1  A    between atoms: C_4  and  N_5 
REMARK    2  A    between atoms: C_12  and  C_13 
ROOT
HETATM    1  N   UNL     1     -42.027  54.734 -53.028  1.00  0.00    -0.236 N 
HETATM    2  N   UNL     1     -41.782  55.759 -52.087  1.00  0.00    -0.179 NA
HETATM    3  C   UNL     1     -42.714  56.747 -52.343  1.00  0.00     0.119 A 
HETATM    4  C   UNL     1     -43.558  56.402 -53.331  1.00  0.00     0.123 A 
HETATM    5  C   UNL     1     -43.138  55.079 -53.814  1.00  0.00     0.280 A 
HETATM    6  O   UNL     1     -43.670  54.464 -54.722  1.00  0.00    -0.265 OA
HETATM    7  N   UNL     1     -42.800  57.972 -51.741  1.00  0.00    -0.344 N 
HETATM    8  C   UNL     1     -43.733  58.913 -52.125  1.00  0.00     0.049 A 
HETATM    9  C   UNL     1     -44.623  58.665 -53.105  1.00  0.00     0.086 A 
HETATM   10  C   UNL     1     -44.592  57.335 -53.785  1.00  0.00     0.193 A 
HETATM   11  O   UNL     1     -45.402  57.083 -54.668  1.00  0.00    -0.287 OA
HETATM   12  H   UNL     1     -40.837  56.135 -52.163  1.00  0.00     0.155 HD
HETATM   13  H   UNL     1     -42.159  58.189 -50.987  1.00  0.00     0.167 HD
ENDROOT
BRANCH   8  14
HETATM   14  C   UNL     1     -43.733  60.219 -51.430  1.00  0.00     0.012 A 
HETATM   15  C   UNL     1     -43.231  61.399 -52.008  1.00  0.00     0.046 A 
HETATM   16 CL   UNL     1     -42.576  61.438 -53.611  1.00  0.00    -0.083 Cl
HETATM   17  C   UNL     1     -43.255  62.605 -51.299  1.00  0.00     0.025 A 
HETATM   18  C   UNL     1     -43.779  62.653 -50.008  1.00  0.00     0.002 A 
HETATM   19  C   UNL     1     -44.278  61.493 -49.422  1.00  0.00     0.001 A 
HETATM   20  C   UNL     1     -44.253  60.286 -50.124  1.00  0.00     0.015 A 
ENDBRANCH   8  14
BRANCH   1  21
HETATM   21  C   UNL     1     -41.223  53.574 -53.056  1.00  0.00     0.055 A 
HETATM   22  C   UNL     1     -41.065  52.826 -54.229  1.00  0.00     0.031 A 
HETATM   23  C   UNL     1     -40.253  51.687 -54.254  1.00  0.00     0.002 A 
HETATM   24  C   UNL     1     -39.587  51.276 -53.103  1.00  0.00     0.000 A 
HETATM   25  C   UNL     1     -39.737  52.001 -51.925  1.00  0.00     0.002 A 
HETATM   26  C   UNL     1     -40.550  53.139 -51.901  1.00  0.00     0.031 A 
ENDBRANCH   1  21
TORSDOF 2
ENDMDL
MODEL 10
REMARK VINA RESULT:      -7.6      3.175      7.993
REMARK  2 active torsions:
REMARK  status: ('A' for Active; 'I' for Inactive)
REMARK    1  A    between atoms: C_4  and  N_5 
REMARK    2  A    between atoms: C_12  and  C_13 
ROOT
HETATM    1  N   UNL     1     -44.119  57.904 -56.625  1.00  0.00    -0.236 N 
HETATM    2  N   UNL     1     -43.982  56.546 -56.261  1.00  0.00    -0.179 NA
HETATM    3  C   UNL     1     -42.940  56.495 -55.354  1.00  0.00     0.119 A 
HETATM    4  C   UNL     1     -42.448  57.715 -55.079  1.00  0.00     0.123 A 
HETATM    5  C   UNL     1     -43.198  58.677 -55.899  1.00  0.00     0.280 A 
HETATM    6  O   UNL     1     -43.006  59.880 -55.918  1.00  0.00    -0.265 OA
HETATM    7  N   UNL     1     -42.388  55.373 -54.800  1.00  0.00    -0.344 N 
HETATM    8  C   UNL     1     -41.299  55.433 -53.955  1.00  0.00     0.049 A 
HETATM    9  C   UNL     1     -40.733  56.608 -53.616  1.00  0.00     0.086 A 
HETATM   10  C   UNL     1     -41.307  57.870 -54.173  1.00  0.00     0.193 A 
HETATM   11  O   UNL     1     -40.818  58.949 -53.867  1.00  0.00    -0.287 OA
HETATM   12  H   UNL     1     -43.783  55.950 -57.064  1.00  0.00     0.155 HD
HETATM   13  H   UNL     1     -42.797  54.471 -55.017  1.00  0.00     0.167 HD
ENDROOT
BRANCH   8  14
HETATM   14  C   UNL     1     -40.757  54.164 -53.423  1.00  0.00     0.012 A 
HETATM   15  C   UNL     1     -40.629  53.897 -52.047  1.00  0.00     0.046 A 
HETATM   16 CL   UNL     1     -41.118  55.034 -50.835  1.00  0.00    -0.083 Cl
HETATM   17  C   UNL     1     -40.104  52.678 -51.604  1.00  0.00     0.025 A 
HETATM   18  C   UNL     1     -39.701  51.710 -52.522  1.00  0.00     0.002 A 
HETATM   19  C   UNL     1     -39.820  51.959 -53.887  1.00  0.00     0.001 A 
HETATM   20  C   UNL     1     -40.339  53.176 -54.334  1.00  0.00     0.015 A 
ENDBRANCH   8  14
BRANCH   1  21
HETATM   21  C   UNL     1     -45.091  58.303 -57.568  1.00  0.00     0.055 A 
HETATM   22  C   UNL     1     -46.452  58.340 -57.238  1.00  0.00     0.031 A 
HETATM   23  C   UNL     1     -47.409  58.753 -58.172  1.00  0.00     0.002 A 
HETATM   24  C   UNL     1     -47.019  59.133 -59.452  1.00  0.00     0.000 A 
HETATM   25  C   UNL     1     -45.673  59.095 -59.802  1.00  0.00     0.002 A 
HETATM   26  C   UNL     1     -44.717  58.682 -58.868  1.00  0.00     0.031 A 
ENDBRANCH   1  21
TORSDOF 2
ENDMDL
