MODEL 1
REMARK VINA RESULT:      -7.2      0.000      0.000
REMARK  9 active torsions:
REMARK  status: ('A' for Active; 'I' for Inactive)
REMARK    1  A    between atoms: O_2  and  C_3 
REMARK    2  A    between atoms: C_4  and  S_5 
REMARK    3  A    between atoms: S_5  and  N_6 
REMARK    4  A    between atoms: N_6  and  C_7 
REMARK    5  A    between atoms: C_7  and  C_8 
REMARK    6  A    between atoms: C_7  and  C_21 
REMARK       I    between atoms: C_8  and  N_9 
REMARK    7  A    between atoms: N_9  and  C_10 
REMARK    8  A    between atoms: C_21  and  C_22 
REMARK    9  A    between atoms: C_22  and  S_23 
ROOT
HETATM    1  C   UNL     1     -42.965  56.582 -52.196  1.00  0.00     0.165 C 
ENDROOT
BRANCH   1   2
HETATM    2  N   UNL     1     -42.871  55.151 -51.797  1.00  0.00    -0.202 NA
HETATM    3  H   UNL     1     -42.758  54.512 -52.592  1.00  0.00     0.141 HD
BRANCH   2   4
HETATM    4  S   UNL     1     -41.627  54.779 -50.692  1.00  0.00     0.245 S 
HETATM    5  O   UNL     1     -42.258  54.422 -49.442  1.00  0.00    -0.206 OA
HETATM    6  O   UNL     1     -40.687  55.872 -50.809  1.00  0.00    -0.206 OA
BRANCH   4   7
HETATM    7  C   UNL     1     -40.833  53.350 -51.363  1.00  0.00     0.107 A 
HETATM    8  C   UNL     1     -40.565  53.294 -52.733  1.00  0.00     0.091 A 
HETATM    9  C   UNL     1     -39.883  52.198 -53.267  1.00  0.00     0.038 A 
HETATM   10  C   UNL     1     -39.507  51.139 -52.442  1.00  0.00     0.003 A 
HETATM   11  C   UNL     1     -39.803  51.178 -51.080  1.00  0.00     0.002 A 
HETATM   12  C   UNL     1     -40.466  52.281 -50.538  1.00  0.00     0.028 A 
BRANCH   8  13
HETATM   13  O   UNL     1     -40.887  54.306 -53.592  1.00  0.00    -0.354 OA
HETATM   14  C   UNL     1     -40.256  54.137 -54.863  1.00  0.00     0.210 C 
ENDBRANCH   8  13
ENDBRANCH   4   7
ENDBRANCH   2   4
ENDBRANCH   1   2
BRANCH   1  15
HETATM   15  C   UNL     1     -43.457  56.658 -53.653  1.00  0.00     0.254 C 
HETATM   16  N   UNL     1     -42.447  56.835 -54.573  1.00  0.00    -0.156 N 
HETATM   17  H   UNL     1     -41.479  56.944 -54.303  1.00  0.00     0.187 HD
HETATM   18  O   UNL     1     -44.658  56.615 -53.931  1.00  0.00    -0.271 OA
BRANCH  16  19
HETATM   19  C   UNL     1     -42.676  56.837 -55.923  1.00  0.00     0.708 A 
HETATM   20  N   UNL     1     -42.323  57.811 -56.729  1.00  0.00    -0.062 NA
HETATM   21  C   UNL     1     -42.699  57.392 -57.985  1.00  0.00     0.103 A 
HETATM   22  C   UNL     1     -43.282  56.130 -57.937  1.00  0.00     0.078 A 
HETATM   23  C   UNL     1     -42.567  58.037 -59.223  1.00  0.00     0.034 A 
HETATM   24  N   UNL     1     -43.273  55.810 -56.607  1.00  0.00    -0.188 N 
HETATM   25  C   UNL     1     -43.731  55.446 -59.069  1.00  0.00     0.032 A 
HETATM   26  H   UNL     1     -43.613  54.960 -56.173  1.00  0.00     0.184 HD
HETATM   27  C   UNL     1     -43.580  56.101 -60.297  1.00  0.00     0.002 A 
HETATM   28  C   UNL     1     -43.014  57.377 -60.376  1.00  0.00     0.002 A 
ENDBRANCH  16  19
ENDBRANCH   1  15
BRANCH   1  29
HETATM   29  C   UNL     1     -43.986  57.306 -51.305  1.00  0.00     0.040 C 
BRANCH  29  30
HETATM   30  C   UNL     1     -43.880  58.831 -51.301  1.00  0.00     0.075 C 
BRANCH  30  31
HETATM   31  S   UNL     1     -42.174  59.474 -51.337  1.00  0.00    -0.173 SA
HETATM   32  C   UNL     1     -42.140  60.177 -53.005  1.00  0.00     0.089 C 
ENDBRANCH  30  31
ENDBRANCH  29  30
ENDBRANCH   1  29
TORSDOF 9
ENDMDL
MODEL 2
REMARK VINA RESULT:      -7.1      2.508      6.260
REMARK  9 active torsions:
REMARK  status: ('A' for Active; 'I' for Inactive)
REMARK    1  A    between atoms: O_2  and  C_3 
REMARK    2  A    between atoms: C_4  and  S_5 
REMARK    3  A    between atoms: S_5  and  N_6 
REMARK    4  A    between atoms: N_6  and  C_7 
REMARK    5  A    between atoms: C_7  and  C_8 
REMARK    6  A    between atoms: C_7  and  C_21 
REMARK       I    between atoms: C_8  and  N_9 
REMARK    7  A    between atoms: N_9  and  C_10 
REMARK    8  A    between atoms: C_21  and  C_22 
REMARK    9  A    between atoms: C_22  and  S_23 
ROOT
HETATM    1  C   UNL     1     -43.502  56.808 -54.112  1.00  0.00     0.165 C 
ENDROOT
BRANCH   1   2
HETATM    2  N   UNL     1     -44.681  56.884 -53.206  1.00  0.00    -0.202 NA
HETATM    3  H   UNL     1     -44.841  56.023 -52.671  1.00  0.00     0.141 HD
BRANCH   2   4
HETATM    4  S   UNL     1     -44.658  58.163 -52.079  1.00  0.00     0.245 S 
HETATM    5  O   UNL     1     -45.493  57.767 -50.968  1.00  0.00    -0.206 OA
HETATM    6  O   UNL     1     -44.909  59.352 -52.862  1.00  0.00    -0.206 OA
BRANCH   4   7
HETATM    7  C   UNL     1     -42.980  58.257 -51.532  1.00  0.00     0.107 A 
HETATM    8  C   UNL     1     -42.390  57.141 -50.934  1.00  0.00     0.091 A 
HETATM    9  C   UNL     1     -41.046  57.181 -50.553  1.00  0.00     0.038 A 
HETATM   10  C   UNL     1     -40.304  58.348 -50.729  1.00  0.00     0.003 A 
HETATM   11  C   UNL     1     -40.901  59.474 -51.295  1.00  0.00     0.002 A 
HETATM   12  C   UNL     1     -42.239  59.432 -51.696  1.00  0.00     0.028 A 
BRANCH   8  13
HETATM   13  O   UNL     1     -43.054  55.961 -50.752  1.00  0.00    -0.354 OA
HETATM   14  C   UNL     1     -42.311  55.062 -49.924  1.00  0.00     0.210 C 
ENDBRANCH   8  13
ENDBRANCH   4   7
ENDBRANCH   2   4
ENDBRANCH   1   2
BRANCH   1  15
HETATM   15  C   UNL     1     -42.995  55.354 -54.143  1.00  0.00     0.254 C 
HETATM   16  N   UNL     1     -41.741  55.191 -53.598  1.00  0.00    -0.156 N 
HETATM   17  H   UNL     1     -41.195  55.966 -53.248  1.00  0.00     0.187 HD
HETATM   18  O   UNL     1     -43.655  54.452 -54.666  1.00  0.00    -0.271 OA
BRANCH  16  19
HETATM   19  C   UNL     1     -41.158  53.960 -53.454  1.00  0.00     0.708 A 
HETATM   20  N   UNL     1     -40.590  53.538 -52.350  1.00  0.00    -0.062 NA
HETATM   21  C   UNL     1     -40.178  52.254 -52.625  1.00  0.00     0.103 A 
HETATM   22  C   UNL     1     -40.516  51.888 -53.923  1.00  0.00     0.078 A 
HETATM   23  C   UNL     1     -39.511  51.330 -51.807  1.00  0.00     0.034 A 
HETATM   24  N   UNL     1     -41.121  53.003 -54.436  1.00  0.00    -0.188 N 
HETATM   25  C   UNL     1     -40.248  50.629 -54.464  1.00  0.00     0.032 A 
HETATM   26  H   UNL     1     -41.511  53.124 -55.363  1.00  0.00     0.184 HD
HETATM   27  C   UNL     1     -39.591  49.716 -53.628  1.00  0.00     0.002 A 
HETATM   28  C   UNL     1     -39.223  50.060 -52.324  1.00  0.00     0.002 A 
ENDBRANCH  16  19
ENDBRANCH   1  15
BRANCH   1  29
HETATM   29  C   UNL     1     -43.914  57.204 -55.538  1.00  0.00     0.040 C 
BRANCH  29  30
HETATM   30  C   UNL     1     -42.755  57.473 -56.498  1.00  0.00     0.075 C 
BRANCH  30  31
HETATM   31  S   UNL     1     -43.025  56.873 -58.199  1.00  0.00    -0.173 SA
HETATM   32  C   UNL     1     -43.868  58.310 -58.907  1.00  0.00     0.089 C 
ENDBRANCH  30  31
ENDBRANCH  29  30
ENDBRANCH   1  29
TORSDOF 9
ENDMDL
MODEL 3
REMARK VINA RESULT:      -7.1      2.387      7.140
REMARK  9 active torsions:
REMARK  status: ('A' for Active; 'I' for Inactive)
REMARK    1  A    between atoms: O_2  and  C_3 
REMARK    2  A    between atoms: C_4  and  S_5 
REMARK    3  A    between atoms: S_5  and  N_6 
REMARK    4  A    between atoms: N_6  and  C_7 
REMARK    5  A    between atoms: C_7  and  C_8 
REMARK    6  A    between atoms: C_7  and  C_21 
REMARK       I    between atoms: C_8  and  N_9 
REMARK    7  A    between atoms: N_9  and  C_10 
REMARK    8  A    between atoms: C_21  and  C_22 
REMARK    9  A    between atoms: C_22  and  S_23 
ROOT
HETATM    1  C   UNL     1     -42.086  57.141 -53.567  1.00  0.00     0.165 C 
ENDROOT
BRANCH   1   2
HETATM    2  N   UNL     1     -41.888  57.150 -55.042  1.00  0.00    -0.202 NA
HETATM    3  H   UNL     1     -41.061  56.625 -55.346  1.00  0.00     0.141 HD
BRANCH   2   4
HETATM    4  S   UNL     1     -43.201  56.567 -55.961  1.00  0.00     0.245 S 
HETATM    5  O   UNL     1     -44.371  57.311 -55.554  1.00  0.00    -0.206 OA
HETATM    6  O   UNL     1     -43.115  55.128 -55.860  1.00  0.00    -0.206 OA
BRANCH   4   7
HETATM    7  C   UNL     1     -42.808  56.985 -57.632  1.00  0.00     0.107 A 
HETATM    8  C   UNL     1     -42.302  58.254 -57.922  1.00  0.00     0.091 A 
HETATM    9  C   UNL     1     -41.929  58.578 -59.228  1.00  0.00     0.038 A 
HETATM   10  C   UNL     1     -42.101  57.649 -60.254  1.00  0.00     0.003 A 
HETATM   11  C   UNL     1     -42.637  56.393 -59.973  1.00  0.00     0.002 A 
HETATM   12  C   UNL     1     -42.992  56.058 -58.665  1.00  0.00     0.028 A 
BRANCH   8  13
HETATM   13  O   UNL     1     -42.089  59.202 -56.961  1.00  0.00    -0.354 OA
HETATM   14  C   UNL     1     -42.880  60.371 -57.192  1.00  0.00     0.210 C 
ENDBRANCH   8  13
ENDBRANCH   4   7
ENDBRANCH   2   4
ENDBRANCH   1   2
BRANCH   1  15
HETATM   15  C   UNL     1     -41.980  55.689 -53.063  1.00  0.00     0.254 C 
HETATM   16  N   UNL     1     -40.934  54.984 -53.616  1.00  0.00    -0.156 N 
HETATM   17  H   UNL     1     -40.321  55.379 -54.316  1.00  0.00     0.187 HD
HETATM   18  O   UNL     1     -42.805  55.217 -52.277  1.00  0.00    -0.271 OA
BRANCH  16  19
HETATM   19  C   UNL     1     -40.622  53.708 -53.228  1.00  0.00     0.708 A 
HETATM   20  N   UNL     1     -40.372  52.725 -54.060  1.00  0.00    -0.062 NA
HETATM   21  C   UNL     1     -40.069  51.646 -53.260  1.00  0.00     0.103 A 
HETATM   22  C   UNL     1     -40.125  51.990 -51.914  1.00  0.00     0.078 A 
HETATM   23  C   UNL     1     -39.725  50.334 -53.616  1.00  0.00     0.034 A 
HETATM   24  N   UNL     1     -40.501  53.306 -51.922  1.00  0.00    -0.188 N 
HETATM   25  C   UNL     1     -39.834  51.099 -50.879  1.00  0.00     0.032 A 
HETATM   26  H   UNL     1     -40.645  53.912 -51.125  1.00  0.00     0.184 HD
HETATM   27  C   UNL     1     -39.482  49.797 -51.255  1.00  0.00     0.002 A 
HETATM   28  C   UNL     1     -39.434  49.416 -52.599  1.00  0.00     0.002 A 
ENDBRANCH  16  19
ENDBRANCH   1  15
BRANCH   1  29
HETATM   29  C   UNL     1     -40.985  57.968 -52.887  1.00  0.00     0.040 C 
BRANCH  29  30
HETATM   30  C   UNL     1     -40.982  57.916 -51.359  1.00  0.00     0.075 C 
BRANCH  30  31
HETATM   31  S   UNL     1     -40.692  59.522 -50.546  1.00  0.00    -0.173 SA
HETATM   32  C   UNL     1     -38.882  59.547 -50.541  1.00  0.00     0.089 C 
ENDBRANCH  30  31
ENDBRANCH  29  30
ENDBRANCH   1  29
TORSDOF 9
ENDMDL
MODEL 4
REMARK VINA RESULT:      -7.1      2.145      2.975
REMARK  9 active torsions:
REMARK  status: ('A' for Active; 'I' for Inactive)
REMARK    1  A    between atoms: O_2  and  C_3 
REMARK    2  A    between atoms: C_4  and  S_5 
REMARK    3  A    between atoms: S_5  and  N_6 
REMARK    4  A    between atoms: N_6  and  C_7 
REMARK    5  A    between atoms: C_7  and  C_8 
REMARK    6  A    between atoms: C_7  and  C_21 
REMARK       I    between atoms: C_8  and  N_9 
REMARK    7  A    between atoms: N_9  and  C_10 
REMARK    8  A    between atoms: C_21  and  C_22 
REMARK    9  A    between atoms: C_22  and  S_23 
ROOT
HETATM    1  C   UNL     1     -41.375  56.745 -54.438  1.00  0.00     0.165 C 
ENDROOT
BRANCH   1   2
HETATM    2  N   UNL     1     -41.439  55.547 -53.556  1.00  0.00    -0.202 NA
HETATM    3  H   UNL     1     -42.359  55.407 -53.122  1.00  0.00     0.141 HD
BRANCH   2   4
HETATM    4  S   UNL     1     -41.019  54.069 -54.296  1.00  0.00     0.245 S 
HETATM    5  O   UNL     1     -39.863  54.321 -55.126  1.00  0.00    -0.206 OA
HETATM    6  O   UNL     1     -42.262  53.551 -54.821  1.00  0.00    -0.206 OA
BRANCH   4   7
HETATM    7  C   UNL     1     -40.547  53.010 -52.962  1.00  0.00     0.107 A 
HETATM    8  C   UNL     1     -40.056  51.733 -53.241  1.00  0.00     0.091 A 
HETATM    9  C   UNL     1     -39.622  50.908 -52.201  1.00  0.00     0.038 A 
HETATM   10  C   UNL     1     -39.717  51.342 -50.879  1.00  0.00     0.003 A 
HETATM   11  C   UNL     1     -40.238  52.604 -50.596  1.00  0.00     0.002 A 
HETATM   12  C   UNL     1     -40.654  53.439 -51.635  1.00  0.00     0.028 A 
BRANCH   8  13
HETATM   13  O   UNL     1     -39.917  51.255 -54.513  1.00  0.00    -0.354 OA
HETATM   14  C   UNL     1     -39.822  49.829 -54.532  1.00  0.00     0.210 C 
ENDBRANCH   8  13
ENDBRANCH   4   7
ENDBRANCH   2   4
ENDBRANCH   1   2
BRANCH   1  15
HETATM   15  C   UNL     1     -42.599  56.736 -55.373  1.00  0.00     0.254 C 
HETATM   16  N   UNL     1     -42.276  56.685 -56.711  1.00  0.00    -0.156 N 
HETATM   17  H   UNL     1     -41.321  56.692 -57.041  1.00  0.00     0.187 HD
HETATM   18  O   UNL     1     -43.748  56.823 -54.932  1.00  0.00    -0.271 OA
BRANCH  16  19
HETATM   19  C   UNL     1     -43.227  56.580 -57.692  1.00  0.00     0.708 A 
HETATM   20  N   UNL     1     -43.154  55.747 -58.703  1.00  0.00    -0.062 NA
HETATM   21  C   UNL     1     -44.318  55.940 -59.411  1.00  0.00     0.103 A 
HETATM   22  C   UNL     1     -45.118  56.903 -58.807  1.00  0.00     0.078 A 
HETATM   23  C   UNL     1     -44.767  55.317 -60.585  1.00  0.00     0.034 A 
HETATM   24  N   UNL     1     -44.387  57.310 -57.724  1.00  0.00    -0.188 N 
HETATM   25  C   UNL     1     -46.372  57.279 -59.293  1.00  0.00     0.032 A 
HETATM   26  H   UNL     1     -44.642  58.004 -57.031  1.00  0.00     0.184 HD
HETATM   27  C   UNL     1     -46.808  56.638 -60.460  1.00  0.00     0.002 A 
HETATM   28  C   UNL     1     -46.019  55.679 -61.100  1.00  0.00     0.002 A 
ENDBRANCH  16  19
ENDBRANCH   1  15
BRANCH   1  29
HETATM   29  C   UNL     1     -41.429  58.022 -53.587  1.00  0.00     0.040 C 
BRANCH  29  30
HETATM   30  C   UNL     1     -41.246  57.812 -52.084  1.00  0.00     0.075 C 
BRANCH  30  31
HETATM   31  S   UNL     1     -41.121  59.349 -51.112  1.00  0.00    -0.173 SA
HETATM   32  C   UNL     1     -39.342  59.364 -50.777  1.00  0.00     0.089 C 
ENDBRANCH  30  31
ENDBRANCH  29  30
ENDBRANCH   1  29
TORSDOF 9
ENDMDL
MODEL 5
REMARK VINA RESULT:      -7.0      1.881      3.048
REMARK  9 active torsions:
REMARK  status: ('A' for Active; 'I' for Inactive)
REMARK    1  A    between atoms: O_2  and  C_3 
REMARK    2  A    between atoms: C_4  and  S_5 
REMARK    3  A    between atoms: S_5  and  N_6 
REMARK    4  A    between atoms: N_6  and  C_7 
REMARK    5  A    between atoms: C_7  and  C_8 
REMARK    6  A    between atoms: C_7  and  C_21 
REMARK       I    between atoms: C_8  and  N_9 
REMARK    7  A    between atoms: N_9  and  C_10 
REMARK    8  A    between atoms: C_21  and  C_22 
REMARK    9  A    between atoms: C_22  and  S_23 
ROOT
HETATM    1  C   UNL     1     -41.329  56.170 -53.673  1.00  0.00     0.165 C 
ENDROOT
BRANCH   1   2
HETATM    2  N   UNL     1     -41.185  54.758 -53.222  1.00  0.00    -0.202 NA
HETATM    3  H   UNL     1     -42.004  54.407 -52.712  1.00  0.00     0.141 HD
BRANCH   2   4
HETATM    4  S   UNL     1     -40.855  53.626 -54.453  1.00  0.00     0.245 S 
HETATM    5  O   UNL     1     -39.764  54.156 -55.239  1.00  0.00    -0.206 OA
HETATM    6  O   UNL     1     -42.145  53.308 -55.021  1.00  0.00    -0.206 OA
BRANCH   4   7
HETATM    7  C   UNL     1     -40.300  52.179 -53.605  1.00  0.00     0.107 A 
HETATM    8  C   UNL     1     -39.916  52.274 -52.265  1.00  0.00     0.091 A 
HETATM    9  C   UNL     1     -39.535  51.127 -51.564  1.00  0.00     0.038 A 
HETATM   10  C   UNL     1     -39.497  49.893 -52.211  1.00  0.00     0.003 A 
HETATM   11  C   UNL     1     -39.847  49.801 -53.558  1.00  0.00     0.002 A 
HETATM   12  C   UNL     1     -40.249  50.942 -54.257  1.00  0.00     0.028 A 
BRANCH   8  13
HETATM   13  O   UNL     1     -39.951  53.447 -51.567  1.00  0.00    -0.354 OA
HETATM   14  C   UNL     1     -40.238  53.228 -50.183  1.00  0.00     0.210 C 
ENDBRANCH   8  13
ENDBRANCH   4   7
ENDBRANCH   2   4
ENDBRANCH   1   2
BRANCH   1  15
HETATM   15  C   UNL     1     -42.451  56.241 -54.725  1.00  0.00     0.254 C 
HETATM   16  N   UNL     1     -41.994  56.361 -56.019  1.00  0.00    -0.156 N 
HETATM   17  H   UNL     1     -41.011  56.434 -56.244  1.00  0.00     0.187 HD
HETATM   18  O   UNL     1     -43.642  56.243 -54.400  1.00  0.00    -0.271 OA
BRANCH  16  19
HETATM   19  C   UNL     1     -42.835  56.349 -57.099  1.00  0.00     0.708 A 
HETATM   20  N   UNL     1     -42.888  55.382 -57.983  1.00  0.00    -0.062 NA
HETATM   21  C   UNL     1     -43.882  55.750 -58.860  1.00  0.00     0.103 A 
HETATM   22  C   UNL     1     -44.452  56.963 -58.490  1.00  0.00     0.078 A 
HETATM   23  C   UNL     1     -44.363  55.089 -60.000  1.00  0.00     0.034 A 
HETATM   24  N   UNL     1     -43.750  57.333 -57.375  1.00  0.00    -0.188 N 
HETATM   25  C   UNL     1     -45.506  57.562 -59.183  1.00  0.00     0.032 A 
HETATM   26  H   UNL     1     -43.878  58.165 -56.813  1.00  0.00     0.184 HD
HETATM   27  C   UNL     1     -45.979  56.882 -60.312  1.00  0.00     0.002 A 
HETATM   28  C   UNL     1     -45.416  55.670 -60.720  1.00  0.00     0.002 A 
ENDBRANCH  16  19
ENDBRANCH   1  15
BRANCH   1  29
HETATM   29  C   UNL     1     -41.727  57.059 -52.485  1.00  0.00     0.040 C 
BRANCH  29  30
HETATM   30  C   UNL     1     -41.952  56.320 -51.166  1.00  0.00     0.075 C 
BRANCH  30  31
HETATM   31  S   UNL     1     -43.678  55.814 -50.865  1.00  0.00    -0.173 SA
HETATM   32  C   UNL     1     -44.522  57.387 -51.168  1.00  0.00     0.089 C 
ENDBRANCH  30  31
ENDBRANCH  29  30
ENDBRANCH   1  29
TORSDOF 9
ENDMDL
MODEL 6
REMARK VINA RESULT:      -7.0      2.677      7.588
REMARK  9 active torsions:
REMARK  status: ('A' for Active; 'I' for Inactive)
REMARK    1  A    between atoms: O_2  and  C_3 
REMARK    2  A    between atoms: C_4  and  S_5 
REMARK    3  A    between atoms: S_5  and  N_6 
REMARK    4  A    between atoms: N_6  and  C_7 
REMARK    5  A    between atoms: C_7  and  C_8 
REMARK    6  A    between atoms: C_7  and  C_21 
REMARK       I    between atoms: C_8  and  N_9 
REMARK    7  A    between atoms: N_9  and  C_10 
REMARK    8  A    between atoms: C_21  and  C_22 
REMARK    9  A    between atoms: C_22  and  S_23 
ROOT
HETATM    1  C   UNL     1     -42.466  56.591 -55.213  1.00  0.00     0.165 C 
ENDROOT
BRANCH   1   2
HETATM    2  N   UNL     1     -42.085  56.812 -56.635  1.00  0.00    -0.202 NA
HETATM    3  H   UNL     1     -41.996  55.944 -57.175  1.00  0.00     0.141 HD
BRANCH   2   4
HETATM    4  S   UNL     1     -43.124  57.834 -57.521  1.00  0.00     0.245 S 
HETATM    5  O   UNL     1     -42.289  58.731 -58.287  1.00  0.00    -0.206 OA
HETATM    6  O   UNL     1     -44.096  58.299 -56.559  1.00  0.00    -0.206 OA
BRANCH   4   7
HETATM    7  C   UNL     1     -43.981  56.759 -58.632  1.00  0.00     0.107 A 
HETATM    8  C   UNL     1     -45.032  57.263 -59.401  1.00  0.00     0.091 A 
HETATM    9  C   UNL     1     -45.678  56.441 -60.328  1.00  0.00     0.038 A 
HETATM   10  C   UNL     1     -45.302  55.104 -60.457  1.00  0.00     0.003 A 
HETATM   11  C   UNL     1     -44.276  54.590 -59.666  1.00  0.00     0.002 A 
HETATM   12  C   UNL     1     -43.614  55.414 -58.753  1.00  0.00     0.028 A 
BRANCH   8  13
HETATM   13  O   UNL     1     -45.435  58.567 -59.339  1.00  0.00    -0.354 OA
HETATM   14  C   UNL     1     -45.047  59.293 -60.507  1.00  0.00     0.210 C 
ENDBRANCH   8  13
ENDBRANCH   4   7
ENDBRANCH   2   4
ENDBRANCH   1   2
BRANCH   1  15
HETATM   15  C   UNL     1     -42.178  55.123 -54.848  1.00  0.00     0.254 C 
HETATM   16  N   UNL     1     -40.990  54.940 -54.175  1.00  0.00    -0.156 N 
HETATM   17  H   UNL     1     -40.353  55.700 -53.979  1.00  0.00     0.187 HD
HETATM   18  O   UNL     1     -42.937  54.212 -55.190  1.00  0.00    -0.271 OA
BRANCH  16  19
HETATM   19  C   UNL     1     -40.602  53.720 -53.688  1.00  0.00     0.708 A 
HETATM   20  N   UNL     1     -40.384  53.468 -52.420  1.00  0.00    -0.062 NA
HETATM   21  C   UNL     1     -40.060  52.131 -52.369  1.00  0.00     0.103 A 
HETATM   22  C   UNL     1     -40.096  51.560 -53.637  1.00  0.00     0.078 A 
HETATM   23  C   UNL     1     -39.730  51.329 -51.267  1.00  0.00     0.034 A 
HETATM   24  N   UNL     1     -40.423  52.601 -54.462  1.00  0.00    -0.188 N 
HETATM   25  C   UNL     1     -39.840  50.209 -53.880  1.00  0.00     0.032 A 
HETATM   26  H   UNL     1     -40.549  52.578 -55.466  1.00  0.00     0.184 HD
HETATM   27  C   UNL     1     -39.523  49.422 -52.766  1.00  0.00     0.002 A 
HETATM   28  C   UNL     1     -39.461  49.970 -51.482  1.00  0.00     0.002 A 
ENDBRANCH  16  19
ENDBRANCH   1  15
BRANCH   1  29
HETATM   29  C   UNL     1     -41.618  57.489 -54.300  1.00  0.00     0.040 C 
BRANCH  29  30
HETATM   30  C   UNL     1     -42.399  58.247 -53.227  1.00  0.00     0.075 C 
BRANCH  30  31
HETATM   31  S   UNL     1     -41.894  57.874 -51.515  1.00  0.00    -0.173 SA
HETATM   32  C   UNL     1     -42.760  56.303 -51.270  1.00  0.00     0.089 C 
ENDBRANCH  30  31
ENDBRANCH  29  30
ENDBRANCH   1  29
TORSDOF 9
ENDMDL
MODEL 7
REMARK VINA RESULT:      -7.0      2.265      6.806
REMARK  9 active torsions:
REMARK  status: ('A' for Active; 'I' for Inactive)
REMARK    1  A    between atoms: O_2  and  C_3 
REMARK    2  A    between atoms: C_4  and  S_5 
REMARK    3  A    between atoms: S_5  and  N_6 
REMARK    4  A    between atoms: N_6  and  C_7 
REMARK    5  A    between atoms: C_7  and  C_8 
REMARK    6  A    between atoms: C_7  and  C_21 
REMARK       I    between atoms: C_8  and  N_9 
REMARK    7  A    between atoms: N_9  and  C_10 
REMARK    8  A    between atoms: C_21  and  C_22 
REMARK    9  A    between atoms: C_22  and  S_23 
ROOT
HETATM    1  C   UNL     1     -42.681  57.682 -53.542  1.00  0.00     0.165 C 
ENDROOT
BRANCH   1   2
HETATM    2  N   UNL     1     -41.851  57.969 -54.744  1.00  0.00    -0.202 NA
HETATM    3  H   UNL     1     -41.626  57.132 -55.295  1.00  0.00     0.141 HD
BRANCH   2   4
HETATM    4  S   UNL     1     -42.505  59.108 -55.832  1.00  0.00     0.245 S 
HETATM    5  O   UNL     1     -41.626  60.254 -55.829  1.00  0.00    -0.206 OA
HETATM    6  O   UNL     1     -43.905  59.194 -55.482  1.00  0.00    -0.206 OA
BRANCH   4   7
HETATM    7  C   UNL     1     -42.422  58.326 -57.415  1.00  0.00     0.107 A 
HETATM    8  C   UNL     1     -42.808  56.989 -57.541  1.00  0.00     0.091 A 
HETATM    9  C   UNL     1     -42.807  56.377 -58.796  1.00  0.00     0.038 A 
HETATM   10  C   UNL     1     -42.380  57.085 -59.919  1.00  0.00     0.003 A 
HETATM   11  C   UNL     1     -41.962  58.409 -59.790  1.00  0.00     0.002 A 
HETATM   12  C   UNL     1     -41.982  59.032 -58.540  1.00  0.00     0.028 A 
BRANCH   8  13
HETATM   13  O   UNL     1     -43.257  56.246 -56.486  1.00  0.00    -0.354 OA
HETATM   14  C   UNL     1     -43.249  54.849 -56.787  1.00  0.00     0.210 C 
ENDBRANCH   8  13
ENDBRANCH   4   7
ENDBRANCH   2   4
ENDBRANCH   1   2
BRANCH   1  15
HETATM   15  C   UNL     1     -42.412  56.235 -53.090  1.00  0.00     0.254 C 
HETATM   16  N   UNL     1     -41.529  55.554 -53.899  1.00  0.00    -0.156 N 
HETATM   17  H   UNL     1     -41.130  55.962 -54.733  1.00  0.00     0.187 HD
HETATM   18  O   UNL     1     -42.993  55.744 -52.118  1.00  0.00    -0.271 OA
BRANCH  16  19
HETATM   19  C   UNL     1     -41.097  54.287 -53.610  1.00  0.00     0.708 A 
HETATM   20  N   UNL     1     -40.988  53.326 -54.496  1.00  0.00    -0.062 NA
HETATM   21  C   UNL     1     -40.486  52.250 -53.800  1.00  0.00     0.103 A 
HETATM   22  C   UNL     1     -40.276  52.573 -52.464  1.00  0.00     0.078 A 
HETATM   23  C   UNL     1     -40.174  50.958 -54.247  1.00  0.00     0.034 A 
HETATM   24  N   UNL     1     -40.695  53.873 -52.366  1.00  0.00    -0.188 N 
HETATM   25  C   UNL     1     -39.744  51.682 -51.530  1.00  0.00     0.032 A 
HETATM   26  H   UNL     1     -40.693  54.462 -51.544  1.00  0.00     0.184 HD
HETATM   27  C   UNL     1     -39.429  50.400 -51.998  1.00  0.00     0.002 A 
HETATM   28  C   UNL     1     -39.645  50.039 -53.331  1.00  0.00     0.002 A 
ENDBRANCH  16  19
ENDBRANCH   1  15
BRANCH   1  29
HETATM   29  C   UNL     1     -42.285  58.626 -52.397  1.00  0.00     0.040 C 
BRANCH  29  30
HETATM   30  C   UNL     1     -40.813  58.569 -51.988  1.00  0.00     0.075 C 
BRANCH  30  31
HETATM   31  S   UNL     1     -40.416  59.478 -50.457  1.00  0.00    -0.173 SA
HETATM   32  C   UNL     1     -38.612  59.547 -50.594  1.00  0.00     0.089 C 
ENDBRANCH  30  31
ENDBRANCH  29  30
ENDBRANCH   1  29
TORSDOF 9
ENDMDL
MODEL 8
REMARK VINA RESULT:      -7.0      2.555      6.658
REMARK  9 active torsions:
REMARK  status: ('A' for Active; 'I' for Inactive)
REMARK    1  A    between atoms: O_2  and  C_3 
REMARK    2  A    between atoms: C_4  and  S_5 
REMARK    3  A    between atoms: S_5  and  N_6 
REMARK    4  A    between atoms: N_6  and  C_7 
REMARK    5  A    between atoms: C_7  and  C_8 
REMARK    6  A    between atoms: C_7  and  C_21 
REMARK       I    between atoms: C_8  and  N_9 
REMARK    7  A    between atoms: N_9  and  C_10 
REMARK    8  A    between atoms: C_21  and  C_22 
REMARK    9  A    between atoms: C_22  and  S_23 
ROOT
HETATM    1  C   UNL     1     -42.737  56.749 -55.619  1.00  0.00     0.165 C 
ENDROOT
BRANCH   1   2
HETATM    2  N   UNL     1     -43.873  57.173 -54.755  1.00  0.00    -0.202 NA
HETATM    3  H   UNL     1     -44.079  56.512 -53.998  1.00  0.00     0.141 HD
BRANCH   2   4
HETATM    4  S   UNL     1     -43.708  58.709 -54.031  1.00  0.00     0.245 S 
HETATM    5  O   UNL     1     -44.972  59.022 -53.404  1.00  0.00    -0.206 OA
HETATM    6  O   UNL     1     -43.115  59.540 -55.054  1.00  0.00    -0.206 OA
BRANCH   4   7
HETATM    7  C   UNL     1     -42.483  58.492 -52.777  1.00  0.00     0.107 A 
HETATM    8  C   UNL     1     -42.506  57.340 -51.987  1.00  0.00     0.091 A 
HETATM    9  C   UNL     1     -41.508  57.126 -51.033  1.00  0.00     0.038 A 
HETATM   10  C   UNL     1     -40.511  58.081 -50.838  1.00  0.00     0.003 A 
HETATM   11  C   UNL     1     -40.506  59.248 -51.602  1.00  0.00     0.002 A 
HETATM   12  C   UNL     1     -41.490  59.456 -52.571  1.00  0.00     0.028 A 
BRANCH   8  13
HETATM   13  O   UNL     1     -43.441  56.356 -52.141  1.00  0.00    -0.354 OA
HETATM   14  C   UNL     1     -43.751  55.726 -50.896  1.00  0.00     0.210 C 
ENDBRANCH   8  13
ENDBRANCH   4   7
ENDBRANCH   2   4
ENDBRANCH   1   2
BRANCH   1  15
HETATM   15  C   UNL     1     -42.336  55.312 -55.238  1.00  0.00     0.254 C 
HETATM   16  N   UNL     1     -41.268  55.244 -54.370  1.00  0.00    -0.156 N 
HETATM   17  H   UNL     1     -40.775  56.066 -54.049  1.00  0.00     0.187 HD
HETATM   18  O   UNL     1     -42.905  54.332 -55.726  1.00  0.00    -0.271 OA
BRANCH  16  19
HETATM   19  C   UNL     1     -40.822  54.060 -53.846  1.00  0.00     0.708 A 
HETATM   20  N   UNL     1     -40.555  53.869 -52.576  1.00  0.00    -0.062 NA
HETATM   21  C   UNL     1     -40.182  52.548 -52.482  1.00  0.00     0.103 A 
HETATM   22  C   UNL     1     -40.237  51.923 -53.723  1.00  0.00     0.078 A 
HETATM   23  C   UNL     1     -39.789  51.804 -51.360  1.00  0.00     0.034 A 
HETATM   24  N   UNL     1     -40.627  52.917 -54.579  1.00  0.00    -0.188 N 
HETATM   25  C   UNL     1     -39.940  50.572 -53.919  1.00  0.00     0.032 A 
HETATM   26  H   UNL     1     -40.783  52.847 -55.577  1.00  0.00     0.184 HD
HETATM   27  C   UNL     1     -39.560  49.844 -52.785  1.00  0.00     0.002 A 
HETATM   28  C   UNL     1     -39.478  50.448 -51.527  1.00  0.00     0.002 A 
ENDBRANCH  16  19
ENDBRANCH   1  15
BRANCH   1  29
HETATM   29  C   UNL     1     -43.172  56.752 -57.092  1.00  0.00     0.040 C 
BRANCH  29  30
HETATM   30  C   UNL     1     -42.371  57.680 -58.006  1.00  0.00     0.075 C 
BRANCH  30  31
HETATM   31  S   UNL     1     -42.720  57.481 -59.784  1.00  0.00    -0.173 SA
HETATM   32  C   UNL     1     -43.242  55.747 -59.808  1.00  0.00     0.089 C 
ENDBRANCH  30  31
ENDBRANCH  29  30
ENDBRANCH   1  29
TORSDOF 9
ENDMDL
MODEL 9
REMARK VINA RESULT:      -6.7      3.321      7.929
REMARK  9 active torsions:
REMARK  status: ('A' for Active; 'I' for Inactive)
REMARK    1  A    between atoms: O_2  and  C_3 
REMARK    2  A    between atoms: C_4  and  S_5 
REMARK    3  A    between atoms: S_5  and  N_6 
REMARK    4  A    between atoms: N_6  and  C_7 
REMARK    5  A    between atoms: C_7  and  C_8 
REMARK    6  A    between atoms: C_7  and  C_21 
REMARK       I    between atoms: C_8  and  N_9 
REMARK    7  A    between atoms: N_9  and  C_10 
REMARK    8  A    between atoms: C_21  and  C_22 
REMARK    9  A    between atoms: C_22  and  S_23 
ROOT
HETATM    1  C   UNL     1     -43.123  56.117 -56.524  1.00  0.00     0.165 C 
ENDROOT
BRANCH   1   2
HETATM    2  N   UNL     1     -42.365  56.210 -57.802  1.00  0.00    -0.202 NA
HETATM    3  H   UNL     1     -41.588  55.544 -57.867  1.00  0.00     0.141 HD
BRANCH   2   4
HETATM    4  S   UNL     1     -43.294  56.015 -59.219  1.00  0.00     0.245 S 
HETATM    5  O   UNL     1     -43.941  54.726 -59.131  1.00  0.00    -0.206 OA
HETATM    6  O   UNL     1     -42.401  56.371 -60.300  1.00  0.00    -0.206 OA
BRANCH   4   7
HETATM    7  C   UNL     1     -44.524  57.281 -59.137  1.00  0.00     0.107 A 
HETATM    8  C   UNL     1     -44.135  58.602 -58.898  1.00  0.00     0.091 A 
HETATM    9  C   UNL     1     -45.089  59.622 -58.891  1.00  0.00     0.038 A 
HETATM   10  C   UNL     1     -46.437  59.318 -59.081  1.00  0.00     0.003 A 
HETATM   11  C   UNL     1     -46.831  57.997 -59.285  1.00  0.00     0.002 A 
HETATM   12  C   UNL     1     -45.878  56.977 -59.313  1.00  0.00     0.028 A 
BRANCH   8  13
HETATM   13  O   UNL     1     -42.830  58.969 -58.726  1.00  0.00    -0.354 OA
HETATM   14  C   UNL     1     -42.722  60.276 -58.158  1.00  0.00     0.210 C 
ENDBRANCH   8  13
ENDBRANCH   4   7
ENDBRANCH   2   4
ENDBRANCH   1   2
BRANCH   1  15
HETATM   15  C   UNL     1     -42.720  54.815 -55.806  1.00  0.00     0.254 C 
HETATM   16  N   UNL     1     -41.470  54.862 -55.229  1.00  0.00    -0.156 N 
HETATM   17  H   UNL     1     -40.864  55.666 -55.309  1.00  0.00     0.187 HD
HETATM   18  O   UNL     1     -43.452  53.821 -55.813  1.00  0.00    -0.271 OA
BRANCH  16  19
HETATM   19  C   UNL     1     -40.972  53.835 -54.472  1.00  0.00     0.708 A 
HETATM   20  N   UNL     1     -40.729  53.918 -53.186  1.00  0.00    -0.062 NA
HETATM   21  C   UNL     1     -40.286  52.667 -52.822  1.00  0.00     0.103 A 
HETATM   22  C   UNL     1     -40.273  51.804 -53.912  1.00  0.00     0.078 A 
HETATM   23  C   UNL     1     -39.881  52.188 -51.567  1.00  0.00     0.034 A 
HETATM   24  N   UNL     1     -40.695  52.582 -54.956  1.00  0.00    -0.188 N 
HETATM   25  C   UNL     1     -39.896  50.462 -53.828  1.00  0.00     0.032 A 
HETATM   26  H   UNL     1     -40.821  52.305 -55.922  1.00  0.00     0.184 HD
HETATM   27  C   UNL     1     -39.506  50.000 -52.566  1.00  0.00     0.002 A 
HETATM   28  C   UNL     1     -39.491  50.847 -51.454  1.00  0.00     0.002 A 
ENDBRANCH  16  19
ENDBRANCH   1  15
BRANCH   1  29
HETATM   29  C   UNL     1     -42.759  57.300 -55.615  1.00  0.00     0.040 C 
BRANCH  29  30
HETATM   30  C   UNL     1     -43.939  58.166 -55.171  1.00  0.00     0.075 C 
BRANCH  30  31
HETATM   31  S   UNL     1     -44.280  58.125 -53.380  1.00  0.00    -0.173 SA
HETATM   32  C   UNL     1     -42.860  57.155 -52.815  1.00  0.00     0.089 C 
ENDBRANCH  30  31
ENDBRANCH  29  30
ENDBRANCH   1  29
TORSDOF 9
ENDMDL
MODEL 10
REMARK VINA RESULT:      -6.7      1.959      2.838
REMARK  9 active torsions:
REMARK  status: ('A' for Active; 'I' for Inactive)
REMARK    1  A    between atoms: O_2  and  C_3 
REMARK    2  A    between atoms: C_4  and  S_5 
REMARK    3  A    between atoms: S_5  and  N_6 
REMARK    4  A    between atoms: N_6  and  C_7 
REMARK    5  A    between atoms: C_7  and  C_8 
REMARK    6  A    between atoms: C_7  and  C_21 
REMARK       I    between atoms: C_8  and  N_9 
REMARK    7  A    between atoms: N_9  and  C_10 
REMARK    8  A    between atoms: C_21  and  C_22 
REMARK    9  A    between atoms: C_22  and  S_23 
ROOT
HETATM    1  C   UNL     1     -43.781  58.280 -53.449  1.00  0.00     0.165 C 
ENDROOT
BRANCH   1   2
HETATM    2  N   UNL     1     -43.094  57.163 -52.744  1.00  0.00    -0.202 NA
HETATM    3  H   UNL     1     -43.426  56.235 -53.029  1.00  0.00     0.141 HD
BRANCH   2   4
HETATM    4  S   UNL     1     -41.395  57.140 -52.889  1.00  0.00     0.245 S 
HETATM    5  O   UNL     1     -40.851  57.320 -51.563  1.00  0.00    -0.206 OA
HETATM    6  O   UNL     1     -41.104  58.039 -53.983  1.00  0.00    -0.206 OA
BRANCH   4   7
HETATM    7  C   UNL     1     -41.008  55.510 -53.452  1.00  0.00     0.107 A 
HETATM    8  C   UNL     1     -41.330  54.413 -52.650  1.00  0.00     0.091 A 
HETATM    9  C   UNL     1     -41.086  53.116 -53.108  1.00  0.00     0.038 A 
HETATM   10  C   UNL     1     -40.482  52.916 -54.349  1.00  0.00     0.003 A 
HETATM   11  C   UNL     1     -40.129  54.010 -55.137  1.00  0.00     0.002 A 
HETATM   12  C   UNL     1     -40.390  55.308 -54.691  1.00  0.00     0.028 A 
BRANCH   8  13
HETATM   13  O   UNL     1     -41.942  54.539 -51.435  1.00  0.00    -0.354 OA
HETATM   14  C   UNL     1     -43.244  53.949 -51.438  1.00  0.00     0.210 C 
ENDBRANCH   8  13
ENDBRANCH   4   7
ENDBRANCH   2   4
ENDBRANCH   1   2
BRANCH   1  15
HETATM   15  C   UNL     1     -44.450  57.725 -54.720  1.00  0.00     0.254 C 
HETATM   16  N   UNL     1     -43.666  57.823 -55.849  1.00  0.00    -0.156 N 
HETATM   17  H   UNL     1     -42.753  58.255 -55.841  1.00  0.00     0.187 HD
HETATM   18  O   UNL     1     -45.605  57.291 -54.704  1.00  0.00    -0.271 OA
BRANCH  16  19
HETATM   19  C   UNL     1     -44.051  57.304 -57.057  1.00  0.00     0.708 A 
HETATM   20  N   UNL     1     -43.356  56.424 -57.736  1.00  0.00    -0.062 NA
HETATM   21  C   UNL     1     -44.115  56.149 -58.850  1.00  0.00     0.103 A 
HETATM   22  C   UNL     1     -45.303  56.872 -58.837  1.00  0.00     0.078 A 
HETATM   23  C   UNL     1     -43.857  55.280 -59.921  1.00  0.00     0.034 A 
HETATM   24  N   UNL     1     -45.226  57.617 -57.692  1.00  0.00    -0.188 N 
HETATM   25  C   UNL     1     -46.279  56.768 -59.830  1.00  0.00     0.032 A 
HETATM   26  H   UNL     1     -45.910  58.271 -57.332  1.00  0.00     0.184 HD
HETATM   27  C   UNL     1     -46.008  55.887 -60.885  1.00  0.00     0.002 A 
HETATM   28  C   UNL     1     -44.816  55.160 -60.935  1.00  0.00     0.002 A 
ENDBRANCH  16  19
ENDBRANCH   1  15
BRANCH   1  29
HETATM   29  C   UNL     1     -44.875  58.871 -52.547  1.00  0.00     0.040 C 
BRANCH  29  30
HETATM   30  C   UNL     1     -44.729  60.361 -52.237  1.00  0.00     0.075 C 
BRANCH  30  31
HETATM   31  S   UNL     1     -43.008  60.961 -52.191  1.00  0.00    -0.173 SA
HETATM   32  C   UNL     1     -42.976  61.935 -53.716  1.00  0.00     0.089 C 
ENDBRANCH  30  31
ENDBRANCH  29  30
ENDBRANCH   1  29
TORSDOF 9
ENDMDL
