MODEL 1
REMARK VINA RESULT:      -8.5      0.000      0.000
REMARK  8 active torsions:
REMARK  status: ('A' for Active; 'I' for Inactive)
REMARK    1  A    between atoms: C_4  and  O_5 
REMARK    2  A    between atoms: O_5  and  C_6 
REMARK    3  A    between atoms: C_8  and  C_9 
REMARK    4  A    between atoms: C_9  and  N_10 
REMARK    5  A    between atoms: C_9  and  C_14 
REMARK       I    between atoms: N_10  and  C_11 
REMARK       I    between atoms: C_11  and  N_12 
REMARK    6  A    between atoms: C_14  and  C_15 
REMARK       I    between atoms: C_15  and  N_16 
REMARK    7  A    between atoms: N_16  and  N_17 
REMARK       I    between atoms: N_17  and  C_18 
REMARK    8  A    between atoms: C_18  and  C_19 
ROOT
HETATM    1  C   UNL     1     -42.220  58.026 -51.460  1.00  0.00     0.127 C 
ENDROOT
BRANCH   1   2
HETATM    2  C   UNL     1     -42.332  56.519 -51.609  1.00  0.00    -0.032 A 
HETATM    3  C   UNL     1     -41.330  55.846 -52.331  1.00  0.00     0.046 A 
HETATM    4  C   UNL     1     -41.376  54.463 -52.512  1.00  0.00     0.076 A 
HETATM    5  C   UNL     1     -42.410  53.721 -51.941  1.00  0.00     0.037 A 
HETATM    6  C   UNL     1     -43.426  54.378 -51.245  1.00  0.00     0.003 A 
HETATM    7  C   UNL     1     -43.396  55.767 -51.092  1.00  0.00     0.009 A 
BRANCH   4   8
HETATM    8  O   UNL     1     -40.320  53.901 -53.190  1.00  0.00    -0.311 OA
BRANCH   8   9
HETATM    9  C   UNL     1     -40.184  52.532 -53.188  1.00  0.00     0.076 A 
HETATM   10  C   UNL     1     -40.436  51.729 -54.302  1.00  0.00     0.037 A 
HETATM   11  C   UNL     1     -40.229  50.350 -54.224  1.00  0.00     0.003 A 
HETATM   12  C   UNL     1     -39.748  49.780 -53.045  1.00  0.00     0.000 A 
HETATM   13  C   UNL     1     -39.468  50.588 -51.942  1.00  0.00     0.003 A 
HETATM   14  C   UNL     1     -39.680  51.964 -52.017  1.00  0.00     0.037 A 
ENDBRANCH   8   9
ENDBRANCH   4   8
ENDBRANCH   1   2
BRANCH   1  15
HETATM   15  N   UNL     1     -40.856  58.415 -51.802  1.00  0.00    -0.339 N 
HETATM   16  C   UNL     1     -40.107  59.182 -50.966  1.00  0.00     0.292 C 
HETATM   17  N   UNL     1     -38.895  59.486 -51.490  1.00  0.00    -0.254 NA
HETATM   18  O   UNL     1     -40.452  59.570 -49.861  1.00  0.00    -0.254 OA
HETATM   19  H   UNL     1     -38.444  58.766 -52.036  1.00  0.00     0.128 HD
HETATM   20  H   UNL     1     -38.285  59.956 -50.833  1.00  0.00     0.128 HD
HETATM   21  H   UNL     1     -40.610  58.446 -52.781  1.00  0.00     0.164 HD
ENDBRANCH   1  15
BRANCH   1  22
HETATM   22  C   UNL     1     -43.238  58.867 -52.241  1.00  0.00     0.134 C 
BRANCH  22  23
HETATM   23  C   UNL     1     -43.175  58.760 -53.750  1.00  0.00     0.238 C 
HETATM   24  N   UNL     1     -44.139  57.987 -54.365  1.00  0.00    -0.267 N 
HETATM   25  H   UNL     1     -44.592  57.212 -53.883  1.00  0.00     0.190 HD
HETATM   26  O   UNL     1     -42.353  59.413 -54.398  1.00  0.00    -0.272 OA
BRANCH  24  27
HETATM   27  N   UNL     1     -43.995  57.802 -55.755  1.00  0.00    -0.262 N 
HETATM   28  C   UNL     1     -43.336  56.671 -56.206  1.00  0.00     0.293 C 
HETATM   29  O   UNL     1     -43.105  55.717 -55.463  1.00  0.00    -0.264 OA
HETATM   30  H   UNL     1     -43.940  58.652 -56.320  1.00  0.00     0.190 HD
BRANCH  28  31
HETATM   31  C   UNL     1     -42.950  56.730 -57.599  1.00  0.00     0.144 A 
HETATM   32  O   UNL     1     -42.266  57.825 -58.062  1.00  0.00    -0.317 OA
HETATM   33  C   UNL     1     -42.043  57.632 -59.387  1.00  0.00     0.143 A 
HETATM   34  C   UNL     1     -42.563  56.425 -59.790  1.00  0.00     0.027 A 
HETATM   35  C   UNL     1     -43.148  55.842 -58.641  1.00  0.00     0.045 A 
ENDBRANCH  28  31
ENDBRANCH  24  27
ENDBRANCH  22  23
ENDBRANCH   1  22
TORSDOF 8
ENDMDL
MODEL 2
REMARK VINA RESULT:      -8.4      2.182      2.899
REMARK  8 active torsions:
REMARK  status: ('A' for Active; 'I' for Inactive)
REMARK    1  A    between atoms: C_4  and  O_5 
REMARK    2  A    between atoms: O_5  and  C_6 
REMARK    3  A    between atoms: C_8  and  C_9 
REMARK    4  A    between atoms: C_9  and  N_10 
REMARK    5  A    between atoms: C_9  and  C_14 
REMARK       I    between atoms: N_10  and  C_11 
REMARK       I    between atoms: C_11  and  N_12 
REMARK    6  A    between atoms: C_14  and  C_15 
REMARK       I    between atoms: C_15  and  N_16 
REMARK    7  A    between atoms: N_16  and  N_17 
REMARK       I    between atoms: N_17  and  C_18 
REMARK    8  A    between atoms: C_18  and  C_19 
ROOT
HETATM    1  C   UNL     1     -42.349  56.245 -52.166  1.00  0.00     0.127 C 
ENDROOT
BRANCH   1   2
HETATM    2  C   UNL     1     -41.638  55.369 -51.150  1.00  0.00    -0.032 A 
HETATM    3  C   UNL     1     -40.691  54.442 -51.619  1.00  0.00     0.046 A 
HETATM    4  C   UNL     1     -40.006  53.601 -50.740  1.00  0.00     0.076 A 
HETATM    5  C   UNL     1     -40.233  53.699 -49.367  1.00  0.00     0.037 A 
HETATM    6  C   UNL     1     -41.189  54.595 -48.889  1.00  0.00     0.003 A 
HETATM    7  C   UNL     1     -41.897  55.414 -49.772  1.00  0.00     0.009 A 
BRANCH   4   8
HETATM    8  O   UNL     1     -39.067  52.768 -51.299  1.00  0.00    -0.311 OA
BRANCH   8   9
HETATM    9  C   UNL     1     -39.473  51.839 -52.230  1.00  0.00     0.076 A 
HETATM   10  C   UNL     1     -39.851  52.166 -53.534  1.00  0.00     0.037 A 
HETATM   11  C   UNL     1     -40.209  51.153 -54.427  1.00  0.00     0.003 A 
HETATM   12  C   UNL     1     -40.165  49.818 -54.024  1.00  0.00     0.000 A 
HETATM   13  C   UNL     1     -39.758  49.491 -52.730  1.00  0.00     0.003 A 
HETATM   14  C   UNL     1     -39.407  50.502 -51.835  1.00  0.00     0.037 A 
ENDBRANCH   8   9
ENDBRANCH   4   8
ENDBRANCH   1   2
BRANCH   1  15
HETATM   15  N   UNL     1     -42.604  57.541 -51.547  1.00  0.00    -0.339 N 
HETATM   16  C   UNL     1     -43.864  58.038 -51.433  1.00  0.00     0.292 C 
HETATM   17  N   UNL     1     -43.883  59.279 -50.889  1.00  0.00    -0.254 NA
HETATM   18  O   UNL     1     -44.885  57.461 -51.770  1.00  0.00    -0.254 OA
HETATM   19  H   UNL     1     -43.213  59.463 -50.157  1.00  0.00     0.128 HD
HETATM   20  H   UNL     1     -44.820  59.611 -50.692  1.00  0.00     0.128 HD
HETATM   21  H   UNL     1     -41.854  58.218 -51.553  1.00  0.00     0.164 HD
ENDBRANCH   1  15
BRANCH   1  22
HETATM   22  C   UNL     1     -41.657  56.416 -53.524  1.00  0.00     0.134 C 
BRANCH  22  23
HETATM   23  C   UNL     1     -42.404  55.877 -54.726  1.00  0.00     0.238 C 
HETATM   24  N   UNL     1     -41.777  55.979 -55.951  1.00  0.00    -0.267 N 
HETATM   25  H   UNL     1     -41.093  56.708 -56.144  1.00  0.00     0.190 HD
HETATM   26  O   UNL     1     -43.481  55.290 -54.592  1.00  0.00    -0.272 OA
BRANCH  24  27
HETATM   27  N   UNL     1     -42.534  55.581 -57.072  1.00  0.00    -0.262 N 
HETATM   28  C   UNL     1     -42.926  56.550 -57.981  1.00  0.00     0.293 C 
HETATM   29  O   UNL     1     -42.431  57.677 -57.981  1.00  0.00    -0.264 OA
HETATM   30  H   UNL     1     -43.135  54.765 -56.945  1.00  0.00     0.190 HD
BRANCH  28  31
HETATM   31  C   UNL     1     -43.957  56.114 -58.898  1.00  0.00     0.144 A 
HETATM   32  O   UNL     1     -43.999  54.798 -59.285  1.00  0.00    -0.317 OA
HETATM   33  C   UNL     1     -45.041  54.665 -60.146  1.00  0.00     0.143 A 
HETATM   34  C   UNL     1     -45.680  55.870 -60.317  1.00  0.00     0.027 A 
HETATM   35  C   UNL     1     -44.984  56.804 -59.514  1.00  0.00     0.045 A 
ENDBRANCH  28  31
ENDBRANCH  24  27
ENDBRANCH  22  23
ENDBRANCH   1  22
TORSDOF 8
ENDMDL
MODEL 3
REMARK VINA RESULT:      -8.2      2.088      5.609
REMARK  8 active torsions:
REMARK  status: ('A' for Active; 'I' for Inactive)
REMARK    1  A    between atoms: C_4  and  O_5 
REMARK    2  A    between atoms: O_5  and  C_6 
REMARK    3  A    between atoms: C_8  and  C_9 
REMARK    4  A    between atoms: C_9  and  N_10 
REMARK    5  A    between atoms: C_9  and  C_14 
REMARK       I    between atoms: N_10  and  C_11 
REMARK       I    between atoms: C_11  and  N_12 
REMARK    6  A    between atoms: C_14  and  C_15 
REMARK       I    between atoms: C_15  and  N_16 
REMARK    7  A    between atoms: N_16  and  N_17 
REMARK       I    between atoms: N_17  and  C_18 
REMARK    8  A    between atoms: C_18  and  C_19 
ROOT
HETATM    1  C   UNL     1     -42.913  55.892 -57.157  1.00  0.00     0.127 C 
ENDROOT
BRANCH   1   2
HETATM    2  C   UNL     1     -42.779  55.259 -55.783  1.00  0.00    -0.032 A 
HETATM    3  C   UNL     1     -41.556  54.651 -55.447  1.00  0.00     0.046 A 
HETATM    4  C   UNL     1     -41.368  54.044 -54.205  1.00  0.00     0.076 A 
HETATM    5  C   UNL     1     -42.392  54.066 -53.258  1.00  0.00     0.037 A 
HETATM    6  C   UNL     1     -43.621  54.641 -53.586  1.00  0.00     0.003 A 
HETATM    7  C   UNL     1     -43.819  55.221 -54.843  1.00  0.00     0.009 A 
BRANCH   4   8
HETATM    8  O   UNL     1     -40.118  53.525 -53.962  1.00  0.00    -0.311 OA
BRANCH   8   9
HETATM    9  C   UNL     1     -40.010  52.208 -53.578  1.00  0.00     0.076 A 
HETATM   10  C   UNL     1     -40.158  51.132 -54.456  1.00  0.00     0.037 A 
HETATM   11  C   UNL     1     -39.988  49.827 -53.988  1.00  0.00     0.003 A 
HETATM   12  C   UNL     1     -39.648  49.601 -52.654  1.00  0.00     0.000 A 
HETATM   13  C   UNL     1     -39.470  50.678 -51.785  1.00  0.00     0.003 A 
HETATM   14  C   UNL     1     -39.646  51.982 -52.250  1.00  0.00     0.037 A 
ENDBRANCH   8   9
ENDBRANCH   4   8
ENDBRANCH   1   2
BRANCH   1  15
HETATM   15  N   UNL     1     -43.771  55.036 -57.968  1.00  0.00    -0.339 N 
HETATM   16  C   UNL     1     -43.687  55.029 -59.325  1.00  0.00     0.292 C 
HETATM   17  N   UNL     1     -44.609  54.216 -59.896  1.00  0.00    -0.254 NA
HETATM   18  O   UNL     1     -42.884  55.667 -59.987  1.00  0.00    -0.254 OA
HETATM   19  H   UNL     1     -44.817  53.356 -59.410  1.00  0.00     0.128 HD
HETATM   20  H   UNL     1     -44.481  54.112 -60.895  1.00  0.00     0.128 HD
HETATM   21  H   UNL     1     -44.654  54.750 -57.572  1.00  0.00     0.164 HD
ENDBRANCH   1  15
BRANCH   1  22
HETATM   22  C   UNL     1     -43.402  57.346 -57.194  1.00  0.00     0.134 C 
BRANCH  22  23
HETATM   23  C   UNL     1     -43.182  58.156 -55.934  1.00  0.00     0.238 C 
HETATM   24  N   UNL     1     -41.884  58.522 -55.641  1.00  0.00    -0.267 N 
HETATM   25  H   UNL     1     -41.087  57.972 -55.960  1.00  0.00     0.190 HD
HETATM   26  O   UNL     1     -44.136  58.548 -55.258  1.00  0.00    -0.272 OA
BRANCH  24  27
HETATM   27  N   UNL     1     -41.683  59.172 -54.407  1.00  0.00    -0.262 N 
HETATM   28  C   UNL     1     -41.038  58.481 -53.394  1.00  0.00     0.293 C 
HETATM   29  O   UNL     1     -40.419  57.440 -53.613  1.00  0.00    -0.264 OA
HETATM   30  H   UNL     1     -42.380  59.873 -54.147  1.00  0.00     0.190 HD
BRANCH  28  31
HETATM   31  C   UNL     1     -41.171  59.091 -52.089  1.00  0.00     0.144 A 
HETATM   32  O   UNL     1     -42.041  60.139 -51.921  1.00  0.00    -0.317 OA
HETATM   33  C   UNL     1     -41.962  60.525 -50.622  1.00  0.00     0.143 A 
HETATM   34  C   UNL     1     -41.062  59.739 -49.941  1.00  0.00     0.027 A 
HETATM   35  C   UNL     1     -40.552  58.815 -50.883  1.00  0.00     0.045 A 
ENDBRANCH  28  31
ENDBRANCH  24  27
ENDBRANCH  22  23
ENDBRANCH   1  22
TORSDOF 8
ENDMDL
MODEL 4
REMARK VINA RESULT:      -8.1      3.352      5.914
REMARK  8 active torsions:
REMARK  status: ('A' for Active; 'I' for Inactive)
REMARK    1  A    between atoms: C_4  and  O_5 
REMARK    2  A    between atoms: O_5  and  C_6 
REMARK    3  A    between atoms: C_8  and  C_9 
REMARK    4  A    between atoms: C_9  and  N_10 
REMARK    5  A    between atoms: C_9  and  C_14 
REMARK       I    between atoms: N_10  and  C_11 
REMARK       I    between atoms: C_11  and  N_12 
REMARK    6  A    between atoms: C_14  and  C_15 
REMARK       I    between atoms: C_15  and  N_16 
REMARK    7  A    between atoms: N_16  and  N_17 
REMARK       I    between atoms: N_17  and  C_18 
REMARK    8  A    between atoms: C_18  and  C_19 
ROOT
HETATM    1  C   UNL     1     -42.378  57.535 -52.672  1.00  0.00     0.127 C 
ENDROOT
BRANCH   1   2
HETATM    2  C   UNL     1     -42.419  56.194 -53.383  1.00  0.00    -0.032 A 
HETATM    3  C   UNL     1     -41.227  55.454 -53.477  1.00  0.00     0.046 A 
HETATM    4  C   UNL     1     -41.194  54.217 -54.124  1.00  0.00     0.076 A 
HETATM    5  C   UNL     1     -42.365  53.681 -54.659  1.00  0.00     0.037 A 
HETATM    6  C   UNL     1     -43.549  54.415 -54.598  1.00  0.00     0.003 A 
HETATM    7  C   UNL     1     -43.575  55.668 -53.978  1.00  0.00     0.009 A 
BRANCH   4   8
HETATM    8  O   UNL     1     -39.989  53.556 -54.113  1.00  0.00    -0.311 OA
BRANCH   8   9
HETATM    9  C   UNL     1     -39.940  52.272 -53.621  1.00  0.00     0.076 A 
HETATM   10  C   UNL     1     -40.025  51.133 -54.424  1.00  0.00     0.037 A 
HETATM   11  C   UNL     1     -39.923  49.866 -53.844  1.00  0.00     0.003 A 
HETATM   12  C   UNL     1     -39.713  49.740 -52.470  1.00  0.00     0.000 A 
HETATM   13  C   UNL     1     -39.597  50.880 -51.674  1.00  0.00     0.003 A 
HETATM   14  C   UNL     1     -39.705  52.146 -52.251  1.00  0.00     0.037 A 
ENDBRANCH   8   9
ENDBRANCH   4   8
ENDBRANCH   1   2
BRANCH   1  15
HETATM   15  N   UNL     1     -41.084  58.151 -52.942  1.00  0.00    -0.339 N 
HETATM   16  C   UNL     1     -40.332  58.688 -51.946  1.00  0.00     0.292 C 
HETATM   17  N   UNL     1     -39.196  59.266 -52.408  1.00  0.00    -0.254 NA
HETATM   18  O   UNL     1     -40.612  58.668 -50.758  1.00  0.00    -0.254 OA
HETATM   19  H   UNL     1     -38.737  58.806 -53.180  1.00  0.00     0.128 HD
HETATM   20  H   UNL     1     -38.573  59.565 -51.668  1.00  0.00     0.128 HD
HETATM   21  H   UNL     1     -40.924  58.515 -53.870  1.00  0.00     0.164 HD
ENDBRANCH   1  15
BRANCH   1  22
HETATM   22  C   UNL     1     -43.521  58.509 -52.984  1.00  0.00     0.134 C 
BRANCH  22  23
HETATM   23  C   UNL     1     -43.732  59.631 -51.989  1.00  0.00     0.238 C 
HETATM   24  N   UNL     1     -43.724  59.294 -50.651  1.00  0.00    -0.267 N 
HETATM   25  H   UNL     1     -43.986  58.362 -50.332  1.00  0.00     0.190 HD
HETATM   26  O   UNL     1     -43.811  60.803 -52.365  1.00  0.00    -0.272 OA
BRANCH  24  27
HETATM   27  N   UNL     1     -44.039  60.328 -49.746  1.00  0.00    -0.262 N 
HETATM   28  C   UNL     1     -45.316  60.372 -49.214  1.00  0.00     0.293 C 
HETATM   29  O   UNL     1     -46.087  59.416 -49.299  1.00  0.00    -0.264 OA
HETATM   30  H   UNL     1     -43.537  61.209 -49.875  1.00  0.00     0.190 HD
BRANCH  28  31
HETATM   31  C   UNL     1     -45.643  61.627 -48.572  1.00  0.00     0.144 A 
HETATM   32  O   UNL     1     -46.956  62.013 -48.480  1.00  0.00    -0.317 OA
HETATM   33  C   UNL     1     -46.980  63.217 -47.853  1.00  0.00     0.143 A 
HETATM   34  C   UNL     1     -45.704  63.615 -47.529  1.00  0.00     0.027 A 
HETATM   35  C   UNL     1     -44.842  62.593 -47.991  1.00  0.00     0.045 A 
ENDBRANCH  28  31
ENDBRANCH  24  27
ENDBRANCH  22  23
ENDBRANCH   1  22
TORSDOF 8
ENDMDL
MODEL 5
REMARK VINA RESULT:      -7.9      2.310      3.248
REMARK  8 active torsions:
REMARK  status: ('A' for Active; 'I' for Inactive)
REMARK    1  A    between atoms: C_4  and  O_5 
REMARK    2  A    between atoms: O_5  and  C_6 
REMARK    3  A    between atoms: C_8  and  C_9 
REMARK    4  A    between atoms: C_9  and  N_10 
REMARK    5  A    between atoms: C_9  and  C_14 
REMARK       I    between atoms: N_10  and  C_11 
REMARK       I    between atoms: C_11  and  N_12 
REMARK    6  A    between atoms: C_14  and  C_15 
REMARK       I    between atoms: C_15  and  N_16 
REMARK    7  A    between atoms: N_16  and  N_17 
REMARK       I    between atoms: N_17  and  C_18 
REMARK    8  A    between atoms: C_18  and  C_19 
ROOT
HETATM    1  C   UNL     1     -44.208  58.308 -52.134  1.00  0.00     0.127 C 
ENDROOT
BRANCH   1   2
HETATM    2  C   UNL     1     -43.029  57.542 -51.559  1.00  0.00    -0.032 A 
HETATM    3  C   UNL     1     -43.088  56.137 -51.550  1.00  0.00     0.046 A 
HETATM    4  C   UNL     1     -42.043  55.373 -51.029  1.00  0.00     0.076 A 
HETATM    5  C   UNL     1     -40.899  56.003 -50.539  1.00  0.00     0.037 A 
HETATM    6  C   UNL     1     -40.836  57.397 -50.516  1.00  0.00     0.003 A 
HETATM    7  C   UNL     1     -41.897  58.162 -51.009  1.00  0.00     0.009 A 
BRANCH   4   8
HETATM    8  O   UNL     1     -42.183  54.009 -51.116  1.00  0.00    -0.311 OA
BRANCH   8   9
HETATM    9  C   UNL     1     -41.264  53.293 -51.849  1.00  0.00     0.076 A 
HETATM   10  C   UNL     1     -40.319  52.436 -51.278  1.00  0.00     0.037 A 
HETATM   11  C   UNL     1     -39.452  51.714 -52.101  1.00  0.00     0.003 A 
HETATM   12  C   UNL     1     -39.545  51.830 -53.489  1.00  0.00     0.000 A 
HETATM   13  C   UNL     1     -40.509  52.662 -54.057  1.00  0.00     0.003 A 
HETATM   14  C   UNL     1     -41.372  53.389 -53.237  1.00  0.00     0.037 A 
ENDBRANCH   8   9
ENDBRANCH   4   8
ENDBRANCH   1   2
BRANCH   1  15
HETATM   15  N   UNL     1     -44.524  59.402 -51.223  1.00  0.00    -0.339 N 
HETATM   16  C   UNL     1     -45.690  59.428 -50.524  1.00  0.00     0.292 C 
HETATM   17  N   UNL     1     -45.824  60.556 -49.783  1.00  0.00    -0.254 NA
HETATM   18  O   UNL     1     -46.541  58.553 -50.534  1.00  0.00    -0.254 OA
HETATM   19  H   UNL     1     -44.984  60.919 -49.357  1.00  0.00     0.128 HD
HETATM   20  H   UNL     1     -46.629  60.534 -49.170  1.00  0.00     0.128 HD
HETATM   21  H   UNL     1     -44.083  60.294 -51.393  1.00  0.00     0.164 HD
ENDBRANCH   1  15
BRANCH   1  22
HETATM   22  C   UNL     1     -44.053  58.822 -53.570  1.00  0.00     0.134 C 
BRANCH  22  23
HETATM   23  C   UNL     1     -44.388  57.837 -54.671  1.00  0.00     0.238 C 
HETATM   24  N   UNL     1     -43.344  57.394 -55.456  1.00  0.00    -0.267 N 
HETATM   25  H   UNL     1     -42.507  57.957 -55.603  1.00  0.00     0.190 HD
HETATM   26  O   UNL     1     -45.530  57.386 -54.792  1.00  0.00    -0.272 OA
BRANCH  24  27
HETATM   27  N   UNL     1     -43.690  56.572 -56.548  1.00  0.00    -0.262 N 
HETATM   28  C   UNL     1     -43.524  57.072 -57.829  1.00  0.00     0.293 C 
HETATM   29  O   UNL     1     -42.858  58.084 -58.047  1.00  0.00    -0.264 OA
HETATM   30  H   UNL     1     -44.439  55.897 -56.385  1.00  0.00     0.190 HD
BRANCH  28  31
HETATM   31  C   UNL     1     -44.202  56.307 -58.852  1.00  0.00     0.144 A 
HETATM   32  O   UNL     1     -45.425  56.728 -59.307  1.00  0.00    -0.317 OA
HETATM   33  C   UNL     1     -45.838  55.835 -60.242  1.00  0.00     0.143 A 
HETATM   34  C   UNL     1     -44.899  54.844 -60.407  1.00  0.00     0.027 A 
HETATM   35  C   UNL     1     -43.844  55.146 -59.513  1.00  0.00     0.045 A 
ENDBRANCH  28  31
ENDBRANCH  24  27
ENDBRANCH  22  23
ENDBRANCH   1  22
TORSDOF 8
ENDMDL
MODEL 6
REMARK VINA RESULT:      -7.7      2.909      4.232
REMARK  8 active torsions:
REMARK  status: ('A' for Active; 'I' for Inactive)
REMARK    1  A    between atoms: C_4  and  O_5 
REMARK    2  A    between atoms: O_5  and  C_6 
REMARK    3  A    between atoms: C_8  and  C_9 
REMARK    4  A    between atoms: C_9  and  N_10 
REMARK    5  A    between atoms: C_9  and  C_14 
REMARK       I    between atoms: N_10  and  C_11 
REMARK       I    between atoms: C_11  and  N_12 
REMARK    6  A    between atoms: C_14  and  C_15 
REMARK       I    between atoms: C_15  and  N_16 
REMARK    7  A    between atoms: N_16  and  N_17 
REMARK       I    between atoms: N_17  and  C_18 
REMARK    8  A    between atoms: C_18  and  C_19 
ROOT
HETATM    1  C   UNL     1     -43.297  56.636 -55.364  1.00  0.00     0.127 C 
ENDROOT
BRANCH   1   2
HETATM    2  C   UNL     1     -42.929  55.663 -54.258  1.00  0.00    -0.032 A 
HETATM    3  C   UNL     1     -41.692  55.000 -54.339  1.00  0.00     0.046 A 
HETATM    4  C   UNL     1     -41.296  54.087 -53.360  1.00  0.00     0.076 A 
HETATM    5  C   UNL     1     -42.118  53.848 -52.259  1.00  0.00     0.037 A 
HETATM    6  C   UNL     1     -43.361  54.478 -52.178  1.00  0.00     0.003 A 
HETATM    7  C   UNL     1     -43.771  55.367 -53.176  1.00  0.00     0.009 A 
BRANCH   4   8
HETATM    8  O   UNL     1     -40.047  53.535 -53.512  1.00  0.00    -0.311 OA
BRANCH   8   9
HETATM    9  C   UNL     1     -39.875  52.197 -53.240  1.00  0.00     0.076 A 
HETATM   10  C   UNL     1     -39.512  51.703 -51.984  1.00  0.00     0.037 A 
HETATM   11  C   UNL     1     -39.403  50.325 -51.786  1.00  0.00     0.003 A 
HETATM   12  C   UNL     1     -39.680  49.443 -52.831  1.00  0.00     0.000 A 
HETATM   13  C   UNL     1     -40.072  49.937 -54.076  1.00  0.00     0.003 A 
HETATM   14  C   UNL     1     -40.176  51.313 -54.278  1.00  0.00     0.037 A 
ENDBRANCH   8   9
ENDBRANCH   4   8
ENDBRANCH   1   2
BRANCH   1  15
HETATM   15  N   UNL     1     -43.230  57.987 -54.819  1.00  0.00    -0.339 N 
HETATM   16  C   UNL     1     -44.242  58.876 -55.001  1.00  0.00     0.292 C 
HETATM   17  N   UNL     1     -43.963  60.094 -54.474  1.00  0.00    -0.254 NA
HETATM   18  O   UNL     1     -45.298  58.641 -55.567  1.00  0.00    -0.254 OA
HETATM   19  H   UNL     1     -43.449  60.103 -53.605  1.00  0.00     0.128 HD
HETATM   20  H   UNL     1     -44.753  60.727 -54.499  1.00  0.00     0.128 HD
HETATM   21  H   UNL     1     -42.315  58.379 -54.649  1.00  0.00     0.164 HD
ENDBRANCH   1  15
BRANCH   1  22
HETATM   22  C   UNL     1     -42.487  56.532 -56.662  1.00  0.00     0.134 C 
BRANCH  22  23
HETATM   23  C   UNL     1     -43.285  56.538 -57.949  1.00  0.00     0.238 C 
HETATM   24  N   UNL     1     -44.632  56.820 -57.852  1.00  0.00    -0.267 N 
HETATM   25  H   UNL     1     -45.160  56.624 -57.002  1.00  0.00     0.190 HD
HETATM   26  O   UNL     1     -42.728  56.390 -59.040  1.00  0.00    -0.272 OA
BRANCH  24  27
HETATM   27  N   UNL     1     -45.380  56.705 -59.040  1.00  0.00    -0.262 N 
HETATM   28  C   UNL     1     -45.927  57.852 -59.590  1.00  0.00     0.293 C 
HETATM   29  O   UNL     1     -45.574  58.975 -59.229  1.00  0.00    -0.264 OA
HETATM   30  H   UNL     1     -45.870  55.819 -59.181  1.00  0.00     0.190 HD
BRANCH  28  31
HETATM   31  C   UNL     1     -46.934  57.600 -60.597  1.00  0.00     0.144 A 
HETATM   32  O   UNL     1     -47.582  58.659 -61.182  1.00  0.00    -0.317 OA
HETATM   33  C   UNL     1     -48.472  58.147 -62.070  1.00  0.00     0.143 A 
HETATM   34  C   UNL     1     -48.407  56.774 -62.079  1.00  0.00     0.027 A 
HETATM   35  C   UNL     1     -47.417  56.419 -61.132  1.00  0.00     0.045 A 
ENDBRANCH  28  31
ENDBRANCH  24  27
ENDBRANCH  22  23
ENDBRANCH   1  22
TORSDOF 8
ENDMDL
MODEL 7
REMARK VINA RESULT:      -7.6      3.545      6.233
REMARK  8 active torsions:
REMARK  status: ('A' for Active; 'I' for Inactive)
REMARK    1  A    between atoms: C_4  and  O_5 
REMARK    2  A    between atoms: O_5  and  C_6 
REMARK    3  A    between atoms: C_8  and  C_9 
REMARK    4  A    between atoms: C_9  and  N_10 
REMARK    5  A    between atoms: C_9  and  C_14 
REMARK       I    between atoms: N_10  and  C_11 
REMARK       I    between atoms: C_11  and  N_12 
REMARK    6  A    between atoms: C_14  and  C_15 
REMARK       I    between atoms: C_15  and  N_16 
REMARK    7  A    between atoms: N_16  and  N_17 
REMARK       I    between atoms: N_17  and  C_18 
REMARK    8  A    between atoms: C_18  and  C_19 
ROOT
HETATM    1  C   UNL     1     -43.084  56.191 -58.123  1.00  0.00     0.127 C 
ENDROOT
BRANCH   1   2
HETATM    2  C   UNL     1     -42.770  56.346 -56.645  1.00  0.00    -0.032 A 
HETATM    3  C   UNL     1     -42.975  55.239 -55.802  1.00  0.00     0.046 A 
HETATM    4  C   UNL     1     -42.714  55.316 -54.433  1.00  0.00     0.076 A 
HETATM    5  C   UNL     1     -42.206  56.495 -53.888  1.00  0.00     0.037 A 
HETATM    6  C   UNL     1     -42.023  57.610 -54.707  1.00  0.00     0.003 A 
HETATM    7  C   UNL     1     -42.315  57.542 -56.072  1.00  0.00     0.009 A 
BRANCH   4   8
HETATM    8  O   UNL     1     -42.902  54.162 -53.711  1.00  0.00    -0.311 OA
BRANCH   8   9
HETATM    9  C   UNL     1     -41.801  53.417 -53.353  1.00  0.00     0.076 A 
HETATM   10  C   UNL     1     -41.060  52.651 -54.255  1.00  0.00     0.037 A 
HETATM   11  C   UNL     1     -39.930  51.960 -53.812  1.00  0.00     0.003 A 
HETATM   12  C   UNL     1     -39.529  52.054 -52.479  1.00  0.00     0.000 A 
HETATM   13  C   UNL     1     -40.253  52.845 -51.586  1.00  0.00     0.003 A 
HETATM   14  C   UNL     1     -41.385  53.531 -52.025  1.00  0.00     0.037 A 
ENDBRANCH   8   9
ENDBRANCH   4   8
ENDBRANCH   1   2
BRANCH   1  15
HETATM   15  N   UNL     1     -43.959  55.035 -58.281  1.00  0.00    -0.339 N 
HETATM   16  C   UNL     1     -44.265  54.538 -59.509  1.00  0.00     0.292 C 
HETATM   17  N   UNL     1     -45.140  53.505 -59.447  1.00  0.00    -0.254 NA
HETATM   18  O   UNL     1     -43.818  54.948 -60.568  1.00  0.00    -0.254 OA
HETATM   19  H   UNL     1     -45.035  52.870 -58.669  1.00  0.00     0.128 HD
HETATM   20  H   UNL     1     -45.284  53.053 -60.341  1.00  0.00     0.128 HD
HETATM   21  H   UNL     1     -44.623  54.847 -57.544  1.00  0.00     0.164 HD
ENDBRANCH   1  15
BRANCH   1  22
HETATM   22  C   UNL     1     -43.671  57.419 -58.829  1.00  0.00     0.134 C 
BRANCH  22  23
HETATM   23  C   UNL     1     -42.674  58.360 -59.471  1.00  0.00     0.238 C 
HETATM   24  N   UNL     1     -42.678  59.670 -59.037  1.00  0.00    -0.267 N 
HETATM   25  H   UNL     1     -43.516  60.105 -58.654  1.00  0.00     0.190 HD
HETATM   26  O   UNL     1     -41.836  57.944 -60.275  1.00  0.00    -0.272 OA
BRANCH  24  27
HETATM   27  N   UNL     1     -41.827  60.558 -59.727  1.00  0.00    -0.262 N 
HETATM   28  C   UNL     1     -40.965  61.352 -58.990  1.00  0.00     0.293 C 
HETATM   29  O   UNL     1     -40.736  61.130 -57.801  1.00  0.00    -0.264 OA
HETATM   30  H   UNL     1     -42.177  60.919 -60.616  1.00  0.00     0.190 HD
BRANCH  28  31
HETATM   31  C   UNL     1     -40.384  62.444 -59.741  1.00  0.00     0.144 A 
HETATM   32  O   UNL     1     -40.622  62.535 -61.089  1.00  0.00    -0.317 OA
HETATM   33  C   UNL     1     -39.958  63.629 -61.543  1.00  0.00     0.143 A 
HETATM   34  C   UNL     1     -39.299  64.254 -60.511  1.00  0.00     0.027 A 
HETATM   35  C   UNL     1     -39.572  63.493 -59.349  1.00  0.00     0.045 A 
ENDBRANCH  28  31
ENDBRANCH  24  27
ENDBRANCH  22  23
ENDBRANCH   1  22
TORSDOF 8
ENDMDL
MODEL 8
REMARK VINA RESULT:      -7.4      4.112      8.502
REMARK  8 active torsions:
REMARK  status: ('A' for Active; 'I' for Inactive)
REMARK    1  A    between atoms: C_4  and  O_5 
REMARK    2  A    between atoms: O_5  and  C_6 
REMARK    3  A    between atoms: C_8  and  C_9 
REMARK    4  A    between atoms: C_9  and  N_10 
REMARK    5  A    between atoms: C_9  and  C_14 
REMARK       I    between atoms: N_10  and  C_11 
REMARK       I    between atoms: C_11  and  N_12 
REMARK    6  A    between atoms: C_14  and  C_15 
REMARK       I    between atoms: C_15  and  N_16 
REMARK    7  A    between atoms: N_16  and  N_17 
REMARK       I    between atoms: N_17  and  C_18 
REMARK    8  A    between atoms: C_18  and  C_19 
ROOT
HETATM    1  C   UNL     1     -44.680  58.160 -51.884  1.00  0.00     0.127 C 
ENDROOT
BRANCH   1   2
HETATM    2  C   UNL     1     -44.465  59.493 -51.191  1.00  0.00    -0.032 A 
HETATM    3  C   UNL     1     -45.404  59.900 -50.226  1.00  0.00     0.046 A 
HETATM    4  C   UNL     1     -45.270  61.118 -49.557  1.00  0.00     0.076 A 
HETATM    5  C   UNL     1     -44.171  61.937 -49.817  1.00  0.00     0.037 A 
HETATM    6  C   UNL     1     -43.246  61.560 -50.791  1.00  0.00     0.003 A 
HETATM    7  C   UNL     1     -43.398  60.355 -51.483  1.00  0.00     0.009 A 
BRANCH   4   8
HETATM    8  O   UNL     1     -46.216  61.394 -48.598  1.00  0.00    -0.311 OA
BRANCH   8   9
HETATM    9  C   UNL     1     -45.799  61.702 -47.324  1.00  0.00     0.076 A 
HETATM   10  C   UNL     1     -45.113  60.808 -46.498  1.00  0.00     0.037 A 
HETATM   11  C   UNL     1     -44.688  61.219 -45.233  1.00  0.00     0.003 A 
HETATM   12  C   UNL     1     -44.926  62.526 -44.805  1.00  0.00     0.000 A 
HETATM   13  C   UNL     1     -45.584  63.426 -45.643  1.00  0.00     0.003 A 
HETATM   14  C   UNL     1     -46.015  63.015 -46.905  1.00  0.00     0.037 A 
ENDBRANCH   8   9
ENDBRANCH   4   8
ENDBRANCH   1   2
BRANCH   1  15
HETATM   15  N   UNL     1     -43.712  58.053 -52.970  1.00  0.00    -0.339 N 
HETATM   16  C   UNL     1     -44.071  57.597 -54.199  1.00  0.00     0.292 C 
HETATM   17  N   UNL     1     -43.018  57.512 -55.048  1.00  0.00    -0.254 NA
HETATM   18  O   UNL     1     -45.203  57.291 -54.537  1.00  0.00    -0.254 OA
HETATM   19  H   UNL     1     -42.319  58.237 -54.975  1.00  0.00     0.128 HD
HETATM   20  H   UNL     1     -43.290  57.287 -55.997  1.00  0.00     0.128 HD
HETATM   21  H   UNL     1     -42.739  57.949 -52.720  1.00  0.00     0.164 HD
ENDBRANCH   1  15
BRANCH   1  22
HETATM   22  C   UNL     1     -44.640  56.912 -50.993  1.00  0.00     0.134 C 
BRANCH  22  23
HETATM   23  C   UNL     1     -43.426  56.020 -51.148  1.00  0.00     0.238 C 
HETATM   24  N   UNL     1     -43.582  54.872 -51.897  1.00  0.00    -0.267 N 
HETATM   25  H   UNL     1     -44.487  54.412 -51.990  1.00  0.00     0.190 HD
HETATM   26  O   UNL     1     -42.328  56.361 -50.700  1.00  0.00    -0.272 OA
BRANCH  24  27
HETATM   27  N   UNL     1     -42.479  53.996 -51.932  1.00  0.00    -0.262 N 
HETATM   28  C   UNL     1     -41.698  53.964 -53.075  1.00  0.00     0.293 C 
HETATM   29  O   UNL     1     -41.776  54.838 -53.938  1.00  0.00    -0.264 OA
HETATM   30  H   UNL     1     -42.564  53.140 -51.380  1.00  0.00     0.190 HD
BRANCH  28  31
HETATM   31  C   UNL     1     -40.811  52.823 -53.150  1.00  0.00     0.144 A 
HETATM   32  O   UNL     1     -40.213  52.360 -52.006  1.00  0.00    -0.317 OA
HETATM   33  C   UNL     1     -39.433  51.305 -52.356  1.00  0.00     0.143 A 
HETATM   34  C   UNL     1     -39.522  51.070 -53.708  1.00  0.00     0.027 A 
HETATM   35  C   UNL     1     -40.409  52.047 -54.221  1.00  0.00     0.045 A 
ENDBRANCH  28  31
ENDBRANCH  24  27
ENDBRANCH  22  23
ENDBRANCH   1  22
TORSDOF 8
ENDMDL
MODEL 9
REMARK VINA RESULT:      -7.3      2.290      5.735
REMARK  8 active torsions:
REMARK  status: ('A' for Active; 'I' for Inactive)
REMARK    1  A    between atoms: C_4  and  O_5 
REMARK    2  A    between atoms: O_5  and  C_6 
REMARK    3  A    between atoms: C_8  and  C_9 
REMARK    4  A    between atoms: C_9  and  N_10 
REMARK    5  A    between atoms: C_9  and  C_14 
REMARK       I    between atoms: N_10  and  C_11 
REMARK       I    between atoms: C_11  and  N_12 
REMARK    6  A    between atoms: C_14  and  C_15 
REMARK       I    between atoms: C_15  and  N_16 
REMARK    7  A    between atoms: N_16  and  N_17 
REMARK       I    between atoms: N_17  and  C_18 
REMARK    8  A    between atoms: C_18  and  C_19 
ROOT
HETATM    1  C   UNL     1     -42.673  56.876 -54.774  1.00  0.00     0.127 C 
ENDROOT
BRANCH   1   2
HETATM    2  C   UNL     1     -42.553  55.886 -53.629  1.00  0.00    -0.032 A 
HETATM    3  C   UNL     1     -41.371  55.132 -53.522  1.00  0.00     0.046 A 
HETATM    4  C   UNL     1     -41.198  54.200 -52.498  1.00  0.00     0.076 A 
HETATM    5  C   UNL     1     -42.195  54.031 -51.537  1.00  0.00     0.037 A 
HETATM    6  C   UNL     1     -43.385  54.752 -51.645  1.00  0.00     0.003 A 
HETATM    7  C   UNL     1     -43.570  55.662 -52.689  1.00  0.00     0.009 A 
BRANCH   4   8
HETATM    8  O   UNL     1     -39.985  53.555 -52.458  1.00  0.00    -0.311 OA
BRANCH   8   9
HETATM    9  C   UNL     1     -39.940  52.208 -52.737  1.00  0.00     0.076 A 
HETATM   10  C   UNL     1     -40.124  51.677 -54.015  1.00  0.00     0.037 A 
HETATM   11  C   UNL     1     -40.019  50.298 -54.215  1.00  0.00     0.003 A 
HETATM   12  C   UNL     1     -39.707  49.458 -53.145  1.00  0.00     0.000 A 
HETATM   13  C   UNL     1     -39.493  49.994 -51.875  1.00  0.00     0.003 A 
HETATM   14  C   UNL     1     -39.604  51.369 -51.673  1.00  0.00     0.037 A 
ENDBRANCH   8   9
ENDBRANCH   4   8
ENDBRANCH   1   2
BRANCH   1  15
HETATM   15  N   UNL     1     -44.058  57.329 -54.838  1.00  0.00    -0.339 N 
HETATM   16  C   UNL     1     -44.671  57.572 -56.026  1.00  0.00     0.292 C 
HETATM   17  N   UNL     1     -45.932  58.044 -55.871  1.00  0.00    -0.254 NA
HETATM   18  O   UNL     1     -44.175  57.395 -57.127  1.00  0.00    -0.254 OA
HETATM   19  H   UNL     1     -46.469  57.657 -55.109  1.00  0.00     0.128 HD
HETATM   20  H   UNL     1     -46.438  58.118 -56.745  1.00  0.00     0.128 HD
HETATM   21  H   UNL     1     -44.428  57.816 -54.034  1.00  0.00     0.164 HD
ENDBRANCH   1  15
BRANCH   1  22
HETATM   22  C   UNL     1     -41.710  58.069 -54.750  1.00  0.00     0.134 C 
BRANCH  22  23
HETATM   23  C   UNL     1     -42.207  59.314 -54.045  1.00  0.00     0.238 C 
HETATM   24  N   UNL     1     -42.026  59.377 -52.679  1.00  0.00    -0.267 N 
HETATM   25  H   UNL     1     -41.968  58.535 -52.107  1.00  0.00     0.190 HD
HETATM   26  O   UNL     1     -42.666  60.263 -54.685  1.00  0.00    -0.272 OA
BRANCH  24  27
HETATM   27  N   UNL     1     -42.599  60.486 -52.025  1.00  0.00    -0.262 N 
HETATM   28  C   UNL     1     -42.255  60.723 -50.704  1.00  0.00     0.293 C 
HETATM   29  O   UNL     1     -41.292  60.167 -50.176  1.00  0.00    -0.264 OA
HETATM   30  H   UNL     1     -43.530  60.764 -52.340  1.00  0.00     0.190 HD
BRANCH  28  31
HETATM   31  C   UNL     1     -43.126  61.661 -50.029  1.00  0.00     0.144 A 
HETATM   32  O   UNL     1     -44.077  61.190 -49.160  1.00  0.00    -0.317 OA
HETATM   33  C   UNL     1     -44.754  62.265 -48.682  1.00  0.00     0.143 A 
HETATM   34  C   UNL     1     -44.253  63.427 -49.219  1.00  0.00     0.027 A 
HETATM   35  C   UNL     1     -43.204  63.040 -50.086  1.00  0.00     0.045 A 
ENDBRANCH  28  31
ENDBRANCH  24  27
ENDBRANCH  22  23
ENDBRANCH   1  22
TORSDOF 8
ENDMDL
MODEL 10
REMARK VINA RESULT:      -7.3     15.561     17.653
REMARK  8 active torsions:
REMARK  status: ('A' for Active; 'I' for Inactive)
REMARK    1  A    between atoms: C_4  and  O_5 
REMARK    2  A    between atoms: O_5  and  C_6 
REMARK    3  A    between atoms: C_8  and  C_9 
REMARK    4  A    between atoms: C_9  and  N_10 
REMARK    5  A    between atoms: C_9  and  C_14 
REMARK       I    between atoms: N_10  and  C_11 
REMARK       I    between atoms: C_11  and  N_12 
REMARK    6  A    between atoms: C_14  and  C_15 
REMARK       I    between atoms: C_15  and  N_16 
REMARK    7  A    between atoms: N_16  and  N_17 
REMARK       I    between atoms: N_17  and  C_18 
REMARK    8  A    between atoms: C_18  and  C_19 
ROOT
HETATM    1  C   UNL     1     -36.852  41.136 -53.533  1.00  0.00     0.127 C 
ENDROOT
BRANCH   1   2
HETATM    2  C   UNL     1     -36.544  41.446 -54.987  1.00  0.00    -0.032 A 
HETATM    3  C   UNL     1     -37.485  41.067 -55.962  1.00  0.00     0.046 A 
HETATM    4  C   UNL     1     -37.261  41.315 -57.317  1.00  0.00     0.076 A 
HETATM    5  C   UNL     1     -36.103  41.982 -57.719  1.00  0.00     0.037 A 
HETATM    6  C   UNL     1     -35.148  42.339 -56.767  1.00  0.00     0.003 A 
HETATM    7  C   UNL     1     -35.358  42.061 -55.414  1.00  0.00     0.009 A 
BRANCH   4   8
HETATM    8  O   UNL     1     -38.267  40.950 -58.178  1.00  0.00    -0.311 OA
BRANCH   8   9
HETATM    9  C   UNL     1     -38.015  39.979 -59.120  1.00  0.00     0.076 A 
HETATM   10  C   UNL     1     -37.465  40.245 -60.376  1.00  0.00     0.037 A 
HETATM   11  C   UNL     1     -37.201  39.192 -61.255  1.00  0.00     0.003 A 
HETATM   12  C   UNL     1     -37.463  37.876 -60.870  1.00  0.00     0.000 A 
HETATM   13  C   UNL     1     -37.983  37.610 -59.603  1.00  0.00     0.003 A 
HETATM   14  C   UNL     1     -38.253  38.661 -58.727  1.00  0.00     0.037 A 
ENDBRANCH   8   9
ENDBRANCH   4   8
ENDBRANCH   1   2
BRANCH   1  15
HETATM   15  N   UNL     1     -35.928  41.899 -52.702  1.00  0.00    -0.339 N 
HETATM   16  C   UNL     1     -35.001  41.283 -51.922  1.00  0.00     0.292 C 
HETATM   17  N   UNL     1     -34.282  42.161 -51.180  1.00  0.00    -0.254 NA
HETATM   18  O   UNL     1     -34.806  40.079 -51.871  1.00  0.00    -0.254 OA
HETATM   19  H   UNL     1     -34.052  43.041 -51.618  1.00  0.00     0.128 HD
HETATM   20  H   UNL     1     -33.514  41.726 -50.685  1.00  0.00     0.128 HD
HETATM   21  H   UNL     1     -36.213  42.824 -52.414  1.00  0.00     0.164 HD
ENDBRANCH   1  15
BRANCH   1  22
HETATM   22  C   UNL     1     -38.301  41.355 -53.080  1.00  0.00     0.134 C 
BRANCH  22  23
HETATM   23  C   UNL     1     -38.880  40.300 -52.162  1.00  0.00     0.238 C 
HETATM   24  N   UNL     1     -40.240  40.343 -51.935  1.00  0.00    -0.267 N 
HETATM   25  H   UNL     1     -40.766  41.214 -51.998  1.00  0.00     0.190 HD
HETATM   26  O   UNL     1     -38.175  39.389 -51.719  1.00  0.00    -0.272 OA
BRANCH  24  27
HETATM   27  N   UNL     1     -40.744  39.429 -50.988  1.00  0.00    -0.262 N 
HETATM   28  C   UNL     1     -41.970  38.833 -51.232  1.00  0.00     0.293 C 
HETATM   29  O   UNL     1     -42.500  38.874 -52.342  1.00  0.00    -0.264 OA
HETATM   30  H   UNL     1     -40.467  39.587 -50.017  1.00  0.00     0.190 HD
BRANCH  28  31
HETATM   31  C   UNL     1     -42.548  38.182 -50.077  1.00  0.00     0.144 A 
HETATM   32  O   UNL     1     -43.877  38.371 -49.794  1.00  0.00    -0.317 OA
HETATM   33  C   UNL     1     -44.154  37.666 -48.667  1.00  0.00     0.143 A 
HETATM   34  C   UNL     1     -43.028  37.017 -48.217  1.00  0.00     0.027 A 
HETATM   35  C   UNL     1     -41.993  37.347 -49.124  1.00  0.00     0.045 A 
ENDBRANCH  28  31
ENDBRANCH  24  27
ENDBRANCH  22  23
ENDBRANCH   1  22
TORSDOF 8
ENDMDL
