MODEL 1
REMARK VINA RESULT:      -8.1      0.000      0.000
REMARK  2 active torsions:
REMARK  status: ('A' for Active; 'I' for Inactive)
REMARK    1  A    between atoms: C_4  and  C_5 
REMARK    2  A    between atoms: C_11  and  C_12 
ROOT
HETATM    1  C   UNL     1     -41.583  56.014 -51.962  1.00  0.00     0.098 A 
HETATM    2  N   UNL     1     -40.860  56.349 -50.873  1.00  0.00    -0.172 NA
HETATM    3  N   UNL     1     -41.527  57.367 -50.311  1.00  0.00    -0.261 N 
HETATM    4  H   UNL     1     -41.148  57.785 -49.469  1.00  0.00     0.191 HD
HETATM    5  C   UNL     1     -42.645  57.705 -50.999  1.00  0.00     0.133 A 
HETATM    6  C   UNL     1     -42.738  56.848 -52.066  1.00  0.00     0.028 A 
HETATM    7  C   UNL     1     -43.847  56.974 -53.048  1.00  0.00     0.067 C 
HETATM    8  C   UNL     1     -44.989  57.851 -52.502  1.00  0.00     0.117 C 
HETATM    9  C   UNL     1     -44.577  58.962 -51.539  1.00  0.00     0.224 C 
HETATM   10  O   UNL     1     -45.262  59.975 -51.394  1.00  0.00    -0.273 OA
HETATM   11  N   UNL     1     -43.489  58.746 -50.729  1.00  0.00    -0.312 N 
HETATM   12  H   UNL     1     -43.293  59.442 -50.019  1.00  0.00     0.170 HD
ENDROOT
BRANCH   7  13
HETATM   13  C   UNL     1     -43.283  57.503 -54.359  1.00  0.00    -0.046 A 
HETATM   14  C   UNL     1     -43.558  56.772 -55.534  1.00  0.00     0.047 A 
HETATM   15  C   UNL     1     -43.094  57.253 -56.739  1.00  0.00     0.105 A 
HETATM   16  C   UNL     1     -42.372  58.418 -56.824  1.00  0.00     0.105 A 
HETATM   17  O   UNL     1     -43.287  56.671 -57.953  1.00  0.00    -0.323 OA
HETATM   18  O   UNL     1     -42.012  58.714 -58.101  1.00  0.00    -0.323 OA
HETATM   19  C   UNL     1     -42.085  59.170 -55.708  1.00  0.00     0.040 A 
HETATM   20  C   UNL     1     -42.605  57.609 -58.813  1.00  0.00     0.352 A 
HETATM   21  C   UNL     1     -42.556  58.714 -54.470  1.00  0.00     0.011 A 
ENDBRANCH   7  13
BRANCH   1  22
HETATM   22  C   UNL     1     -41.106  54.967 -52.869  1.00  0.00    -0.005 A 
HETATM   23  C   UNL     1     -41.144  53.612 -52.522  1.00  0.00     0.014 A 
HETATM   24  C   UNL     1     -40.706  52.635 -53.421  1.00  0.00     0.001 A 
HETATM   25  C   UNL     1     -40.213  53.003 -54.672  1.00  0.00     0.000 A 
HETATM   26  C   UNL     1     -40.152  54.348 -55.025  1.00  0.00     0.001 A 
HETATM   27  C   UNL     1     -40.595  55.323 -54.128  1.00  0.00     0.014 A 
ENDBRANCH   1  22
TORSDOF 2
ENDMDL
MODEL 2
REMARK VINA RESULT:      -8.0      2.796      5.202
REMARK  2 active torsions:
REMARK  status: ('A' for Active; 'I' for Inactive)
REMARK    1  A    between atoms: C_4  and  C_5 
REMARK    2  A    between atoms: C_11  and  C_12 
ROOT
HETATM    1  C   UNL     1     -43.520  56.979 -54.357  1.00  0.00     0.098 A 
HETATM    2  N   UNL     1     -44.808  57.061 -53.964  1.00  0.00    -0.172 NA
HETATM    3  N   UNL     1     -44.770  56.994 -52.626  1.00  0.00    -0.261 N 
HETATM    4  H   UNL     1     -45.646  57.029 -52.116  1.00  0.00     0.191 HD
HETATM    5  C   UNL     1     -43.511  56.865 -52.143  1.00  0.00     0.133 A 
HETATM    6  C   UNL     1     -42.662  56.870 -53.220  1.00  0.00     0.028 A 
HETATM    7  C   UNL     1     -41.195  56.710 -53.034  1.00  0.00     0.067 C 
HETATM    8  C   UNL     1     -40.783  56.943 -51.569  1.00  0.00     0.117 C 
HETATM    9  C   UNL     1     -41.819  56.563 -50.513  1.00  0.00     0.224 C 
HETATM   10  O   UNL     1     -41.490  56.266 -49.365  1.00  0.00    -0.273 OA
HETATM   11  N   UNL     1     -43.149  56.693 -50.835  1.00  0.00    -0.312 N 
HETATM   12  H   UNL     1     -43.823  56.545 -50.094  1.00  0.00     0.170 HD
ENDROOT
BRANCH   7  13
HETATM   13  C   UNL     1     -40.783  55.336 -53.543  1.00  0.00    -0.046 A 
HETATM   14  C   UNL     1     -40.681  54.290 -52.601  1.00  0.00     0.047 A 
HETATM   15  C   UNL     1     -40.349  53.028 -53.045  1.00  0.00     0.105 A 
HETATM   16  C   UNL     1     -40.115  52.765 -54.371  1.00  0.00     0.105 A 
HETATM   17  O   UNL     1     -40.224  51.921 -52.265  1.00  0.00    -0.323 OA
HETATM   18  O   UNL     1     -39.804  51.460 -54.596  1.00  0.00    -0.323 OA
HETATM   19  C   UNL     1     -40.209  53.749 -55.329  1.00  0.00     0.040 A 
HETATM   20  C   UNL     1     -39.887  50.929 -53.257  1.00  0.00     0.352 A 
HETATM   21  C   UNL     1     -40.559  55.040 -54.910  1.00  0.00     0.011 A 
ENDBRANCH   7  13
BRANCH   1  22
HETATM   22  C   UNL     1     -43.185  56.950 -55.783  1.00  0.00    -0.005 A 
HETATM   23  C   UNL     1     -43.392  55.810 -56.569  1.00  0.00     0.014 A 
HETATM   24  C   UNL     1     -43.086  55.823 -57.933  1.00  0.00     0.001 A 
HETATM   25  C   UNL     1     -42.558  56.970 -58.523  1.00  0.00     0.000 A 
HETATM   26  C   UNL     1     -42.330  58.105 -57.750  1.00  0.00     0.001 A 
HETATM   27  C   UNL     1     -42.640  58.094 -56.389  1.00  0.00     0.014 A 
ENDBRANCH   1  22
TORSDOF 2
ENDMDL
MODEL 3
REMARK VINA RESULT:      -7.9      2.955      4.756
REMARK  2 active torsions:
REMARK  status: ('A' for Active; 'I' for Inactive)
REMARK    1  A    between atoms: C_4  and  C_5 
REMARK    2  A    between atoms: C_11  and  C_12 
ROOT
HETATM    1  C   UNL     1     -41.030  53.609 -53.100  1.00  0.00     0.098 A 
HETATM    2  N   UNL     1     -40.005  52.740 -53.217  1.00  0.00    -0.172 NA
HETATM    3  N   UNL     1     -39.614  52.490 -51.959  1.00  0.00    -0.261 N 
HETATM    4  H   UNL     1     -38.836  51.856 -51.813  1.00  0.00     0.191 HD
HETATM    5  C   UNL     1     -40.342  53.168 -51.039  1.00  0.00     0.133 A 
HETATM    6  C   UNL     1     -41.285  53.893 -51.724  1.00  0.00     0.028 A 
HETATM    7  C   UNL     1     -42.233  54.782 -51.001  1.00  0.00     0.067 C 
HETATM    8  C   UNL     1     -42.267  54.467 -49.494  1.00  0.00     0.117 C 
HETATM    9  C   UNL     1     -40.965  53.944 -48.891  1.00  0.00     0.224 C 
HETATM   10  O   UNL     1     -40.708  54.085 -47.695  1.00  0.00    -0.273 OA
HETATM   11  N   UNL     1     -40.140  53.188 -49.687  1.00  0.00    -0.312 N 
HETATM   12  H   UNL     1     -39.337  52.755 -49.246  1.00  0.00     0.170 HD
ENDROOT
BRANCH   7  13
HETATM   13  C   UNL     1     -41.860  56.230 -51.285  1.00  0.00    -0.046 A 
HETATM   14  C   UNL     1     -42.666  56.950 -52.191  1.00  0.00     0.047 A 
HETATM   15  C   UNL     1     -42.374  58.275 -52.432  1.00  0.00     0.105 A 
HETATM   16  C   UNL     1     -41.323  58.908 -51.817  1.00  0.00     0.105 A 
HETATM   17  O   UNL     1     -43.061  59.100 -53.267  1.00  0.00    -0.323 OA
HETATM   18  O   UNL     1     -41.209  60.210 -52.192  1.00  0.00    -0.323 OA
HETATM   19  C   UNL     1     -40.512  58.252 -50.920  1.00  0.00     0.040 A 
HETATM   20  C   UNL     1     -42.322  60.328 -53.101  1.00  0.00     0.352 A 
HETATM   21  C   UNL     1     -40.793  56.907 -50.643  1.00  0.00     0.011 A 
ENDBRANCH   7  13
BRANCH   1  22
HETATM   22  C   UNL     1     -41.667  54.163 -54.298  1.00  0.00    -0.005 A 
HETATM   23  C   UNL     1     -42.814  53.591 -54.859  1.00  0.00     0.014 A 
HETATM   24  C   UNL     1     -43.413  54.160 -55.988  1.00  0.00     0.001 A 
HETATM   25  C   UNL     1     -42.863  55.299 -56.574  1.00  0.00     0.000 A 
HETATM   26  C   UNL     1     -41.712  55.868 -56.038  1.00  0.00     0.001 A 
HETATM   27  C   UNL     1     -41.117  55.303 -54.908  1.00  0.00     0.014 A 
ENDBRANCH   1  22
TORSDOF 2
ENDMDL
MODEL 4
REMARK VINA RESULT:      -7.9      0.704      1.748
REMARK  2 active torsions:
REMARK  status: ('A' for Active; 'I' for Inactive)
REMARK    1  A    between atoms: C_4  and  C_5 
REMARK    2  A    between atoms: C_11  and  C_12 
ROOT
HETATM    1  C   UNL     1     -41.555  56.245 -52.087  1.00  0.00     0.098 A 
HETATM    2  N   UNL     1     -40.765  56.685 -51.085  1.00  0.00    -0.172 NA
HETATM    3  N   UNL     1     -41.425  57.722 -50.550  1.00  0.00    -0.261 N 
HETATM    4  H   UNL     1     -41.000  58.216 -49.774  1.00  0.00     0.191 HD
HETATM    5  C   UNL     1     -42.603  57.972 -51.174  1.00  0.00     0.133 A 
HETATM    6  C   UNL     1     -42.744  57.032 -52.163  1.00  0.00     0.028 A 
HETATM    7  C   UNL     1     -43.927  57.048 -53.063  1.00  0.00     0.067 C 
HETATM    8  C   UNL     1     -45.057  57.928 -52.497  1.00  0.00     0.117 C 
HETATM    9  C   UNL     1     -44.616  59.122 -51.654  1.00  0.00     0.224 C 
HETATM   10  O   UNL     1     -45.324  60.121 -51.533  1.00  0.00    -0.273 OA
HETATM   11  N   UNL     1     -43.463  59.004 -50.917  1.00  0.00    -0.312 N 
HETATM   12  H   UNL     1     -43.240  59.757 -50.278  1.00  0.00     0.170 HD
ENDROOT
BRANCH   7  13
HETATM   13  C   UNL     1     -43.483  57.491 -54.450  1.00  0.00    -0.046 A 
HETATM   14  C   UNL     1     -42.855  58.749 -54.567  1.00  0.00     0.047 A 
HETATM   15  C   UNL     1     -42.407  59.154 -55.806  1.00  0.00     0.105 A 
HETATM   16  C   UNL     1     -42.557  58.370 -56.923  1.00  0.00     0.105 A 
HETATM   17  O   UNL     1     -41.775  60.328 -56.076  1.00  0.00    -0.323 OA
HETATM   18  O   UNL     1     -42.047  58.953 -58.040  1.00  0.00    -0.323 OA
HETATM   19  C   UNL     1     -43.156  57.133 -56.859  1.00  0.00     0.040 A 
HETATM   20  C   UNL     1     -41.541  60.189 -57.493  1.00  0.00     0.352 A 
HETATM   21  C   UNL     1     -43.609  56.687 -55.610  1.00  0.00     0.011 A 
ENDBRANCH   7  13
BRANCH   1  22
HETATM   22  C   UNL     1     -41.108  55.147 -52.948  1.00  0.00    -0.005 A 
HETATM   23  C   UNL     1     -40.578  55.374 -54.223  1.00  0.00     0.014 A 
HETATM   24  C   UNL     1     -40.136  54.306 -55.010  1.00  0.00     0.001 A 
HETATM   25  C   UNL     1     -40.232  52.998 -54.536  1.00  0.00     0.000 A 
HETATM   26  C   UNL     1     -40.775  52.755 -53.277  1.00  0.00     0.001 A 
HETATM   27  C   UNL     1     -41.211  53.823 -52.490  1.00  0.00     0.014 A 
ENDBRANCH   1  22
TORSDOF 2
ENDMDL
MODEL 5
REMARK VINA RESULT:      -7.8      3.028      4.835
REMARK  2 active torsions:
REMARK  status: ('A' for Active; 'I' for Inactive)
REMARK    1  A    between atoms: C_4  and  C_5 
REMARK    2  A    between atoms: C_11  and  C_12 
ROOT
HETATM    1  C   UNL     1     -42.749  54.627 -53.665  1.00  0.00     0.098 A 
HETATM    2  N   UNL     1     -43.965  54.046 -53.731  1.00  0.00    -0.172 NA
HETATM    3  N   UNL     1     -44.725  54.906 -54.423  1.00  0.00    -0.261 N 
HETATM    4  H   UNL     1     -45.697  54.667 -54.586  1.00  0.00     0.191 HD
HETATM    5  C   UNL     1     -44.049  56.019 -54.798  1.00  0.00     0.133 A 
HETATM    6  C   UNL     1     -42.761  55.880 -54.349  1.00  0.00     0.028 A 
HETATM    7  C   UNL     1     -41.758  56.956 -54.570  1.00  0.00     0.067 C 
HETATM    8  C   UNL     1     -42.230  57.958 -55.640  1.00  0.00     0.117 C 
HETATM    9  C   UNL     1     -43.739  58.170 -55.740  1.00  0.00     0.224 C 
HETATM   10  O   UNL     1     -44.214  59.213 -56.188  1.00  0.00    -0.273 OA
HETATM   11  N   UNL     1     -44.562  57.111 -55.442  1.00  0.00    -0.312 N 
HETATM   12  H   UNL     1     -45.553  57.229 -55.618  1.00  0.00     0.170 HD
ENDROOT
BRANCH   7  13
HETATM   13  C   UNL     1     -41.458  57.628 -53.237  1.00  0.00    -0.046 A 
HETATM   14  C   UNL     1     -40.180  58.199 -53.063  1.00  0.00     0.047 A 
HETATM   15  C   UNL     1     -39.898  58.849 -51.881  1.00  0.00     0.105 A 
HETATM   16  C   UNL     1     -40.824  58.952 -50.873  1.00  0.00     0.105 A 
HETATM   17  O   UNL     1     -38.722  59.456 -51.571  1.00  0.00    -0.323 OA
HETATM   18  O   UNL     1     -40.347  59.630 -49.796  1.00  0.00    -0.323 OA
HETATM   19  C   UNL     1     -42.087  58.418 -50.997  1.00  0.00     0.040 A 
HETATM   20  C   UNL     1     -39.018  59.958 -50.250  1.00  0.00     0.352 A 
HETATM   21  C   UNL     1     -42.407  57.764 -52.194  1.00  0.00     0.011 A 
ENDBRANCH   7  13
BRANCH   1  22
HETATM   22  C   UNL     1     -41.668  53.989 -52.908  1.00  0.00    -0.005 A 
HETATM   23  C   UNL     1     -40.817  53.042 -53.488  1.00  0.00     0.014 A 
HETATM   24  C   UNL     1     -39.778  52.471 -52.746  1.00  0.00     0.001 A 
HETATM   25  C   UNL     1     -39.587  52.833 -51.413  1.00  0.00     0.000 A 
HETATM   26  C   UNL     1     -40.437  53.761 -50.818  1.00  0.00     0.001 A 
HETATM   27  C   UNL     1     -41.471  54.334 -51.560  1.00  0.00     0.014 A 
ENDBRANCH   1  22
TORSDOF 2
ENDMDL
MODEL 6
REMARK VINA RESULT:      -7.7      1.954      3.020
REMARK  2 active torsions:
REMARK  status: ('A' for Active; 'I' for Inactive)
REMARK    1  A    between atoms: C_4  and  C_5 
REMARK    2  A    between atoms: C_11  and  C_12 
ROOT
HETATM    1  C   UNL     1     -40.683  53.830 -51.498  1.00  0.00     0.098 A 
HETATM    2  N   UNL     1     -39.766  54.440 -50.718  1.00  0.00    -0.172 NA
HETATM    3  N   UNL     1     -40.421  55.457 -50.140  1.00  0.00    -0.261 N 
HETATM    4  H   UNL     1     -39.910  56.063 -49.509  1.00  0.00     0.191 HD
HETATM    5  C   UNL     1     -41.719  55.530 -50.523  1.00  0.00     0.133 A 
HETATM    6  C   UNL     1     -41.945  54.488 -51.387  1.00  0.00     0.028 A 
HETATM    7  C   UNL     1     -43.277  54.302 -52.021  1.00  0.00     0.067 C 
HETATM    8  C   UNL     1     -44.365  55.122 -51.303  1.00  0.00     0.117 C 
HETATM    9  C   UNL     1     -43.905  56.430 -50.665  1.00  0.00     0.224 C 
HETATM   10  O   UNL     1     -44.684  57.364 -50.477  1.00  0.00    -0.273 OA
HETATM   11  N   UNL     1     -42.623  56.495 -50.175  1.00  0.00    -0.312 N 
HETATM   12  H   UNL     1     -42.365  57.326 -49.656  1.00  0.00     0.170 HD
ENDROOT
BRANCH   7  13
HETATM   13  C   UNL     1     -43.169  54.647 -53.500  1.00  0.00    -0.046 A 
HETATM   14  C   UNL     1     -42.854  55.979 -53.842  1.00  0.00     0.047 A 
HETATM   15  C   UNL     1     -42.710  56.305 -55.173  1.00  0.00     0.105 A 
HETATM   16  C   UNL     1     -42.866  55.374 -56.169  1.00  0.00     0.105 A 
HETATM   17  O   UNL     1     -42.397  57.537 -55.658  1.00  0.00    -0.323 OA
HETATM   18  O   UNL     1     -42.681  55.901 -57.408  1.00  0.00    -0.323 OA
HETATM   19  C   UNL     1     -43.167  54.061 -55.886  1.00  0.00     0.040 A 
HETATM   20  C   UNL     1     -42.372  57.270 -57.076  1.00  0.00     0.352 A 
HETATM   21  C   UNL     1     -43.305  53.695 -54.541  1.00  0.00     0.011 A 
ENDBRANCH   7  13
BRANCH   1  22
HETATM   22  C   UNL     1     -40.294  52.699 -52.346  1.00  0.00    -0.005 A 
HETATM   23  C   UNL     1     -40.277  52.792 -53.742  1.00  0.00     0.014 A 
HETATM   24  C   UNL     1     -39.875  51.703 -54.522  1.00  0.00     0.001 A 
HETATM   25  C   UNL     1     -39.498  50.506 -53.914  1.00  0.00     0.000 A 
HETATM   26  C   UNL     1     -39.528  50.394 -52.527  1.00  0.00     0.001 A 
HETATM   27  C   UNL     1     -39.924  51.483 -51.749  1.00  0.00     0.014 A 
ENDBRANCH   1  22
TORSDOF 2
ENDMDL
MODEL 7
REMARK VINA RESULT:      -7.7      1.950      2.717
REMARK  2 active torsions:
REMARK  status: ('A' for Active; 'I' for Inactive)
REMARK    1  A    between atoms: C_4  and  C_5 
REMARK    2  A    between atoms: C_11  and  C_12 
ROOT
HETATM    1  C   UNL     1     -41.320  57.212 -53.605  1.00  0.00     0.098 A 
HETATM    2  N   UNL     1     -40.394  58.011 -53.036  1.00  0.00    -0.172 NA
HETATM    3  N   UNL     1     -40.903  59.249 -53.116  1.00  0.00    -0.261 N 
HETATM    4  H   UNL     1     -40.357  60.020 -52.748  1.00  0.00     0.191 HD
HETATM    5  C   UNL     1     -42.116  59.278 -53.721  1.00  0.00     0.133 A 
HETATM    6  C   UNL     1     -42.440  57.984 -54.039  1.00  0.00     0.028 A 
HETATM    7  C   UNL     1     -43.708  57.671 -54.751  1.00  0.00     0.067 C 
HETATM    8  C   UNL     1     -44.692  58.854 -54.699  1.00  0.00     0.117 C 
HETATM    9  C   UNL     1     -44.065  60.246 -54.654  1.00  0.00     0.224 C 
HETATM   10  O   UNL     1     -44.670  61.238 -55.059  1.00  0.00    -0.273 OA
HETATM   11  N   UNL     1     -42.853  60.389 -54.023  1.00  0.00    -0.312 N 
HETATM   12  H   UNL     1     -42.501  61.331 -53.902  1.00  0.00     0.170 HD
ENDROOT
BRANCH   7  13
HETATM   13  C   UNL     1     -43.380  57.250 -56.176  1.00  0.00    -0.046 A 
HETATM   14  C   UNL     1     -42.954  58.251 -57.075  1.00  0.00     0.047 A 
HETATM   15  C   UNL     1     -42.612  57.887 -58.360  1.00  0.00     0.105 A 
HETATM   16  C   UNL     1     -42.675  56.583 -58.785  1.00  0.00     0.105 A 
HETATM   17  O   UNL     1     -42.175  58.731 -59.333  1.00  0.00    -0.323 OA
HETATM   18  O   UNL     1     -42.294  56.440 -60.082  1.00  0.00    -0.323 OA
HETATM   19  C   UNL     1     -43.076  55.570 -57.944  1.00  0.00     0.040 A 
HETATM   20  C   UNL     1     -41.967  57.804 -60.419  1.00  0.00     0.352 A 
HETATM   21  C   UNL     1     -43.417  55.907 -56.627  1.00  0.00     0.011 A 
ENDBRANCH   7  13
BRANCH   1  22
HETATM   22  C   UNL     1     -41.063  55.778 -53.757  1.00  0.00    -0.005 A 
HETATM   23  C   UNL     1     -40.359  55.264 -54.852  1.00  0.00     0.014 A 
HETATM   24  C   UNL     1     -40.107  53.892 -54.954  1.00  0.00     0.001 A 
HETATM   25  C   UNL     1     -40.566  53.019 -53.969  1.00  0.00     0.000 A 
HETATM   26  C   UNL     1     -41.283  53.514 -52.883  1.00  0.00     0.001 A 
HETATM   27  C   UNL     1     -41.531  54.884 -52.779  1.00  0.00     0.014 A 
ENDBRANCH   1  22
TORSDOF 2
ENDMDL
MODEL 8
REMARK VINA RESULT:      -7.6      2.550      4.913
REMARK  2 active torsions:
REMARK  status: ('A' for Active; 'I' for Inactive)
REMARK    1  A    between atoms: C_4  and  C_5 
REMARK    2  A    between atoms: C_11  and  C_12 
ROOT
HETATM    1  C   UNL     1     -42.533  54.902 -52.839  1.00  0.00     0.098 A 
HETATM    2  N   UNL     1     -43.626  54.134 -53.034  1.00  0.00    -0.172 NA
HETATM    3  N   UNL     1     -44.233  54.658 -54.109  1.00  0.00    -0.261 N 
HETATM    4  H   UNL     1     -45.094  54.232 -54.431  1.00  0.00     0.191 HD
HETATM    5  C   UNL     1     -43.579  55.736 -54.607  1.00  0.00     0.133 A 
HETATM    6  C   UNL     1     -42.462  55.925 -53.833  1.00  0.00     0.028 A 
HETATM    7  C   UNL     1     -41.538  57.059 -54.098  1.00  0.00     0.067 C 
HETATM    8  C   UNL     1     -41.775  57.669 -55.491  1.00  0.00     0.117 C 
HETATM    9  C   UNL     1     -43.208  57.602 -56.016  1.00  0.00     0.224 C 
HETATM   10  O   UNL     1     -43.628  58.408 -56.846  1.00  0.00    -0.273 OA
HETATM   11  N   UNL     1     -43.985  56.532 -55.642  1.00  0.00    -0.312 N 
HETATM   12  H   UNL     1     -44.892  56.440 -56.083  1.00  0.00     0.170 HD
ENDROOT
BRANCH   7  13
HETATM   13  C   UNL     1     -41.685  58.083 -52.981  1.00  0.00    -0.046 A 
HETATM   14  C   UNL     1     -42.976  58.591 -52.722  1.00  0.00     0.047 A 
HETATM   15  C   UNL     1     -43.141  59.488 -51.689  1.00  0.00     0.105 A 
HETATM   16  C   UNL     1     -42.087  59.899 -50.911  1.00  0.00     0.105 A 
HETATM   17  O   UNL     1     -44.318  60.055 -51.312  1.00  0.00    -0.323 OA
HETATM   18  O   UNL     1     -42.464  60.783 -49.950  1.00  0.00    -0.323 OA
HETATM   19  C   UNL     1     -40.811  59.427 -51.119  1.00  0.00     0.040 A 
HETATM   20  C   UNL     1     -43.882  60.867 -50.202  1.00  0.00     0.352 A 
HETATM   21  C   UNL     1     -40.614  58.502 -52.153  1.00  0.00     0.011 A 
ENDBRANCH   7  13
BRANCH   1  22
HETATM   22  C   UNL     1     -41.658  54.659 -51.690  1.00  0.00    -0.005 A 
HETATM   23  C   UNL     1     -40.620  53.722 -51.735  1.00  0.00     0.014 A 
HETATM   24  C   UNL     1     -39.785  53.533 -50.629  1.00  0.00     0.001 A 
HETATM   25  C   UNL     1     -39.987  54.269 -49.463  1.00  0.00     0.000 A 
HETATM   26  C   UNL     1     -41.027  55.192 -49.397  1.00  0.00     0.001 A 
HETATM   27  C   UNL     1     -41.857  55.384 -50.503  1.00  0.00     0.014 A 
ENDBRANCH   1  22
TORSDOF 2
ENDMDL
MODEL 9
REMARK VINA RESULT:      -7.5     16.273     18.352
REMARK  2 active torsions:
REMARK  status: ('A' for Active; 'I' for Inactive)
REMARK    1  A    between atoms: C_4  and  C_5 
REMARK    2  A    between atoms: C_11  and  C_12 
ROOT
HETATM    1  C   UNL     1     -37.950  41.308 -56.298  1.00  0.00     0.098 A 
HETATM    2  N   UNL     1     -39.139  41.124 -55.688  1.00  0.00    -0.172 NA
HETATM    3  N   UNL     1     -38.905  41.364 -54.389  1.00  0.00    -0.261 N 
HETATM    4  H   UNL     1     -39.675  41.273 -53.736  1.00  0.00     0.191 HD
HETATM    5  C   UNL     1     -37.613  41.686 -54.140  1.00  0.00     0.133 A 
HETATM    6  C   UNL     1     -36.956  41.683 -55.344  1.00  0.00     0.028 A 
HETATM    7  C   UNL     1     -35.498  41.968 -55.416  1.00  0.00     0.067 C 
HETATM    8  C   UNL     1     -34.984  42.617 -54.117  1.00  0.00     0.117 C 
HETATM    9  C   UNL     1     -35.708  42.213 -52.835  1.00  0.00     0.224 C 
HETATM   10  O   UNL     1     -35.155  42.272 -51.737  1.00  0.00    -0.273 OA
HETATM   11  N   UNL     1     -37.046  41.907 -52.916  1.00  0.00    -0.312 N 
HETATM   12  H   UNL     1     -37.539  41.749 -52.045  1.00  0.00     0.170 HD
ENDROOT
BRANCH   7  13
HETATM   13  C   UNL     1     -34.762  40.678 -55.752  1.00  0.00    -0.046 A 
HETATM   14  C   UNL     1     -33.440  40.783 -56.234  1.00  0.00     0.047 A 
HETATM   15  C   UNL     1     -32.740  39.628 -56.506  1.00  0.00     0.105 A 
HETATM   16  C   UNL     1     -33.293  38.385 -56.324  1.00  0.00     0.105 A 
HETATM   17  O   UNL     1     -31.460  39.566 -56.963  1.00  0.00    -0.323 OA
HETATM   18  O   UNL     1     -32.436  37.381 -56.649  1.00  0.00    -0.323 OA
HETATM   19  C   UNL     1     -34.576  38.230 -55.849  1.00  0.00     0.040 A 
HETATM   20  C   UNL     1     -31.272  38.137 -57.042  1.00  0.00     0.352 A 
HETATM   21  C   UNL     1     -35.308  39.386 -55.550  1.00  0.00     0.011 A 
ENDBRANCH   7  13
BRANCH   1  22
HETATM   22  C   UNL     1     -37.814  41.059 -57.736  1.00  0.00    -0.005 A 
HETATM   23  C   UNL     1     -37.379  42.051 -58.622  1.00  0.00     0.014 A 
HETATM   24  C   UNL     1     -37.234  41.774 -59.984  1.00  0.00     0.001 A 
HETATM   25  C   UNL     1     -37.534  40.505 -60.478  1.00  0.00     0.000 A 
HETATM   26  C   UNL     1     -37.985  39.513 -59.612  1.00  0.00     0.001 A 
HETATM   27  C   UNL     1     -38.125  39.789 -58.250  1.00  0.00     0.014 A 
ENDBRANCH   1  22
TORSDOF 2
ENDMDL
MODEL 10
REMARK VINA RESULT:      -7.4      2.926      5.356
REMARK  2 active torsions:
REMARK  status: ('A' for Active; 'I' for Inactive)
REMARK    1  A    between atoms: C_4  and  C_5 
REMARK    2  A    between atoms: C_11  and  C_12 
ROOT
HETATM    1  C   UNL     1     -41.417  54.735 -54.986  1.00  0.00     0.098 A 
HETATM    2  N   UNL     1     -40.329  54.092 -55.460  1.00  0.00    -0.172 NA
HETATM    3  N   UNL     1     -39.863  53.383 -54.422  1.00  0.00    -0.261 N 
HETATM    4  H   UNL     1     -39.029  52.822 -54.556  1.00  0.00     0.191 HD
HETATM    5  C   UNL     1     -40.603  53.550 -53.298  1.00  0.00     0.133 A 
HETATM    6  C   UNL     1     -41.632  54.400 -53.615  1.00  0.00     0.028 A 
HETATM    7  C   UNL     1     -42.617  54.818 -52.583  1.00  0.00     0.067 C 
HETATM    8  C   UNL     1     -42.557  53.908 -51.342  1.00  0.00     0.117 C 
HETATM    9  C   UNL     1     -41.191  53.308 -51.018  1.00  0.00     0.224 C 
HETATM   10  O   UNL     1     -40.894  52.967 -49.873  1.00  0.00    -0.273 OA
HETATM   11  N   UNL     1     -40.343  53.029 -52.061  1.00  0.00    -0.312 N 
HETATM   12  H   UNL     1     -39.488  52.530 -51.845  1.00  0.00     0.170 HD
ENDROOT
BRANCH   7  13
HETATM   13  C   UNL     1     -42.380  56.283 -52.242  1.00  0.00    -0.046 A 
HETATM   14  C   UNL     1     -43.510  57.107 -52.060  1.00  0.00     0.047 A 
HETATM   15  C   UNL     1     -43.320  58.426 -51.710  1.00  0.00     0.105 A 
HETATM   16  C   UNL     1     -42.067  58.957 -51.538  1.00  0.00     0.105 A 
HETATM   17  O   UNL     1     -44.306  59.337 -51.490  1.00  0.00    -0.323 OA
HETATM   18  O   UNL     1     -42.101  60.272 -51.194  1.00  0.00    -0.323 OA
HETATM   19  C   UNL     1     -40.933  58.193 -51.696  1.00  0.00     0.040 A 
HETATM   20  C   UNL     1     -43.524  60.503 -51.153  1.00  0.00     0.352 A 
HETATM   21  C   UNL     1     -41.094  56.843 -52.038  1.00  0.00     0.011 A 
ENDBRANCH   7  13
BRANCH   1  22
HETATM   22  C   UNL     1     -42.150  55.671 -55.843  1.00  0.00    -0.005 A 
HETATM   23  C   UNL     1     -42.165  57.048 -55.591  1.00  0.00     0.014 A 
HETATM   24  C   UNL     1     -42.853  57.918 -56.443  1.00  0.00     0.001 A 
HETATM   25  C   UNL     1     -43.542  57.420 -57.547  1.00  0.00     0.000 A 
HETATM   26  C   UNL     1     -43.551  56.051 -57.799  1.00  0.00     0.001 A 
HETATM   27  C   UNL     1     -42.860  55.183 -56.952  1.00  0.00     0.014 A 
ENDBRANCH   1  22
TORSDOF 2
ENDMDL
