MODEL 1
REMARK VINA RESULT:      -8.6      0.000      0.000
REMARK  5 active torsions:
REMARK  status: ('A' for Active; 'I' for Inactive)
REMARK    1  A    between atoms: C_4  and  O_5 
REMARK    2  A    between atoms: O_5  and  C_6 
REMARK    3  A    between atoms: C_6  and  C_7 
REMARK       I    between atoms: C_7  and  N_8 
REMARK    4  A    between atoms: N_8  and  C_9 
REMARK    5  A    between atoms: C_15  and  C_16 
ROOT
HETATM    1  C   UNL     1     -44.215  56.739 -53.563  1.00  0.00     0.137 A 
HETATM    2  N   UNL     1     -45.170  56.729 -54.547  1.00  0.00    -0.262 N 
HETATM    3  H   UNL     1     -45.925  56.062 -54.677  1.00  0.00     0.191 HD
HETATM    4  N   UNL     1     -45.097  57.771 -55.390  1.00  0.00    -0.177 NA
HETATM    5  C   UNL     1     -44.087  58.507 -54.911  1.00  0.00     0.065 A 
HETATM    6  C   UNL     1     -43.684  59.755 -55.605  1.00  0.00     0.073 C 
HETATM    7  C   UNL     1     -43.515  57.920 -53.747  1.00  0.00     0.046 A 
ENDROOT
BRANCH   1   8
HETATM    8  N   UNL     1     -44.073  55.794 -52.564  1.00  0.00    -0.309 N 
HETATM    9  C   UNL     1     -43.303  54.662 -52.551  1.00  0.00     0.247 C 
HETATM   10  O   UNL     1     -43.397  53.896 -51.587  1.00  0.00    -0.271 OA
HETATM   11  H   UNL     1     -44.565  55.962 -51.692  1.00  0.00     0.170 HD
BRANCH   9  12
HETATM   12  C   UNL     1     -42.276  54.407 -53.649  1.00  0.00     0.278 C 
BRANCH  12  13
HETATM   13  O   UNL     1     -40.948  54.379 -53.132  1.00  0.00    -0.342 OA
BRANCH  13  14
HETATM   14  C   UNL     1     -40.478  53.108 -52.911  1.00  0.00     0.075 A 
HETATM   15  C   UNL     1     -40.372  52.167 -53.942  1.00  0.00     0.044 A 
HETATM   16  C   UNL     1     -39.904  50.873 -53.680  1.00  0.00    -0.059 A 
HETATM   17  C   UNL     1     -39.794  49.864 -54.784  1.00  0.00     0.048 C 
HETATM   18  C   UNL     1     -39.487  50.554 -52.384  1.00  0.00     0.007 A 
HETATM   19  C   UNL     1     -39.550  51.506 -51.364  1.00  0.00     0.010 A 
HETATM   20  C   UNL     1     -40.047  52.792 -51.615  1.00  0.00    -0.029 A 
HETATM   21  C   UNL     1     -40.087  53.809 -50.511  1.00  0.00     0.051 C 
ENDBRANCH  13  14
ENDBRANCH  12  13
ENDBRANCH   9  12
ENDBRANCH   1   8
BRANCH   7  22
HETATM   22  C   UNL     1     -42.392  58.358 -52.935  1.00  0.00    -0.020 A 
HETATM   23  C   UNL     1     -41.083  58.225 -53.411  1.00  0.00     0.014 A 
HETATM   24  C   UNL     1     -40.002  58.638 -52.626  1.00  0.00     0.020 A 
HETATM   25  C   UNL     1     -40.229  59.186 -51.365  1.00  0.00     0.011 A 
HETATM   26 BR   UNL     1     -38.768  59.748 -50.306  1.00  0.00    -0.051 Br
HETATM   27  C   UNL     1     -41.527  59.321 -50.877  1.00  0.00     0.020 A 
HETATM   28  C   UNL     1     -42.606  58.902 -51.660  1.00  0.00     0.014 A 
ENDBRANCH   7  22
TORSDOF 5
ENDMDL
MODEL 2
REMARK VINA RESULT:      -8.2      2.675      3.895
REMARK  5 active torsions:
REMARK  status: ('A' for Active; 'I' for Inactive)
REMARK    1  A    between atoms: C_4  and  O_5 
REMARK    2  A    between atoms: O_5  and  C_6 
REMARK    3  A    between atoms: C_6  and  C_7 
REMARK       I    between atoms: C_7  and  N_8 
REMARK    4  A    between atoms: N_8  and  C_9 
REMARK    5  A    between atoms: C_15  and  C_16 
ROOT
HETATM    1  C   UNL     1     -43.262  57.191 -52.010  1.00  0.00     0.137 A 
HETATM    2  N   UNL     1     -42.905  57.924 -50.907  1.00  0.00    -0.262 N 
HETATM    3  H   UNL     1     -42.888  57.623 -49.937  1.00  0.00     0.191 HD
HETATM    4  N   UNL     1     -42.485  59.167 -51.190  1.00  0.00    -0.177 NA
HETATM    5  C   UNL     1     -42.529  59.228 -52.526  1.00  0.00     0.065 A 
HETATM    6  C   UNL     1     -42.148  60.482 -53.223  1.00  0.00     0.073 C 
HETATM    7  C   UNL     1     -42.982  58.005 -53.095  1.00  0.00     0.046 A 
ENDROOT
BRANCH   1   8
HETATM    8  N   UNL     1     -43.717  55.886 -52.001  1.00  0.00    -0.309 N 
HETATM    9  C   UNL     1     -43.010  54.726 -51.829  1.00  0.00     0.247 C 
HETATM   10  O   UNL     1     -43.602  53.650 -51.954  1.00  0.00    -0.271 OA
HETATM   11  H   UNL     1     -44.719  55.743 -52.090  1.00  0.00     0.170 HD
BRANCH   9  12
HETATM   12  C   UNL     1     -41.551  54.765 -51.389  1.00  0.00     0.278 C 
BRANCH  12  13
HETATM   13  O   UNL     1     -40.664  54.582 -52.490  1.00  0.00    -0.342 OA
BRANCH  13  14
HETATM   14  C   UNL     1     -40.324  53.269 -52.703  1.00  0.00     0.075 A 
HETATM   15  C   UNL     1     -40.169  52.364 -51.647  1.00  0.00     0.044 A 
HETATM   16  C   UNL     1     -39.804  51.034 -51.896  1.00  0.00    -0.059 A 
HETATM   17  C   UNL     1     -39.635  50.065 -50.765  1.00  0.00     0.048 C 
HETATM   18  C   UNL     1     -39.657  50.610 -53.220  1.00  0.00     0.007 A 
HETATM   19  C   UNL     1     -39.854  51.501 -54.277  1.00  0.00     0.010 A 
HETATM   20  C   UNL     1     -40.189  52.840 -54.031  1.00  0.00    -0.029 A 
HETATM   21  C   UNL     1     -40.418  53.780 -55.180  1.00  0.00     0.051 C 
ENDBRANCH  13  14
ENDBRANCH  12  13
ENDBRANCH   9  12
ENDBRANCH   1   8
BRANCH   7  22
HETATM   22  C   UNL     1     -43.210  57.648 -54.485  1.00  0.00    -0.020 A 
HETATM   23  C   UNL     1     -42.266  56.883 -55.180  1.00  0.00     0.014 A 
HETATM   24  C   UNL     1     -42.480  56.547 -56.520  1.00  0.00     0.020 A 
HETATM   25  C   UNL     1     -43.639  56.974 -57.167  1.00  0.00     0.011 A 
HETATM   26 BR   UNL     1     -43.930  56.517 -58.976  1.00  0.00    -0.051 Br
HETATM   27  C   UNL     1     -44.585  57.738 -56.487  1.00  0.00     0.020 A 
HETATM   28  C   UNL     1     -44.367  58.078 -55.149  1.00  0.00     0.014 A 
ENDBRANCH   7  22
TORSDOF 5
ENDMDL
MODEL 3
REMARK VINA RESULT:      -8.2      3.636      4.744
REMARK  5 active torsions:
REMARK  status: ('A' for Active; 'I' for Inactive)
REMARK    1  A    between atoms: C_4  and  O_5 
REMARK    2  A    between atoms: O_5  and  C_6 
REMARK    3  A    between atoms: C_6  and  C_7 
REMARK       I    between atoms: C_7  and  N_8 
REMARK    4  A    between atoms: N_8  and  C_9 
REMARK    5  A    between atoms: C_15  and  C_16 
ROOT
HETATM    1  C   UNL     1     -42.922  57.705 -54.940  1.00  0.00     0.137 A 
HETATM    2  N   UNL     1     -42.239  58.651 -54.220  1.00  0.00    -0.262 N 
HETATM    3  H   UNL     1     -42.038  58.652 -53.224  1.00  0.00     0.191 HD
HETATM    4  N   UNL     1     -41.748  59.655 -54.963  1.00  0.00    -0.177 NA
HETATM    5  C   UNL     1     -42.087  59.327 -56.216  1.00  0.00     0.065 A 
HETATM    6  C   UNL     1     -41.727  60.227 -57.340  1.00  0.00     0.073 C 
HETATM    7  C   UNL     1     -42.801  58.096 -56.263  1.00  0.00     0.046 A 
ENDROOT
BRANCH   1   8
HETATM    8  N   UNL     1     -43.516  56.568 -54.424  1.00  0.00    -0.309 N 
HETATM    9  C   UNL     1     -43.002  55.304 -54.307  1.00  0.00     0.247 C 
HETATM   10  O   UNL     1     -43.743  54.402 -53.902  1.00  0.00    -0.271 OA
HETATM   11  H   UNL     1     -44.447  56.668 -54.032  1.00  0.00     0.170 HD
BRANCH   9  12
HETATM   12  C   UNL     1     -41.524  55.038 -54.568  1.00  0.00     0.278 C 
BRANCH  12  13
HETATM   13  O   UNL     1     -40.778  54.976 -53.355  1.00  0.00    -0.342 OA
BRANCH  13  14
HETATM   14  C   UNL     1     -40.453  53.696 -52.981  1.00  0.00     0.075 A 
HETATM   15  C   UNL     1     -40.249  52.679 -53.922  1.00  0.00     0.044 A 
HETATM   16  C   UNL     1     -39.934  51.378 -53.507  1.00  0.00    -0.059 A 
HETATM   17  C   UNL     1     -39.719  50.288 -54.514  1.00  0.00     0.048 C 
HETATM   18  C   UNL     1     -39.768  51.124 -52.143  1.00  0.00     0.007 A 
HETATM   19  C   UNL     1     -39.928  52.149 -51.206  1.00  0.00     0.010 A 
HETATM   20  C   UNL     1     -40.273  53.444 -51.614  1.00  0.00    -0.029 A 
HETATM   21  C   UNL     1     -40.420  54.538 -50.596  1.00  0.00     0.051 C 
ENDBRANCH  13  14
ENDBRANCH  12  13
ENDBRANCH   9  12
ENDBRANCH   1   8
BRANCH   7  22
HETATM   22  C   UNL     1     -43.378  57.394 -57.396  1.00  0.00    -0.020 A 
HETATM   23  C   UNL     1     -42.743  56.265 -57.925  1.00  0.00     0.014 A 
HETATM   24  C   UNL     1     -43.294  55.594 -59.021  1.00  0.00     0.020 A 
HETATM   25  C   UNL     1     -44.483  56.050 -59.588  1.00  0.00     0.011 A 
HETATM   26 BR   UNL     1     -45.229  55.142 -61.067  1.00  0.00    -0.051 Br
HETATM   27  C   UNL     1     -45.124  57.175 -59.074  1.00  0.00     0.020 A 
HETATM   28  C   UNL     1     -44.569  57.848 -57.982  1.00  0.00     0.014 A 
ENDBRANCH   7  22
TORSDOF 5
ENDMDL
MODEL 4
REMARK VINA RESULT:      -8.1      2.452      3.229
REMARK  5 active torsions:
REMARK  status: ('A' for Active; 'I' for Inactive)
REMARK    1  A    between atoms: C_4  and  O_5 
REMARK    2  A    between atoms: O_5  and  C_6 
REMARK    3  A    between atoms: C_6  and  C_7 
REMARK       I    between atoms: C_7  and  N_8 
REMARK    4  A    between atoms: N_8  and  C_9 
REMARK    5  A    between atoms: C_15  and  C_16 
ROOT
HETATM    1  C   UNL     1     -42.870  56.785 -57.166  1.00  0.00     0.137 A 
HETATM    2  N   UNL     1     -42.262  56.960 -58.383  1.00  0.00    -0.262 N 
HETATM    3  H   UNL     1     -42.167  56.285 -59.137  1.00  0.00     0.191 HD
HETATM    4  N   UNL     1     -41.794  58.202 -58.587  1.00  0.00    -0.177 NA
HETATM    5  C   UNL     1     -42.149  58.868 -57.481  1.00  0.00     0.065 A 
HETATM    6  C   UNL     1     -41.778  60.297 -57.326  1.00  0.00     0.073 C 
HETATM    7  C   UNL     1     -42.853  58.033 -56.568  1.00  0.00     0.046 A 
ENDROOT
BRANCH   1   8
HETATM    8  N   UNL     1     -43.444  55.613 -56.710  1.00  0.00    -0.309 N 
HETATM    9  C   UNL     1     -42.870  54.588 -56.008  1.00  0.00     0.247 C 
HETATM   10  O   UNL     1     -43.545  53.578 -55.782  1.00  0.00    -0.271 OA
HETATM   11  H   UNL     1     -44.440  55.492 -56.869  1.00  0.00     0.170 HD
BRANCH   9  12
HETATM   12  C   UNL     1     -41.468  54.732 -55.427  1.00  0.00     0.278 C 
BRANCH  12  13
HETATM   13  O   UNL     1     -41.490  54.776 -54.003  1.00  0.00    -0.342 OA
BRANCH  13  14
HETATM   14  C   UNL     1     -40.888  53.690 -53.416  1.00  0.00     0.075 A 
HETATM   15  C   UNL     1     -40.497  52.570 -54.158  1.00  0.00     0.044 A 
HETATM   16  C   UNL     1     -39.901  51.471 -53.526  1.00  0.00    -0.059 A 
HETATM   17  C   UNL     1     -39.484  50.268 -54.320  1.00  0.00     0.048 C 
HETATM   18  C   UNL     1     -39.647  51.535 -52.153  1.00  0.00     0.007 A 
HETATM   19  C   UNL     1     -39.996  52.671 -51.420  1.00  0.00     0.010 A 
HETATM   20  C   UNL     1     -40.622  53.760 -52.041  1.00  0.00    -0.029 A 
HETATM   21  C   UNL     1     -40.971  54.982 -51.242  1.00  0.00     0.051 C 
ENDBRANCH  13  14
ENDBRANCH  12  13
ENDBRANCH   9  12
ENDBRANCH   1   8
BRANCH   7  22
HETATM   22  C   UNL     1     -43.385  58.332 -55.249  1.00  0.00    -0.020 A 
HETATM   23  C   UNL     1     -44.656  58.902 -55.113  1.00  0.00     0.014 A 
HETATM   24  C   UNL     1     -45.165  59.198 -53.845  1.00  0.00     0.020 A 
HETATM   25  C   UNL     1     -44.403  58.923 -52.710  1.00  0.00     0.011 A 
HETATM   26 BR   UNL     1     -45.092  59.319 -50.996  1.00  0.00    -0.051 Br
HETATM   27  C   UNL     1     -43.134  58.359 -52.831  1.00  0.00     0.020 A 
HETATM   28  C   UNL     1     -42.626  58.069 -54.100  1.00  0.00     0.014 A 
ENDBRANCH   7  22
TORSDOF 5
ENDMDL
MODEL 5
REMARK VINA RESULT:      -8.0      2.871      6.931
REMARK  5 active torsions:
REMARK  status: ('A' for Active; 'I' for Inactive)
REMARK    1  A    between atoms: C_4  and  O_5 
REMARK    2  A    between atoms: O_5  and  C_6 
REMARK    3  A    between atoms: C_6  and  C_7 
REMARK       I    between atoms: C_7  and  N_8 
REMARK    4  A    between atoms: N_8  and  C_9 
REMARK    5  A    between atoms: C_15  and  C_16 
ROOT
HETATM    1  C   UNL     1     -42.256  55.376 -51.452  1.00  0.00     0.137 A 
HETATM    2  N   UNL     1     -42.298  56.270 -50.412  1.00  0.00    -0.262 N 
HETATM    3  H   UNL     1     -42.985  56.999 -50.243  1.00  0.00     0.191 HD
HETATM    4  N   UNL     1     -41.325  56.097 -49.504  1.00  0.00    -0.177 NA
HETATM    5  C   UNL     1     -40.655  55.026 -49.945  1.00  0.00     0.065 A 
HETATM    6  C   UNL     1     -39.472  54.532 -49.198  1.00  0.00     0.073 C 
HETATM    7  C   UNL     1     -41.215  54.515 -51.150  1.00  0.00     0.046 A 
ENDROOT
BRANCH   1   8
HETATM    8  N   UNL     1     -43.142  55.327 -52.512  1.00  0.00    -0.309 N 
HETATM    9  C   UNL     1     -43.134  56.044 -53.678  1.00  0.00     0.247 C 
HETATM   10  O   UNL     1     -44.083  55.914 -54.457  1.00  0.00    -0.271 OA
HETATM   11  H   UNL     1     -43.889  54.640 -52.461  1.00  0.00     0.170 HD
BRANCH   9  12
HETATM   12  C   UNL     1     -41.930  56.900 -54.054  1.00  0.00     0.278 C 
BRANCH  12  13
HETATM   13  O   UNL     1     -42.223  58.292 -53.957  1.00  0.00    -0.342 OA
BRANCH  13  14
HETATM   14  C   UNL     1     -41.873  58.838 -52.746  1.00  0.00     0.075 A 
HETATM   15  C   UNL     1     -40.548  58.852 -52.296  1.00  0.00     0.044 A 
HETATM   16  C   UNL     1     -40.226  59.402 -51.049  1.00  0.00    -0.059 A 
HETATM   17  C   UNL     1     -38.806  59.414 -50.565  1.00  0.00     0.048 C 
HETATM   18  C   UNL     1     -41.239  59.990 -50.286  1.00  0.00     0.007 A 
HETATM   19  C   UNL     1     -42.554  60.016 -50.755  1.00  0.00     0.010 A 
HETATM   20  C   UNL     1     -42.887  59.440 -51.988  1.00  0.00    -0.029 A 
HETATM   21  C   UNL     1     -44.303  59.495 -52.486  1.00  0.00     0.051 C 
ENDBRANCH  13  14
ENDBRANCH  12  13
ENDBRANCH   9  12
ENDBRANCH   1   8
BRANCH   7  22
HETATM   22  C   UNL     1     -40.789  53.400 -51.979  1.00  0.00    -0.020 A 
HETATM   23  C   UNL     1     -40.247  52.251 -51.392  1.00  0.00     0.014 A 
HETATM   24  C   UNL     1     -39.829  51.182 -52.190  1.00  0.00     0.020 A 
HETATM   25  C   UNL     1     -39.954  51.259 -53.576  1.00  0.00     0.011 A 
HETATM   26 BR   UNL     1     -39.393  49.813 -54.654  1.00  0.00    -0.051 Br
HETATM   27  C   UNL     1     -40.489  52.399 -54.174  1.00  0.00     0.020 A 
HETATM   28  C   UNL     1     -40.901  53.469 -53.375  1.00  0.00     0.014 A 
ENDBRANCH   7  22
TORSDOF 5
ENDMDL
MODEL 6
REMARK VINA RESULT:      -8.0      2.894      3.918
REMARK  5 active torsions:
REMARK  status: ('A' for Active; 'I' for Inactive)
REMARK    1  A    between atoms: C_4  and  O_5 
REMARK    2  A    between atoms: O_5  and  C_6 
REMARK    3  A    between atoms: C_6  and  C_7 
REMARK       I    between atoms: C_7  and  N_8 
REMARK    4  A    between atoms: N_8  and  C_9 
REMARK    5  A    between atoms: C_15  and  C_16 
ROOT
HETATM    1  C   UNL     1     -44.193  56.388 -54.020  1.00  0.00     0.137 A 
HETATM    2  N   UNL     1     -44.231  56.527 -52.656  1.00  0.00    -0.262 N 
HETATM    3  H   UNL     1     -44.311  55.795 -51.956  1.00  0.00     0.191 HD
HETATM    4  N   UNL     1     -44.091  57.793 -52.231  1.00  0.00    -0.177 NA
HETATM    5  C   UNL     1     -43.912  58.495 -53.357  1.00  0.00     0.065 A 
HETATM    6  C   UNL     1     -43.740  59.968 -53.292  1.00  0.00     0.073 C 
HETATM    7  C   UNL     1     -43.938  57.659 -54.508  1.00  0.00     0.046 A 
ENDROOT
BRANCH   1   8
HETATM    8  N   UNL     1     -44.302  55.198 -54.715  1.00  0.00    -0.309 N 
HETATM    9  C   UNL     1     -43.310  54.388 -55.199  1.00  0.00     0.247 C 
HETATM   10  O   UNL     1     -43.629  53.411 -55.883  1.00  0.00    -0.271 OA
HETATM   11  H   UNL     1     -45.237  54.831 -54.863  1.00  0.00     0.170 HD
BRANCH   9  12
HETATM   12  C   UNL     1     -41.855  54.626 -54.814  1.00  0.00     0.278 C 
BRANCH  12  13
HETATM   13  O   UNL     1     -41.652  54.486 -53.410  1.00  0.00    -0.342 OA
BRANCH  13  14
HETATM   14  C   UNL     1     -40.955  53.353 -53.071  1.00  0.00     0.075 A 
HETATM   15  C   UNL     1     -40.686  52.343 -54.002  1.00  0.00     0.044 A 
HETATM   16  C   UNL     1     -39.986  51.191 -53.621  1.00  0.00    -0.059 A 
HETATM   17  C   UNL     1     -39.700  50.108 -54.618  1.00  0.00     0.048 C 
HETATM   18  C   UNL     1     -39.508  51.092 -52.311  1.00  0.00     0.007 A 
HETATM   19  C   UNL     1     -39.738  52.119 -51.393  1.00  0.00     0.010 A 
HETATM   20  C   UNL     1     -40.464  53.260 -51.761  1.00  0.00    -0.029 A 
HETATM   21  C   UNL     1     -40.684  54.364 -50.767  1.00  0.00     0.051 C 
ENDBRANCH  13  14
ENDBRANCH  12  13
ENDBRANCH   9  12
ENDBRANCH   1   8
BRANCH   7  22
HETATM   22  C   UNL     1     -43.820  58.002 -55.915  1.00  0.00    -0.020 A 
HETATM   23  C   UNL     1     -42.574  57.952 -56.551  1.00  0.00     0.014 A 
HETATM   24  C   UNL     1     -42.459  58.291 -57.903  1.00  0.00     0.020 A 
HETATM   25  C   UNL     1     -43.589  58.679 -58.621  1.00  0.00     0.011 A 
HETATM   26 BR   UNL     1     -43.434  59.134 -60.448  1.00  0.00    -0.051 Br
HETATM   27  C   UNL     1     -44.835  58.736 -57.999  1.00  0.00     0.020 A 
HETATM   28  C   UNL     1     -44.948  58.403 -56.647  1.00  0.00     0.014 A 
ENDBRANCH   7  22
TORSDOF 5
ENDMDL
MODEL 7
REMARK VINA RESULT:      -7.9      1.668      2.076
REMARK  5 active torsions:
REMARK  status: ('A' for Active; 'I' for Inactive)
REMARK    1  A    between atoms: C_4  and  O_5 
REMARK    2  A    between atoms: O_5  and  C_6 
REMARK    3  A    between atoms: C_6  and  C_7 
REMARK       I    between atoms: C_7  and  N_8 
REMARK    4  A    between atoms: N_8  and  C_9 
REMARK    5  A    between atoms: C_15  and  C_16 
ROOT
HETATM    1  C   UNL     1     -43.447  55.821 -54.650  1.00  0.00     0.137 A 
HETATM    2  N   UNL     1     -43.457  55.222 -55.884  1.00  0.00    -0.262 N 
HETATM    3  H   UNL     1     -43.637  54.247 -56.103  1.00  0.00     0.191 HD
HETATM    4  N   UNL     1     -43.250  56.070 -56.904  1.00  0.00    -0.177 NA
HETATM    5  C   UNL     1     -43.146  57.268 -56.316  1.00  0.00     0.065 A 
HETATM    6  C   UNL     1     -42.887  58.477 -57.137  1.00  0.00     0.073 C 
HETATM    7  C   UNL     1     -43.291  57.173 -54.903  1.00  0.00     0.046 A 
ENDROOT
BRANCH   1   8
HETATM    8  N   UNL     1     -43.644  55.183 -53.440  1.00  0.00    -0.309 N 
HETATM    9  C   UNL     1     -42.762  54.439 -52.703  1.00  0.00     0.247 C 
HETATM   10  O   UNL     1     -43.175  53.870 -51.688  1.00  0.00    -0.271 OA
HETATM   11  H   UNL     1     -44.549  55.302 -52.994  1.00  0.00     0.170 HD
BRANCH   9  12
HETATM   12  C   UNL     1     -41.283  54.400 -53.069  1.00  0.00     0.278 C 
BRANCH  12  13
HETATM   13  O   UNL     1     -40.481  53.965 -51.974  1.00  0.00    -0.342 OA
BRANCH  13  14
HETATM   14  C   UNL     1     -40.213  52.618 -51.997  1.00  0.00     0.075 A 
HETATM   15  C   UNL     1     -39.940  51.938 -53.189  1.00  0.00     0.044 A 
HETATM   16  C   UNL     1     -39.687  50.560 -53.181  1.00  0.00    -0.059 A 
HETATM   17  C   UNL     1     -39.397  49.830 -54.459  1.00  0.00     0.048 C 
HETATM   18  C   UNL     1     -39.653  49.885 -51.957  1.00  0.00     0.007 A 
HETATM   19  C   UNL     1     -39.882  50.572 -50.763  1.00  0.00     0.010 A 
HETATM   20  C   UNL     1     -40.166  51.945 -50.768  1.00  0.00    -0.029 A 
HETATM   21  C   UNL     1     -40.389  52.671 -49.473  1.00  0.00     0.051 C 
ENDBRANCH  13  14
ENDBRANCH  12  13
ENDBRANCH   9  12
ENDBRANCH   1   8
BRANCH   7  22
HETATM   22  C   UNL     1     -43.215  58.208 -53.885  1.00  0.00    -0.020 A 
HETATM   23  C   UNL     1     -44.385  58.757 -53.349  1.00  0.00     0.014 A 
HETATM   24  C   UNL     1     -44.313  59.759 -52.376  1.00  0.00     0.020 A 
HETATM   25  C   UNL     1     -43.069  60.211 -51.936  1.00  0.00     0.011 A 
HETATM   26 BR   UNL     1     -42.971  61.562 -50.619  1.00  0.00    -0.051 Br
HETATM   27  C   UNL     1     -41.896  59.675 -52.464  1.00  0.00     0.020 A 
HETATM   28  C   UNL     1     -41.971  58.678 -53.440  1.00  0.00     0.014 A 
ENDBRANCH   7  22
TORSDOF 5
ENDMDL
MODEL 8
REMARK VINA RESULT:      -7.9      2.493      3.784
REMARK  5 active torsions:
REMARK  status: ('A' for Active; 'I' for Inactive)
REMARK    1  A    between atoms: C_4  and  O_5 
REMARK    2  A    between atoms: O_5  and  C_6 
REMARK    3  A    between atoms: C_6  and  C_7 
REMARK       I    between atoms: C_7  and  N_8 
REMARK    4  A    between atoms: N_8  and  C_9 
REMARK    5  A    between atoms: C_15  and  C_16 
ROOT
HETATM    1  C   UNL     1     -42.850  56.818 -57.185  1.00  0.00     0.137 A 
HETATM    2  N   UNL     1     -42.254  56.995 -58.408  1.00  0.00    -0.262 N 
HETATM    3  H   UNL     1     -42.172  56.323 -59.165  1.00  0.00     0.191 HD
HETATM    4  N   UNL     1     -41.779  58.234 -58.611  1.00  0.00    -0.177 NA
HETATM    5  C   UNL     1     -42.117  58.897 -57.498  1.00  0.00     0.065 A 
HETATM    6  C   UNL     1     -41.735  60.323 -57.340  1.00  0.00     0.073 C 
HETATM    7  C   UNL     1     -42.817  58.064 -56.581  1.00  0.00     0.046 A 
ENDROOT
BRANCH   1   8
HETATM    8  N   UNL     1     -43.428  55.649 -56.729  1.00  0.00    -0.309 N 
HETATM    9  C   UNL     1     -42.866  54.636 -55.999  1.00  0.00     0.247 C 
HETATM   10  O   UNL     1     -43.539  53.625 -55.777  1.00  0.00    -0.271 OA
HETATM   11  H   UNL     1     -44.419  55.518 -56.911  1.00  0.00     0.170 HD
BRANCH   9  12
HETATM   12  C   UNL     1     -41.479  54.797 -55.385  1.00  0.00     0.278 C 
BRANCH  12  13
HETATM   13  O   UNL     1     -40.908  53.539 -55.037  1.00  0.00    -0.342 OA
BRANCH  13  14
HETATM   14  C   UNL     1     -40.654  53.410 -53.694  1.00  0.00     0.075 A 
HETATM   15  C   UNL     1     -40.959  54.426 -52.782  1.00  0.00     0.044 A 
HETATM   16  C   UNL     1     -40.671  54.270 -51.420  1.00  0.00    -0.059 A 
HETATM   17  C   UNL     1     -40.995  55.360 -50.442  1.00  0.00     0.048 C 
HETATM   18  C   UNL     1     -40.130  53.060 -50.976  1.00  0.00     0.007 A 
HETATM   19  C   UNL     1     -39.866  52.028 -51.880  1.00  0.00     0.010 A 
HETATM   20  C   UNL     1     -40.123  52.191 -53.248  1.00  0.00    -0.029 A 
HETATM   21  C   UNL     1     -39.853  51.064 -54.202  1.00  0.00     0.051 C 
ENDBRANCH  13  14
ENDBRANCH  12  13
ENDBRANCH   9  12
ENDBRANCH   1   8
BRANCH   7  22
HETATM   22  C   UNL     1     -43.333  58.360 -55.255  1.00  0.00    -0.020 A 
HETATM   23  C   UNL     1     -44.619  58.892 -55.101  1.00  0.00     0.014 A 
HETATM   24  C   UNL     1     -45.112  59.185 -53.826  1.00  0.00     0.020 A 
HETATM   25  C   UNL     1     -44.321  58.946 -52.703  1.00  0.00     0.011 A 
HETATM   26 BR   UNL     1     -44.988  59.339 -50.980  1.00  0.00    -0.051 Br
HETATM   27  C   UNL     1     -43.037  58.421 -52.843  1.00  0.00     0.020 A 
HETATM   28  C   UNL     1     -42.544  58.133 -54.118  1.00  0.00     0.014 A 
ENDBRANCH   7  22
TORSDOF 5
ENDMDL
MODEL 9
REMARK VINA RESULT:      -7.7      2.989      4.435
REMARK  5 active torsions:
REMARK  status: ('A' for Active; 'I' for Inactive)
REMARK    1  A    between atoms: C_4  and  O_5 
REMARK    2  A    between atoms: O_5  and  C_6 
REMARK    3  A    between atoms: C_6  and  C_7 
REMARK       I    between atoms: C_7  and  N_8 
REMARK    4  A    between atoms: N_8  and  C_9 
REMARK    5  A    between atoms: C_15  and  C_16 
ROOT
HETATM    1  C   UNL     1     -44.230  56.419 -53.976  1.00  0.00     0.137 A 
HETATM    2  N   UNL     1     -44.306  56.560 -52.614  1.00  0.00    -0.262 N 
HETATM    3  H   UNL     1     -44.402  55.828 -51.915  1.00  0.00     0.191 HD
HETATM    4  N   UNL     1     -44.185  57.827 -52.188  1.00  0.00    -0.177 NA
HETATM    5  C   UNL     1     -43.978  58.528 -53.309  1.00  0.00     0.065 A 
HETATM    6  C   UNL     1     -43.815  60.002 -53.242  1.00  0.00     0.073 C 
HETATM    7  C   UNL     1     -43.968  57.690 -54.460  1.00  0.00     0.046 A 
ENDROOT
BRANCH   1   8
HETATM    8  N   UNL     1     -44.313  55.228 -54.672  1.00  0.00    -0.309 N 
HETATM    9  C   UNL     1     -43.306  54.461 -55.194  1.00  0.00     0.247 C 
HETATM   10  O   UNL     1     -43.608  53.473 -55.870  1.00  0.00    -0.271 OA
HETATM   11  H   UNL     1     -45.237  54.822 -54.789  1.00  0.00     0.170 HD
BRANCH   9  12
HETATM   12  C   UNL     1     -41.849  54.759 -54.859  1.00  0.00     0.278 C 
BRANCH  12  13
HETATM   13  O   UNL     1     -41.078  53.565 -54.754  1.00  0.00    -0.342 OA
BRANCH  13  14
HETATM   14  C   UNL     1     -40.664  53.295 -53.473  1.00  0.00     0.075 A 
HETATM   15  C   UNL     1     -40.831  54.215 -52.432  1.00  0.00     0.044 A 
HETATM   16  C   UNL     1     -40.383  53.916 -51.139  1.00  0.00    -0.059 A 
HETATM   17  C   UNL     1     -40.559  54.903 -50.023  1.00  0.00     0.048 C 
HETATM   18  C   UNL     1     -39.820  52.661 -50.891  1.00  0.00     0.007 A 
HETATM   19  C   UNL     1     -39.693  51.725 -51.920  1.00  0.00     0.010 A 
HETATM   20  C   UNL     1     -40.112  52.031 -53.222  1.00  0.00    -0.029 A 
HETATM   21  C   UNL     1     -39.988  51.005 -54.311  1.00  0.00     0.051 C 
ENDBRANCH  13  14
ENDBRANCH  12  13
ENDBRANCH   9  12
ENDBRANCH   1   8
BRANCH   7  22
HETATM   22  C   UNL     1     -43.812  58.032 -55.863  1.00  0.00    -0.020 A 
HETATM   23  C   UNL     1     -44.938  58.269 -56.661  1.00  0.00     0.014 A 
HETATM   24  C   UNL     1     -44.789  58.589 -58.014  1.00  0.00     0.020 A 
HETATM   25  C   UNL     1     -43.514  58.674 -58.570  1.00  0.00     0.011 A 
HETATM   26 BR   UNL     1     -43.312  59.110 -60.398  1.00  0.00    -0.051 Br
HETATM   27  C   UNL     1     -42.385  58.437 -57.789  1.00  0.00     0.020 A 
HETATM   28  C   UNL     1     -42.536  58.112 -56.438  1.00  0.00     0.014 A 
ENDBRANCH   7  22
TORSDOF 5
ENDMDL
MODEL 10
REMARK VINA RESULT:      -7.5      3.120      5.769
REMARK  5 active torsions:
REMARK  status: ('A' for Active; 'I' for Inactive)
REMARK    1  A    between atoms: C_4  and  O_5 
REMARK    2  A    between atoms: O_5  and  C_6 
REMARK    3  A    between atoms: C_6  and  C_7 
REMARK       I    between atoms: C_7  and  N_8 
REMARK    4  A    between atoms: N_8  and  C_9 
REMARK    5  A    between atoms: C_15  and  C_16 
ROOT
HETATM    1  C   UNL     1     -43.939  56.376 -53.841  1.00  0.00     0.137 A 
HETATM    2  N   UNL     1     -44.386  55.295 -54.557  1.00  0.00    -0.262 N 
HETATM    3  H   UNL     1     -45.285  55.181 -55.018  1.00  0.00     0.191 HD
HETATM    4  N   UNL     1     -43.482  54.311 -54.685  1.00  0.00    -0.177 NA
HETATM    5  C   UNL     1     -42.394  54.788 -54.068  1.00  0.00     0.065 A 
HETATM    6  C   UNL     1     -41.167  53.957 -53.983  1.00  0.00     0.073 C 
HETATM    7  C   UNL     1     -42.616  56.093 -53.545  1.00  0.00     0.046 A 
ENDROOT
BRANCH   1   8
HETATM    8  N   UNL     1     -44.661  57.523 -53.571  1.00  0.00    -0.309 N 
HETATM    9  C   UNL     1     -44.974  58.561 -54.407  1.00  0.00     0.247 C 
HETATM   10  O   UNL     1     -45.552  59.545 -53.933  1.00  0.00    -0.271 OA
HETATM   11  H   UNL     1     -45.061  57.611 -52.642  1.00  0.00     0.170 HD
BRANCH   9  12
HETATM   12  C   UNL     1     -44.712  58.459 -55.905  1.00  0.00     0.278 C 
BRANCH  12  13
HETATM   13  O   UNL     1     -43.319  58.376 -56.191  1.00  0.00    -0.342 OA
BRANCH  13  14
HETATM   14  C   UNL     1     -43.048  57.858 -57.434  1.00  0.00     0.075 A 
HETATM   15  C   UNL     1     -43.636  56.670 -57.884  1.00  0.00     0.044 A 
HETATM   16  C   UNL     1     -43.326  56.158 -59.151  1.00  0.00    -0.059 A 
HETATM   17  C   UNL     1     -43.953  54.884 -59.633  1.00  0.00     0.048 C 
HETATM   18  C   UNL     1     -42.468  56.884 -59.983  1.00  0.00     0.007 A 
HETATM   19  C   UNL     1     -41.916  58.092 -59.551  1.00  0.00     0.010 A 
HETATM   20  C   UNL     1     -42.198  58.592 -58.273  1.00  0.00    -0.029 A 
HETATM   21  C   UNL     1     -41.613  59.903 -57.833  1.00  0.00     0.051 C 
ENDBRANCH  13  14
ENDBRANCH  12  13
ENDBRANCH   9  12
ENDBRANCH   1   8
BRANCH   7  22
HETATM   22  C   UNL     1     -41.730  56.957 -52.783  1.00  0.00    -0.020 A 
HETATM   23  C   UNL     1     -41.630  56.818 -51.394  1.00  0.00     0.014 A 
HETATM   24  C   UNL     1     -40.784  57.655 -50.660  1.00  0.00     0.020 A 
HETATM   25  C   UNL     1     -40.035  58.632 -51.315  1.00  0.00     0.011 A 
HETATM   26 BR   UNL     1     -38.889  59.760 -50.324  1.00  0.00    -0.051 Br
HETATM   27  C   UNL     1     -40.127  58.783 -52.697  1.00  0.00     0.020 A 
HETATM   28  C   UNL     1     -40.977  57.949 -53.428  1.00  0.00     0.014 A 
ENDBRANCH   7  22
TORSDOF 5
ENDMDL
