MODEL 1
REMARK VINA RESULT:      -8.5      0.000      0.000
REMARK  4 active torsions:
REMARK  status: ('A' for Active; 'I' for Inactive)
REMARK    1  A    between atoms: O_2  and  C_3 
REMARK    2  A    between atoms: C_7  and  C_8 
REMARK       I    between atoms: C_8  and  N_9 
REMARK    3  A    between atoms: N_9  and  C_10 
REMARK    4  A    between atoms: C_12  and  C_13 
ROOT
HETATM    1  C   UNL     1     -41.795  55.607 -55.132  1.00  0.00     0.254 C 
HETATM    2  N   UNL     1     -41.752  54.253 -54.870  1.00  0.00    -0.323 N 
HETATM    3  O   UNL     1     -41.274  56.492 -54.461  1.00  0.00    -0.268 OA
HETATM    4  H   UNL     1     -42.177  53.637 -55.548  1.00  0.00     0.169 HD
ENDROOT
BRANCH   1   5
HETATM    5  C   UNL     1     -42.490  55.978 -56.408  1.00  0.00     0.035 C 
HETATM    6  C   UNL     1     -43.095  55.091 -57.212  1.00  0.00     0.029 C 
HETATM    7  C   UNL     1     -43.688  55.592 -58.447  1.00  0.00     0.001 A 
HETATM    8  C   UNL     1     -43.837  56.970 -58.646  1.00  0.00     0.112 A 
HETATM    9  C   UNL     1     -44.132  54.701 -59.429  1.00  0.00     0.014 A 
HETATM   10  C   UNL     1     -44.455  57.461 -59.809  1.00  0.00     0.102 A 
HETATM   11  O   UNL     1     -43.443  57.885 -57.704  1.00  0.00    -0.343 OA
HETATM   12  C   UNL     1     -44.878  56.560 -60.789  1.00  0.00     0.040 A 
HETATM   13  C   UNL     1     -44.716  55.185 -60.601  1.00  0.00     0.004 A 
HETATM   14  C   UNL     1     -42.498  57.451 -56.715  1.00  0.00     0.220 C 
BRANCH  10  15
HETATM   15  O   UNL     1     -44.574  58.825 -59.906  1.00  0.00    -0.353 OA
HETATM   16  C   UNL     1     -43.770  59.474 -60.881  1.00  0.00     0.210 C 
ENDBRANCH  10  15
ENDBRANCH   1   5
BRANCH   2  17
HETATM   17  C   UNL     1     -41.134  53.604 -53.778  1.00  0.00     0.035 A 
HETATM   18  C   UNL     1     -41.240  54.027 -52.449  1.00  0.00     0.042 A 
HETATM   19  C   UNL     1     -40.572  53.352 -51.410  1.00  0.00    -0.021 A 
HETATM   20  C   UNL     1     -39.810  52.221 -51.729  1.00  0.00     0.012 A 
HETATM   21  C   UNL     1     -39.707  51.782 -53.049  1.00  0.00     0.003 A 
HETATM   22  C   UNL     1     -40.359  52.475 -54.068  1.00  0.00     0.029 A 
BRANCH  19  23
HETATM   23  C   UNL     1     -40.649  53.816 -50.029  1.00  0.00     0.010 A 
HETATM   24  C   UNL     1     -41.069  55.056 -49.488  1.00  0.00     0.152 A 
HETATM   25  N   UNL     1     -41.018  55.090 -48.153  1.00  0.00    -0.187 NA
HETATM   26  N   UNL     1     -40.561  53.870 -47.829  1.00  0.00    -0.289 N 
HETATM   27  H   UNL     1     -40.434  53.647 -46.848  1.00  0.00     0.188 HD
HETATM   28  C   UNL     1     -40.331  53.071 -48.912  1.00  0.00     0.123 A 
ENDBRANCH  19  23
ENDBRANCH   2  17
TORSDOF 4
ENDMDL
MODEL 2
REMARK VINA RESULT:      -8.5      3.065      9.381
REMARK  4 active torsions:
REMARK  status: ('A' for Active; 'I' for Inactive)
REMARK    1  A    between atoms: O_2  and  C_3 
REMARK    2  A    between atoms: C_7  and  C_8 
REMARK       I    between atoms: C_8  and  N_9 
REMARK    3  A    between atoms: N_9  and  C_10 
REMARK    4  A    between atoms: C_12  and  C_13 
ROOT
HETATM    1  C   UNL     1     -42.766  56.177 -55.487  1.00  0.00     0.254 C 
HETATM    2  N   UNL     1     -42.244  56.290 -56.759  1.00  0.00    -0.323 N 
HETATM    3  O   UNL     1     -43.791  56.709 -55.075  1.00  0.00    -0.268 OA
HETATM    4  H   UNL     1     -41.423  55.743 -56.973  1.00  0.00     0.169 HD
ENDROOT
BRANCH   1   5
HETATM    5  C   UNL     1     -42.017  55.245 -54.583  1.00  0.00     0.035 C 
HETATM    6  C   UNL     1     -41.441  54.107 -54.997  1.00  0.00     0.029 C 
HETATM    7  C   UNL     1     -40.787  53.275 -53.992  1.00  0.00     0.001 A 
HETATM    8  C   UNL     1     -40.558  53.777 -52.705  1.00  0.00     0.112 A 
HETATM    9  C   UNL     1     -40.366  51.980 -54.313  1.00  0.00     0.014 A 
HETATM   10  C   UNL     1     -39.882  53.002 -51.747  1.00  0.00     0.102 A 
HETATM   11  O   UNL     1     -40.927  55.047 -52.347  1.00  0.00    -0.343 OA
HETATM   12  C   UNL     1     -39.483  51.704 -52.076  1.00  0.00     0.040 A 
HETATM   13  C   UNL     1     -39.725  51.195 -53.354  1.00  0.00     0.004 A 
HETATM   14  C   UNL     1     -41.921  55.700 -53.151  1.00  0.00     0.220 C 
BRANCH  10  15
HETATM   15  O   UNL     1     -39.686  53.586 -50.520  1.00  0.00    -0.353 OA
HETATM   16  C   UNL     1     -40.510  53.137 -49.453  1.00  0.00     0.210 C 
ENDBRANCH  10  15
ENDBRANCH   1   5
BRANCH   2  17
HETATM   17  C   UNL     1     -42.751  57.052 -57.836  1.00  0.00     0.035 A 
HETATM   18  C   UNL     1     -43.947  56.771 -58.505  1.00  0.00     0.042 A 
HETATM   19  C   UNL     1     -44.379  57.553 -59.592  1.00  0.00    -0.021 A 
HETATM   20  C   UNL     1     -43.596  58.648 -59.981  1.00  0.00     0.012 A 
HETATM   21  C   UNL     1     -42.408  58.946 -59.314  1.00  0.00     0.003 A 
HETATM   22  C   UNL     1     -41.985  58.148 -58.252  1.00  0.00     0.029 A 
BRANCH  19  23
HETATM   23  C   UNL     1     -45.605  57.237 -60.316  1.00  0.00     0.010 A 
HETATM   24  C   UNL     1     -46.112  56.001 -60.788  1.00  0.00     0.152 A 
HETATM   25  N   UNL     1     -47.297  56.118 -61.394  1.00  0.00    -0.187 NA
HETATM   26  N   UNL     1     -47.557  57.432 -61.316  1.00  0.00    -0.289 N 
HETATM   27  H   UNL     1     -48.423  57.778 -61.715  1.00  0.00     0.188 HD
HETATM   28  C   UNL     1     -46.581  58.142 -60.678  1.00  0.00     0.123 A 
ENDBRANCH  19  23
ENDBRANCH   2  17
TORSDOF 4
ENDMDL
MODEL 3
REMARK VINA RESULT:      -8.4      3.191      9.294
REMARK  4 active torsions:
REMARK  status: ('A' for Active; 'I' for Inactive)
REMARK    1  A    between atoms: O_2  and  C_3 
REMARK    2  A    between atoms: C_7  and  C_8 
REMARK       I    between atoms: C_8  and  N_9 
REMARK    3  A    between atoms: N_9  and  C_10 
REMARK    4  A    between atoms: C_12  and  C_13 
ROOT
HETATM    1  C   UNL     1     -42.664  55.967 -55.710  1.00  0.00     0.254 C 
HETATM    2  N   UNL     1     -42.153  55.938 -56.991  1.00  0.00    -0.323 N 
HETATM    3  O   UNL     1     -43.659  56.581 -55.340  1.00  0.00    -0.268 OA
HETATM    4  H   UNL     1     -41.359  55.337 -57.159  1.00  0.00     0.169 HD
ENDROOT
BRANCH   1   5
HETATM    5  C   UNL     1     -41.944  55.091 -54.728  1.00  0.00     0.035 C 
HETATM    6  C   UNL     1     -41.341  53.940 -55.058  1.00  0.00     0.029 C 
HETATM    7  C   UNL     1     -40.723  53.168 -53.986  1.00  0.00     0.001 A 
HETATM    8  C   UNL     1     -40.552  53.739 -52.718  1.00  0.00     0.112 A 
HETATM    9  C   UNL     1     -40.277  51.863 -54.221  1.00  0.00     0.014 A 
HETATM   10  C   UNL     1     -39.909  53.022 -51.694  1.00  0.00     0.102 A 
HETATM   11  O   UNL     1     -40.946  55.022 -52.442  1.00  0.00    -0.343 OA
HETATM   12  C   UNL     1     -39.485  51.713 -51.938  1.00  0.00     0.040 A 
HETATM   13  C   UNL     1     -39.670  51.136 -53.197  1.00  0.00     0.004 A 
HETATM   14  C   UNL     1     -41.912  55.621 -53.319  1.00  0.00     0.220 C 
BRANCH  10  15
HETATM   15  O   UNL     1     -39.770  53.671 -50.493  1.00  0.00    -0.353 OA
HETATM   16  C   UNL     1     -40.522  53.168 -49.397  1.00  0.00     0.210 C 
ENDBRANCH  10  15
ENDBRANCH   1   5
BRANCH   2  17
HETATM   17  C   UNL     1     -42.640  56.618 -58.130  1.00  0.00     0.035 A 
HETATM   18  C   UNL     1     -42.134  57.836 -58.596  1.00  0.00     0.042 A 
HETATM   19  C   UNL     1     -42.687  58.477 -59.720  1.00  0.00    -0.021 A 
HETATM   20  C   UNL     1     -43.748  57.855 -60.390  1.00  0.00     0.012 A 
HETATM   21  C   UNL     1     -44.253  56.634 -59.943  1.00  0.00     0.003 A 
HETATM   22  C   UNL     1     -43.706  56.023 -58.815  1.00  0.00     0.029 A 
BRANCH  19  23
HETATM   23  C   UNL     1     -42.186  59.767 -60.182  1.00  0.00     0.010 A 
HETATM   24  C   UNL     1     -42.017  60.283 -61.490  1.00  0.00     0.152 A 
HETATM   25  N   UNL     1     -41.547  61.533 -61.504  1.00  0.00    -0.187 NA
HETATM   26  N   UNL     1     -41.408  61.827 -60.202  1.00  0.00    -0.289 N 
HETATM   27  H   UNL     1     -41.057  62.744 -59.948  1.00  0.00     0.188 HD
HETATM   28  C   UNL     1     -41.780  60.808 -59.372  1.00  0.00     0.123 A 
ENDBRANCH  19  23
ENDBRANCH   2  17
TORSDOF 4
ENDMDL
MODEL 4
REMARK VINA RESULT:      -8.0      1.858      2.506
REMARK  4 active torsions:
REMARK  status: ('A' for Active; 'I' for Inactive)
REMARK    1  A    between atoms: O_2  and  C_3 
REMARK    2  A    between atoms: C_7  and  C_8 
REMARK       I    between atoms: C_8  and  N_9 
REMARK    3  A    between atoms: N_9  and  C_10 
REMARK    4  A    between atoms: C_12  and  C_13 
ROOT
HETATM    1  C   UNL     1     -42.380  56.009 -55.707  1.00  0.00     0.254 C 
HETATM    2  N   UNL     1     -41.140  55.587 -55.272  1.00  0.00    -0.323 N 
HETATM    3  O   UNL     1     -43.465  55.595 -55.314  1.00  0.00    -0.268 OA
HETATM    4  H   UNL     1     -40.332  56.064 -55.645  1.00  0.00     0.169 HD
ENDROOT
BRANCH   1   5
HETATM    5  C   UNL     1     -42.347  57.133 -56.698  1.00  0.00     0.035 C 
HETATM    6  C   UNL     1     -42.307  56.955 -58.027  1.00  0.00     0.029 C 
HETATM    7  C   UNL     1     -42.228  58.146 -58.867  1.00  0.00     0.001 A 
HETATM    8  C   UNL     1     -42.443  59.413 -58.312  1.00  0.00     0.112 A 
HETATM    9  C   UNL     1     -41.959  58.028 -60.235  1.00  0.00     0.014 A 
HETATM   10  C   UNL     1     -42.421  60.560 -59.123  1.00  0.00     0.102 A 
HETATM   11  O   UNL     1     -42.736  59.582 -56.983  1.00  0.00    -0.343 OA
HETATM   12  C   UNL     1     -42.134  60.429 -60.484  1.00  0.00     0.040 A 
HETATM   13  C   UNL     1     -41.902  59.168 -61.037  1.00  0.00     0.004 A 
HETATM   14  C   UNL     1     -42.400  58.509 -56.090  1.00  0.00     0.220 C 
BRANCH  10  15
HETATM   15  O   UNL     1     -42.663  61.756 -58.493  1.00  0.00    -0.353 OA
HETATM   16  C   UNL     1     -43.920  62.371 -58.736  1.00  0.00     0.210 C 
ENDBRANCH  10  15
ENDBRANCH   1   5
BRANCH   2  17
HETATM   17  C   UNL     1     -40.855  54.585 -54.317  1.00  0.00     0.035 A 
HETATM   18  C   UNL     1     -40.978  54.757 -52.935  1.00  0.00     0.042 A 
HETATM   19  C   UNL     1     -40.646  53.727 -52.036  1.00  0.00    -0.021 A 
HETATM   20  C   UNL     1     -40.212  52.500 -52.555  1.00  0.00     0.012 A 
HETATM   21  C   UNL     1     -40.098  52.312 -53.932  1.00  0.00     0.003 A 
HETATM   22  C   UNL     1     -40.411  53.352 -54.807  1.00  0.00     0.029 A 
BRANCH  19  23
HETATM   23  C   UNL     1     -40.735  53.919 -50.593  1.00  0.00     0.010 A 
HETATM   24  C   UNL     1     -40.561  53.009 -49.521  1.00  0.00     0.152 A 
HETATM   25  N   UNL     1     -40.703  53.577 -48.321  1.00  0.00    -0.187 NA
HETATM   26  N   UNL     1     -40.973  54.859 -48.615  1.00  0.00    -0.289 N 
HETATM   27  H   UNL     1     -41.125  55.508 -47.851  1.00  0.00     0.188 HD
HETATM   28  C   UNL     1     -40.998  55.115 -49.956  1.00  0.00     0.123 A 
ENDBRANCH  19  23
ENDBRANCH   2  17
TORSDOF 4
ENDMDL
MODEL 5
REMARK VINA RESULT:      -7.9      3.308      9.354
REMARK  4 active torsions:
REMARK  status: ('A' for Active; 'I' for Inactive)
REMARK    1  A    between atoms: O_2  and  C_3 
REMARK    2  A    between atoms: C_7  and  C_8 
REMARK       I    between atoms: C_8  and  N_9 
REMARK    3  A    between atoms: N_9  and  C_10 
REMARK    4  A    between atoms: C_12  and  C_13 
ROOT
HETATM    1  C   UNL     1     -42.167  56.323 -55.624  1.00  0.00     0.254 C 
HETATM    2  N   UNL     1     -42.147  56.007 -56.966  1.00  0.00    -0.323 N 
HETATM    3  O   UNL     1     -42.652  57.332 -55.124  1.00  0.00    -0.268 OA
HETATM    4  H   UNL     1     -41.765  55.108 -57.225  1.00  0.00     0.169 HD
ENDROOT
BRANCH   1   5
HETATM    5  C   UNL     1     -41.597  55.268 -54.723  1.00  0.00     0.035 C 
HETATM    6  C   UNL     1     -41.857  55.188 -53.410  1.00  0.00     0.029 C 
HETATM    7  C   UNL     1     -41.190  54.136 -52.651  1.00  0.00     0.001 A 
HETATM    8  C   UNL     1     -40.514  53.108 -53.319  1.00  0.00     0.112 A 
HETATM    9  C   UNL     1     -41.240  54.133 -51.253  1.00  0.00     0.014 A 
HETATM   10  C   UNL     1     -39.914  52.061 -52.598  1.00  0.00     0.102 A 
HETATM   11  O   UNL     1     -40.457  53.048 -54.688  1.00  0.00    -0.343 OA
HETATM   12  C   UNL     1     -39.957  52.081 -51.202  1.00  0.00     0.040 A 
HETATM   13  C   UNL     1     -40.616  53.115 -50.532  1.00  0.00     0.004 A 
HETATM   14  C   UNL     1     -40.720  54.258 -55.414  1.00  0.00     0.220 C 
BRANCH  10  15
HETATM   15  O   UNL     1     -39.291  51.089 -53.341  1.00  0.00    -0.353 OA
HETATM   16  C   UNL     1     -39.687  49.745 -53.107  1.00  0.00     0.210 C 
ENDBRANCH  10  15
ENDBRANCH   1   5
BRANCH   2  17
HETATM   17  C   UNL     1     -42.647  56.775 -58.042  1.00  0.00     0.035 A 
HETATM   18  C   UNL     1     -42.084  57.979 -58.478  1.00  0.00     0.042 A 
HETATM   19  C   UNL     1     -42.652  58.712 -59.536  1.00  0.00    -0.021 A 
HETATM   20  C   UNL     1     -43.789  58.197 -60.172  1.00  0.00     0.012 A 
HETATM   21  C   UNL     1     -44.352  56.991 -59.754  1.00  0.00     0.003 A 
HETATM   22  C   UNL     1     -43.788  56.288 -58.690  1.00  0.00     0.029 A 
BRANCH  19  23
HETATM   23  C   UNL     1     -42.090  59.987 -59.965  1.00  0.00     0.010 A 
HETATM   24  C   UNL     1     -41.928  60.544 -61.258  1.00  0.00     0.152 A 
HETATM   25  N   UNL     1     -41.385  61.764 -61.240  1.00  0.00    -0.187 NA
HETATM   26  N   UNL     1     -41.191  61.998 -59.933  1.00  0.00    -0.289 N 
HETATM   27  H   UNL     1     -40.779  62.882 -59.657  1.00  0.00     0.188 HD
HETATM   28  C   UNL     1     -41.600  60.971 -59.131  1.00  0.00     0.123 A 
ENDBRANCH  19  23
ENDBRANCH   2  17
TORSDOF 4
ENDMDL
MODEL 6
REMARK VINA RESULT:      -7.9      2.496      3.456
REMARK  4 active torsions:
REMARK  status: ('A' for Active; 'I' for Inactive)
REMARK    1  A    between atoms: O_2  and  C_3 
REMARK    2  A    between atoms: C_7  and  C_8 
REMARK       I    between atoms: C_8  and  N_9 
REMARK    3  A    between atoms: N_9  and  C_10 
REMARK    4  A    between atoms: C_12  and  C_13 
ROOT
HETATM    1  C   UNL     1     -42.651  55.526 -55.009  1.00  0.00     0.254 C 
HETATM    2  N   UNL     1     -41.430  55.477 -54.367  1.00  0.00    -0.323 N 
HETATM    3  O   UNL     1     -43.637  54.849 -54.743  1.00  0.00    -0.268 OA
HETATM    4  H   UNL     1     -40.727  56.141 -54.658  1.00  0.00     0.169 HD
ENDROOT
BRANCH   1   5
HETATM    5  C   UNL     1     -42.755  56.574 -56.078  1.00  0.00     0.035 C 
HETATM    6  C   UNL     1     -42.510  56.342 -57.376  1.00  0.00     0.029 C 
HETATM    7  C   UNL     1     -42.604  57.473 -58.294  1.00  0.00     0.001 A 
HETATM    8  C   UNL     1     -43.172  58.679 -57.867  1.00  0.00     0.112 A 
HETATM    9  C   UNL     1     -42.149  57.352 -59.611  1.00  0.00     0.014 A 
HETATM   10  C   UNL     1     -43.315  59.756 -58.759  1.00  0.00     0.102 A 
HETATM   11  O   UNL     1     -43.658  58.842 -56.595  1.00  0.00    -0.343 OA
HETATM   12  C   UNL     1     -42.839  59.627 -60.067  1.00  0.00     0.040 A 
HETATM   13  C   UNL     1     -42.257  58.430 -60.490  1.00  0.00     0.004 A 
HETATM   14  C   UNL     1     -43.198  57.927 -55.589  1.00  0.00     0.220 C 
BRANCH  10  15
HETATM   15  O   UNL     1     -43.901  60.890 -58.255  1.00  0.00    -0.353 OA
HETATM   16  C   UNL     1     -43.032  61.898 -57.757  1.00  0.00     0.210 C 
ENDBRANCH  10  15
ENDBRANCH   1   5
BRANCH   2  17
HETATM   17  C   UNL     1     -41.050  54.633 -53.300  1.00  0.00     0.035 A 
HETATM   18  C   UNL     1     -40.625  53.309 -53.457  1.00  0.00     0.042 A 
HETATM   19  C   UNL     1     -40.291  52.511 -52.347  1.00  0.00    -0.021 A 
HETATM   20  C   UNL     1     -40.365  53.079 -51.068  1.00  0.00     0.012 A 
HETATM   21  C   UNL     1     -40.775  54.401 -50.900  1.00  0.00     0.003 A 
HETATM   22  C   UNL     1     -41.123  55.171 -52.010  1.00  0.00     0.029 A 
BRANCH  19  23
HETATM   23  C   UNL     1     -39.886  51.119 -52.507  1.00  0.00     0.010 A 
HETATM   24  C   UNL     1     -39.737  50.322 -53.668  1.00  0.00     0.152 A 
HETATM   25  N   UNL     1     -39.320  49.081 -53.403  1.00  0.00    -0.187 NA
HETATM   26  N   UNL     1     -39.200  49.073 -52.066  1.00  0.00    -0.289 N 
HETATM   27  H   UNL     1     -38.890  48.220 -51.614  1.00  0.00     0.188 HD
HETATM   28  C   UNL     1     -39.522  50.266 -51.485  1.00  0.00     0.123 A 
ENDBRANCH  19  23
ENDBRANCH   2  17
TORSDOF 4
ENDMDL
MODEL 7
REMARK VINA RESULT:      -7.6      5.158      7.243
REMARK  4 active torsions:
REMARK  status: ('A' for Active; 'I' for Inactive)
REMARK    1  A    between atoms: O_2  and  C_3 
REMARK    2  A    between atoms: C_7  and  C_8 
REMARK       I    between atoms: C_8  and  N_9 
REMARK    3  A    between atoms: N_9  and  C_10 
REMARK    4  A    between atoms: C_12  and  C_13 
ROOT
HETATM    1  C   UNL     1     -41.367  58.207 -50.780  1.00  0.00     0.254 C 
HETATM    2  N   UNL     1     -42.016  57.005 -50.583  1.00  0.00    -0.323 N 
HETATM    3  O   UNL     1     -40.155  58.370 -50.859  1.00  0.00    -0.268 OA
HETATM    4  H   UNL     1     -43.026  57.017 -50.600  1.00  0.00     0.169 HD
ENDROOT
BRANCH   1   5
HETATM    5  C   UNL     1     -42.274  59.383 -50.985  1.00  0.00     0.035 C 
HETATM    6  C   UNL     1     -42.000  60.621 -50.548  1.00  0.00     0.029 C 
HETATM    7  C   UNL     1     -43.002  61.657 -50.778  1.00  0.00     0.001 A 
HETATM    8  C   UNL     1     -44.078  61.414 -51.640  1.00  0.00     0.112 A 
HETATM    9  C   UNL     1     -42.883  62.905 -50.158  1.00  0.00     0.014 A 
HETATM   10  C   UNL     1     -45.019  62.423 -51.909  1.00  0.00     0.102 A 
HETATM   11  O   UNL     1     -44.229  60.218 -52.293  1.00  0.00    -0.343 OA
HETATM   12  C   UNL     1     -44.897  63.659 -51.269  1.00  0.00     0.040 A 
HETATM   13  C   UNL     1     -43.833  63.898 -50.396  1.00  0.00     0.004 A 
HETATM   14  C   UNL     1     -43.526  59.083 -51.765  1.00  0.00     0.220 C 
BRANCH  10  15
HETATM   15  O   UNL     1     -46.028  62.098 -52.782  1.00  0.00    -0.353 OA
HETATM   16  C   UNL     1     -47.341  62.008 -52.246  1.00  0.00     0.210 C 
ENDBRANCH  10  15
ENDBRANCH   1   5
BRANCH   2  17
HETATM   17  C   UNL     1     -41.436  55.729 -50.406  1.00  0.00     0.035 A 
HETATM   18  C   UNL     1     -41.100  54.865 -51.454  1.00  0.00     0.042 A 
HETATM   19  C   UNL     1     -40.553  53.593 -51.207  1.00  0.00    -0.021 A 
HETATM   20  C   UNL     1     -40.323  53.210 -49.879  1.00  0.00     0.012 A 
HETATM   21  C   UNL     1     -40.642  54.068 -48.826  1.00  0.00     0.003 A 
HETATM   22  C   UNL     1     -41.203  55.317 -49.089  1.00  0.00     0.029 A 
BRANCH  19  23
HETATM   23  C   UNL     1     -40.240  52.675 -52.296  1.00  0.00     0.010 A 
HETATM   24  C   UNL     1     -39.485  51.476 -52.314  1.00  0.00     0.152 A 
HETATM   25  N   UNL     1     -39.445  50.899 -53.518  1.00  0.00    -0.187 NA
HETATM   26  N   UNL     1     -40.174  51.727 -54.283  1.00  0.00    -0.289 N 
HETATM   27  H   UNL     1     -40.293  51.498 -55.264  1.00  0.00     0.188 HD
HETATM   28  C   UNL     1     -40.674  52.798 -53.601  1.00  0.00     0.123 A 
ENDBRANCH  19  23
ENDBRANCH   2  17
TORSDOF 4
ENDMDL
MODEL 8
REMARK VINA RESULT:      -7.6      2.407      3.658
REMARK  4 active torsions:
REMARK  status: ('A' for Active; 'I' for Inactive)
REMARK    1  A    between atoms: O_2  and  C_3 
REMARK    2  A    between atoms: C_7  and  C_8 
REMARK       I    between atoms: C_8  and  N_9 
REMARK    3  A    between atoms: N_9  and  C_10 
REMARK    4  A    between atoms: C_12  and  C_13 
ROOT
HETATM    1  C   UNL     1     -42.170  56.235 -55.207  1.00  0.00     0.254 C 
HETATM    2  N   UNL     1     -42.498  55.101 -54.492  1.00  0.00    -0.323 N 
HETATM    3  O   UNL     1     -41.109  56.847 -55.147  1.00  0.00    -0.268 OA
HETATM    4  H   UNL     1     -43.389  54.670 -54.692  1.00  0.00     0.169 HD
ENDROOT
BRANCH   1   5
HETATM    5  C   UNL     1     -43.210  56.677 -56.192  1.00  0.00     0.035 C 
HETATM    6  C   UNL     1     -44.007  57.740 -56.008  1.00  0.00     0.029 C 
HETATM    7  C   UNL     1     -45.008  58.020 -57.033  1.00  0.00     0.001 A 
HETATM    8  C   UNL     1     -44.957  57.357 -58.265  1.00  0.00     0.112 A 
HETATM    9  C   UNL     1     -46.010  58.968 -56.800  1.00  0.00     0.014 A 
HETATM   10  C   UNL     1     -45.885  57.659 -59.277  1.00  0.00     0.102 A 
HETATM   11  O   UNL     1     -43.981  56.439 -58.554  1.00  0.00    -0.343 OA
HETATM   12  C   UNL     1     -46.890  58.595 -59.024  1.00  0.00     0.040 A 
HETATM   13  C   UNL     1     -46.953  59.246 -57.789  1.00  0.00     0.004 A 
HETATM   14  C   UNL     1     -43.277  55.851 -57.449  1.00  0.00     0.220 C 
BRANCH  10  15
HETATM   15  O   UNL     1     -45.743  56.972 -60.456  1.00  0.00    -0.353 OA
HETATM   16  C   UNL     1     -46.894  56.304 -60.956  1.00  0.00     0.210 C 
ENDBRANCH  10  15
ENDBRANCH   1   5
BRANCH   2  17
HETATM   17  C   UNL     1     -41.710  54.428 -53.532  1.00  0.00     0.035 A 
HETATM   18  C   UNL     1     -41.205  53.133 -53.696  1.00  0.00     0.042 A 
HETATM   19  C   UNL     1     -40.452  52.507 -52.686  1.00  0.00    -0.021 A 
HETATM   20  C   UNL     1     -40.190  53.220 -51.508  1.00  0.00     0.012 A 
HETATM   21  C   UNL     1     -40.677  54.516 -51.338  1.00  0.00     0.003 A 
HETATM   22  C   UNL     1     -41.439  55.113 -52.342  1.00  0.00     0.029 A 
BRANCH  19  23
HETATM   23  C   UNL     1     -39.960  51.143 -52.839  1.00  0.00     0.010 A 
HETATM   24  C   UNL     1     -39.666  50.387 -54.001  1.00  0.00     0.152 A 
HETATM   25  N   UNL     1     -39.206  49.163 -53.727  1.00  0.00    -0.187 NA
HETATM   26  N   UNL     1     -39.204  49.125 -52.386  1.00  0.00    -0.289 N 
HETATM   27  H   UNL     1     -38.889  48.277 -51.927  1.00  0.00     0.188 HD
HETATM   28  C   UNL     1     -39.641  50.283 -51.809  1.00  0.00     0.123 A 
ENDBRANCH  19  23
ENDBRANCH   2  17
TORSDOF 4
ENDMDL
MODEL 9
REMARK VINA RESULT:      -7.6      4.830      6.819
REMARK  4 active torsions:
REMARK  status: ('A' for Active; 'I' for Inactive)
REMARK    1  A    between atoms: O_2  and  C_3 
REMARK    2  A    between atoms: C_7  and  C_8 
REMARK       I    between atoms: C_8  and  N_9 
REMARK    3  A    between atoms: N_9  and  C_10 
REMARK    4  A    between atoms: C_12  and  C_13 
ROOT
HETATM    1  C   UNL     1     -41.484  57.625 -52.703  1.00  0.00     0.254 C 
HETATM    2  N   UNL     1     -42.006  56.362 -52.890  1.00  0.00    -0.323 N 
HETATM    3  O   UNL     1     -40.354  57.994 -53.003  1.00  0.00    -0.268 OA
HETATM    4  H   UNL     1     -42.976  56.221 -52.649  1.00  0.00     0.169 HD
ENDROOT
BRANCH   1   5
HETATM    5  C   UNL     1     -42.452  58.627 -52.147  1.00  0.00     0.035 C 
HETATM    6  C   UNL     1     -43.742  58.696 -52.507  1.00  0.00     0.029 C 
HETATM    7  C   UNL     1     -44.553  59.756 -51.917  1.00  0.00     0.001 A 
HETATM    8  C   UNL     1     -44.060  60.499 -50.837  1.00  0.00     0.112 A 
HETATM    9  C   UNL     1     -45.834  60.024 -52.411  1.00  0.00     0.014 A 
HETATM   10  C   UNL     1     -44.854  61.486 -50.228  1.00  0.00     0.102 A 
HETATM   11  O   UNL     1     -42.823  60.260 -50.297  1.00  0.00    -0.343 OA
HETATM   12  C   UNL     1     -46.125  61.754 -50.744  1.00  0.00     0.040 A 
HETATM   13  C   UNL     1     -46.612  61.026 -51.832  1.00  0.00     0.004 A 
HETATM   14  C   UNL     1     -41.875  59.548 -51.106  1.00  0.00     0.220 C 
BRANCH  10  15
HETATM   15  O   UNL     1     -44.294  62.147 -49.164  1.00  0.00    -0.353 OA
HETATM   16  C   UNL     1     -44.820  61.859 -47.876  1.00  0.00     0.210 C 
ENDBRANCH  10  15
ENDBRANCH   1   5
BRANCH   2  17
HETATM   17  C   UNL     1     -41.355  55.231 -53.433  1.00  0.00     0.035 A 
HETATM   18  C   UNL     1     -41.069  54.066 -52.712  1.00  0.00     0.042 A 
HETATM   19  C   UNL     1     -40.389  52.987 -53.305  1.00  0.00    -0.021 A 
HETATM   20  C   UNL     1     -40.020  53.087 -54.653  1.00  0.00     0.012 A 
HETATM   21  C   UNL     1     -40.311  54.239 -55.385  1.00  0.00     0.003 A 
HETATM   22  C   UNL     1     -40.968  55.307 -54.775  1.00  0.00     0.029 A 
BRANCH  19  23
HETATM   23  C   UNL     1     -40.055  51.788 -52.544  1.00  0.00     0.010 A 
HETATM   24  C   UNL     1     -39.762  50.469 -52.969  1.00  0.00     0.152 A 
HETATM   25  N   UNL     1     -39.478  49.643 -51.959  1.00  0.00    -0.187 NA
HETATM   26  N   UNL     1     -39.590  50.428 -50.875  1.00  0.00    -0.289 N 
HETATM   27  H   UNL     1     -39.418  50.019 -49.963  1.00  0.00     0.188 HD
HETATM   28  C   UNL     1     -39.928  51.717 -51.172  1.00  0.00     0.123 A 
ENDBRANCH  19  23
ENDBRANCH   2  17
TORSDOF 4
ENDMDL
MODEL 10
REMARK VINA RESULT:      -7.6      5.290      8.663
REMARK  4 active torsions:
REMARK  status: ('A' for Active; 'I' for Inactive)
REMARK    1  A    between atoms: O_2  and  C_3 
REMARK    2  A    between atoms: C_7  and  C_8 
REMARK       I    between atoms: C_8  and  N_9 
REMARK    3  A    between atoms: N_9  and  C_10 
REMARK    4  A    between atoms: C_12  and  C_13 
ROOT
HETATM    1  C   UNL     1     -41.829  57.062 -51.293  1.00  0.00     0.254 C 
HETATM    2  N   UNL     1     -43.145  57.299 -51.631  1.00  0.00    -0.323 N 
HETATM    3  O   UNL     1     -41.084  57.834 -50.699  1.00  0.00    -0.268 OA
HETATM    4  H   UNL     1     -43.654  56.543 -52.067  1.00  0.00     0.169 HD
ENDROOT
BRANCH   1   5
HETATM    5  C   UNL     1     -41.330  55.691 -51.636  1.00  0.00     0.035 C 
HETATM    6  C   UNL     1     -41.073  55.283 -52.888  1.00  0.00     0.029 C 
HETATM    7  C   UNL     1     -40.640  53.902 -53.073  1.00  0.00     0.001 A 
HETATM    8  C   UNL     1     -40.267  53.128 -51.968  1.00  0.00     0.112 A 
HETATM    9  C   UNL     1     -40.572  53.349 -54.357  1.00  0.00     0.014 A 
HETATM   10  C   UNL     1     -39.798  51.814 -52.141  1.00  0.00     0.102 A 
HETATM   11  O   UNL     1     -40.290  53.628 -50.692  1.00  0.00    -0.343 OA
HETATM   12  C   UNL     1     -39.752  51.270 -53.428  1.00  0.00     0.040 A 
HETATM   13  C   UNL     1     -40.139  52.035 -54.531  1.00  0.00     0.004 A 
HETATM   14  C   UNL     1     -41.096  54.792 -50.452  1.00  0.00     0.220 C 
BRANCH  10  15
HETATM   15  O   UNL     1     -39.438  51.141 -51.001  1.00  0.00    -0.353 OA
HETATM   16  C   UNL     1     -39.660  49.738 -50.983  1.00  0.00     0.210 C 
ENDBRANCH  10  15
ENDBRANCH   1   5
BRANCH   2  17
HETATM   17  C   UNL     1     -43.900  58.470 -51.398  1.00  0.00     0.035 A 
HETATM   18  C   UNL     1     -43.375  59.766 -51.440  1.00  0.00     0.042 A 
HETATM   19  C   UNL     1     -44.176  60.890 -51.165  1.00  0.00    -0.021 A 
HETATM   20  C   UNL     1     -45.531  60.690 -50.871  1.00  0.00     0.012 A 
HETATM   21  C   UNL     1     -46.069  59.403 -50.838  1.00  0.00     0.003 A 
HETATM   22  C   UNL     1     -45.255  58.300 -51.093  1.00  0.00     0.029 A 
BRANCH  19  23
HETATM   23  C   UNL     1     -43.620  62.239 -51.170  1.00  0.00     0.010 A 
HETATM   24  C   UNL     1     -43.279  63.100 -52.242  1.00  0.00     0.152 A 
HETATM   25  N   UNL     1     -42.813  64.284 -51.836  1.00  0.00    -0.187 NA
HETATM   26  N   UNL     1     -42.849  64.189 -50.498  1.00  0.00    -0.289 N 
HETATM   27  H   UNL     1     -42.536  64.982 -49.949  1.00  0.00     0.188 HD
HETATM   28  C   UNL     1     -43.327  62.991 -50.050  1.00  0.00     0.123 A 
ENDBRANCH  19  23
ENDBRANCH   2  17
TORSDOF 4
ENDMDL
