MODEL 1
REMARK VINA RESULT:      -8.4      0.000      0.000
REMARK  6 active torsions:
REMARK  status: ('A' for Active; 'I' for Inactive)
REMARK    1  A    between atoms: C_2  and  N_3 
REMARK       I    between atoms: N_3  and  C_4 
REMARK    2  A    between atoms: C_4  and  C_5 
REMARK    3  A    between atoms: C_5  and  O_6 
REMARK    4  A    between atoms: O_6  and  C_7 
REMARK    5  A    between atoms: C_9  and  N_10 
REMARK       I    between atoms: N_10  and  C_11 
REMARK    6  A    between atoms: C_11  and  C_12 
ROOT
HETATM    1  N   UNL     1     -41.983  55.735 -54.995  1.00  0.00    -0.322 N 
HETATM    2  C   UNL     1     -42.750  54.942 -54.160  1.00  0.00     0.277 C 
HETATM    3  O   UNL     1     -43.935  54.666 -54.309  1.00  0.00    -0.266 OA
HETATM    4  H   UNL     1     -41.032  55.874 -54.662  1.00  0.00     0.169 HD
ENDROOT
BRANCH   1   5
HETATM    5  C   UNL     1     -42.380  56.384 -56.177  1.00  0.00     0.037 A 
HETATM    6  C   UNL     1     -42.552  55.729 -57.396  1.00  0.00     0.066 A 
HETATM    7  C   UNL     1     -42.975  56.422 -58.535  1.00  0.00     0.071 A 
HETATM    8  C   UNL     1     -43.212  57.792 -58.464  1.00  0.00     0.037 A 
HETATM    9  C   UNL     1     -43.031  58.461 -57.252  1.00  0.00     0.005 A 
HETATM   10  C   UNL     1     -42.615  57.761 -56.115  1.00  0.00     0.029 A 
BRANCH   7  11
HETATM   11  O   UNL     1     -43.094  55.644 -59.650  1.00  0.00    -0.342 OA
BRANCH  11  12
HETATM   12  C   UNL     1     -44.141  54.676 -59.664  1.00  0.00     0.278 C 
BRANCH  12  13
HETATM   13  C   UNL     1     -45.234  55.144 -60.627  1.00  0.00     0.241 C 
HETATM   14  N   UNL     1     -46.248  55.857 -60.022  1.00  0.00    -0.360 N 
HETATM   15  H   UNL     1     -46.259  55.845 -59.005  1.00  0.00     0.162 HD
HETATM   16  O   UNL     1     -45.174  54.937 -61.836  1.00  0.00    -0.271 OA
BRANCH  14  17
HETATM   17  C   UNL     1     -47.418  56.318 -60.730  1.00  0.00     0.118 C 
HETATM   18  C   UNL     1     -47.410  57.828 -60.894  1.00  0.00     0.026 C 
ENDBRANCH  14  17
ENDBRANCH  12  13
ENDBRANCH  11  12
ENDBRANCH   7  11
ENDBRANCH   1   5
BRANCH   2  19
HETATM   19  C   UNL     1     -41.980  54.458 -53.000  1.00  0.00     0.157 A 
HETATM   20  N   UNL     1     -42.027  55.090 -51.805  1.00  0.00    -0.168 NA
HETATM   21  N   UNL     1     -41.200  54.364 -51.029  1.00  0.00    -0.277 N 
HETATM   22  H   UNL     1     -41.058  54.658 -50.070  1.00  0.00     0.189 HD
HETATM   23  C   UNL     1     -40.647  53.278 -51.649  1.00  0.00     0.063 A 
HETATM   24  C   UNL     1     -41.137  53.308 -52.948  1.00  0.00     0.029 A 
HETATM   25  C   UNL     1     -39.774  52.289 -51.187  1.00  0.00     0.032 A 
HETATM   26  C   UNL     1     -40.746  52.297 -53.846  1.00  0.00     0.023 A 
HETATM   27  C   UNL     1     -39.879  51.279 -53.410  1.00  0.00    -0.061 A 
HETATM   28  C   UNL     1     -39.402  51.289 -52.094  1.00  0.00     0.009 A 
HETATM   29  C   UNL     1     -39.478  50.195 -54.369  1.00  0.00     0.048 C 
ENDBRANCH   2  19
TORSDOF 6
ENDMDL
MODEL 2
REMARK VINA RESULT:      -8.2      1.435      1.564
REMARK  6 active torsions:
REMARK  status: ('A' for Active; 'I' for Inactive)
REMARK    1  A    between atoms: C_2  and  N_3 
REMARK       I    between atoms: N_3  and  C_4 
REMARK    2  A    between atoms: C_4  and  C_5 
REMARK    3  A    between atoms: C_5  and  O_6 
REMARK    4  A    between atoms: O_6  and  C_7 
REMARK    5  A    between atoms: C_9  and  N_10 
REMARK       I    between atoms: N_10  and  C_11 
REMARK    6  A    between atoms: C_11  and  C_12 
ROOT
HETATM    1  N   UNL     1     -42.529  55.489 -53.814  1.00  0.00    -0.322 N 
HETATM    2  C   UNL     1     -41.166  55.272 -53.729  1.00  0.00     0.277 C 
HETATM    3  O   UNL     1     -40.308  55.745 -54.467  1.00  0.00    -0.266 OA
HETATM    4  H   UNL     1     -43.067  54.962 -53.130  1.00  0.00     0.169 HD
ENDROOT
BRANCH   1   5
HETATM    5  C   UNL     1     -43.222  56.285 -54.743  1.00  0.00     0.037 A 
HETATM    6  C   UNL     1     -43.027  56.205 -56.122  1.00  0.00     0.066 A 
HETATM    7  C   UNL     1     -43.765  57.005 -57.002  1.00  0.00     0.071 A 
HETATM    8  C   UNL     1     -44.695  57.911 -56.501  1.00  0.00     0.037 A 
HETATM    9  C   UNL     1     -44.888  58.008 -55.122  1.00  0.00     0.005 A 
HETATM   10  C   UNL     1     -44.154  57.201 -54.248  1.00  0.00     0.029 A 
BRANCH   7  11
HETATM   11  O   UNL     1     -43.459  56.813 -58.319  1.00  0.00    -0.342 OA
BRANCH  11  12
HETATM   12  C   UNL     1     -43.693  55.516 -58.863  1.00  0.00     0.278 C 
BRANCH  12  13
HETATM   13  C   UNL     1     -44.705  55.633 -60.004  1.00  0.00     0.241 C 
HETATM   14  N   UNL     1     -45.953  56.064 -59.604  1.00  0.00    -0.360 N 
HETATM   15  H   UNL     1     -46.121  56.086 -58.601  1.00  0.00     0.162 HD
HETATM   16  O   UNL     1     -44.404  55.408 -61.172  1.00  0.00    -0.271 OA
BRANCH  14  17
HETATM   17  C   UNL     1     -47.078  56.163 -60.504  1.00  0.00     0.118 C 
HETATM   18  C   UNL     1     -47.402  57.610 -60.832  1.00  0.00     0.026 C 
ENDBRANCH  14  17
ENDBRANCH  12  13
ENDBRANCH  11  12
ENDBRANCH   7  11
ENDBRANCH   1   5
BRANCH   2  19
HETATM   19  C   UNL     1     -40.821  54.350 -52.631  1.00  0.00     0.157 A 
HETATM   20  N   UNL     1     -40.885  54.736 -51.336  1.00  0.00    -0.168 NA
HETATM   21  N   UNL     1     -40.493  53.640 -50.658  1.00  0.00    -0.277 N 
HETATM   22  H   UNL     1     -40.446  53.691 -49.648  1.00  0.00     0.189 HD
HETATM   23  C   UNL     1     -40.211  52.558 -51.444  1.00  0.00     0.063 A 
HETATM   24  C   UNL     1     -40.415  52.988 -52.749  1.00  0.00     0.029 A 
HETATM   25  C   UNL     1     -39.803  51.259 -51.125  1.00  0.00     0.032 A 
HETATM   26  C   UNL     1     -40.209  52.079 -53.805  1.00  0.00     0.023 A 
HETATM   27  C   UNL     1     -39.809  50.762 -53.519  1.00  0.00    -0.061 A 
HETATM   28  C   UNL     1     -39.608  50.370 -52.190  1.00  0.00     0.009 A 
HETATM   29  C   UNL     1     -39.605  49.794 -54.649  1.00  0.00     0.048 C 
ENDBRANCH   2  19
TORSDOF 6
ENDMDL
MODEL 3
REMARK VINA RESULT:      -8.2      1.460      2.042
REMARK  6 active torsions:
REMARK  status: ('A' for Active; 'I' for Inactive)
REMARK    1  A    between atoms: C_2  and  N_3 
REMARK       I    between atoms: N_3  and  C_4 
REMARK    2  A    between atoms: C_4  and  C_5 
REMARK    3  A    between atoms: C_5  and  O_6 
REMARK    4  A    between atoms: O_6  and  C_7 
REMARK    5  A    between atoms: C_9  and  N_10 
REMARK       I    between atoms: N_10  and  C_11 
REMARK    6  A    between atoms: C_11  and  C_12 
ROOT
HETATM    1  N   UNL     1     -42.664  56.383 -54.575  1.00  0.00    -0.322 N 
HETATM    2  C   UNL     1     -42.740  55.014 -54.389  1.00  0.00     0.277 C 
HETATM    3  O   UNL     1     -43.451  54.235 -55.016  1.00  0.00    -0.266 OA
HETATM    4  H   UNL     1     -42.044  56.846 -53.916  1.00  0.00     0.169 HD
ENDROOT
BRANCH   1   5
HETATM    5  C   UNL     1     -43.365  57.170 -55.504  1.00  0.00     0.037 A 
HETATM    6  C   UNL     1     -42.818  57.608 -56.711  1.00  0.00     0.066 A 
HETATM    7  C   UNL     1     -43.573  58.369 -57.611  1.00  0.00     0.071 A 
HETATM    8  C   UNL     1     -44.884  58.715 -57.296  1.00  0.00     0.037 A 
HETATM    9  C   UNL     1     -45.437  58.293 -56.086  1.00  0.00     0.005 A 
HETATM   10  C   UNL     1     -44.681  57.527 -55.194  1.00  0.00     0.029 A 
BRANCH   7  11
HETATM   11  O   UNL     1     -42.899  58.723 -58.744  1.00  0.00    -0.342 OA
BRANCH  11  12
HETATM   12  C   UNL     1     -43.576  58.556 -59.987  1.00  0.00     0.278 C 
BRANCH  12  13
HETATM   13  C   UNL     1     -43.499  57.085 -60.399  1.00  0.00     0.241 C 
HETATM   14  N   UNL     1     -44.718  56.529 -60.725  1.00  0.00    -0.360 N 
HETATM   15  H   UNL     1     -45.540  57.081 -60.492  1.00  0.00     0.162 HD
HETATM   16  O   UNL     1     -42.432  56.481 -60.475  1.00  0.00    -0.271 OA
BRANCH  14  17
HETATM   17  C   UNL     1     -44.884  55.134 -61.059  1.00  0.00     0.118 C 
HETATM   18  C   UNL     1     -44.825  54.255 -59.822  1.00  0.00     0.026 C 
ENDBRANCH  14  17
ENDBRANCH  12  13
ENDBRANCH  11  12
ENDBRANCH   7  11
ENDBRANCH   1   5
BRANCH   2  19
HETATM   19  C   UNL     1     -41.866  54.556 -53.295  1.00  0.00     0.157 A 
HETATM   20  N   UNL     1     -41.725  55.270 -52.155  1.00  0.00    -0.168 NA
HETATM   21  N   UNL     1     -40.856  54.542 -51.428  1.00  0.00    -0.277 N 
HETATM   22  H   UNL     1     -40.579  54.890 -50.518  1.00  0.00     0.189 HD
HETATM   23  C   UNL     1     -40.453  53.379 -52.024  1.00  0.00     0.063 A 
HETATM   24  C   UNL     1     -41.097  53.355 -53.255  1.00  0.00     0.029 A 
HETATM   25  C   UNL     1     -39.595  52.363 -51.594  1.00  0.00     0.032 A 
HETATM   26  C   UNL     1     -40.884  52.258 -54.112  1.00  0.00     0.023 A 
HETATM   27  C   UNL     1     -40.036  51.214 -53.705  1.00  0.00    -0.061 A 
HETATM   28  C   UNL     1     -39.401  51.279 -52.459  1.00  0.00     0.009 A 
HETATM   29  C   UNL     1     -39.826  50.040 -54.619  1.00  0.00     0.048 C 
ENDBRANCH   2  19
TORSDOF 6
ENDMDL
MODEL 4
REMARK VINA RESULT:      -7.8      2.805      4.187
REMARK  6 active torsions:
REMARK  status: ('A' for Active; 'I' for Inactive)
REMARK    1  A    between atoms: C_2  and  N_3 
REMARK       I    between atoms: N_3  and  C_4 
REMARK    2  A    between atoms: C_4  and  C_5 
REMARK    3  A    between atoms: C_5  and  O_6 
REMARK    4  A    between atoms: O_6  and  C_7 
REMARK    5  A    between atoms: C_9  and  N_10 
REMARK       I    between atoms: N_10  and  C_11 
REMARK    6  A    between atoms: C_11  and  C_12 
ROOT
HETATM    1  N   UNL     1     -42.150  55.560 -55.597  1.00  0.00    -0.322 N 
HETATM    2  C   UNL     1     -42.839  54.942 -54.569  1.00  0.00     0.277 C 
HETATM    3  O   UNL     1     -44.047  54.729 -54.531  1.00  0.00    -0.266 OA
HETATM    4  H   UNL     1     -41.158  55.678 -55.406  1.00  0.00     0.169 HD
ENDROOT
BRANCH   1   5
HETATM    5  C   UNL     1     -42.666  56.069 -56.801  1.00  0.00     0.037 A 
HETATM    6  C   UNL     1     -42.729  57.431 -57.097  1.00  0.00     0.066 A 
HETATM    7  C   UNL     1     -43.230  57.880 -58.324  1.00  0.00     0.071 A 
HETATM    8  C   UNL     1     -43.691  56.961 -59.263  1.00  0.00     0.037 A 
HETATM    9  C   UNL     1     -43.645  55.597 -58.971  1.00  0.00     0.005 A 
HETATM   10  C   UNL     1     -43.136  55.153 -57.747  1.00  0.00     0.029 A 
BRANCH   7  11
HETATM   11  O   UNL     1     -43.229  59.238 -58.463  1.00  0.00    -0.342 OA
BRANCH  11  12
HETATM   12  C   UNL     1     -42.257  59.806 -59.339  1.00  0.00     0.278 C 
BRANCH  12  13
HETATM   13  C   UNL     1     -41.481  60.885 -58.582  1.00  0.00     0.241 C 
HETATM   14  N   UNL     1     -41.385  62.084 -59.256  1.00  0.00    -0.360 N 
HETATM   15  H   UNL     1     -41.673  62.075 -60.231  1.00  0.00     0.162 HD
HETATM   16  O   UNL     1     -41.031  60.698 -57.454  1.00  0.00    -0.271 OA
BRANCH  14  17
HETATM   17  C   UNL     1     -40.624  63.207 -58.761  1.00  0.00     0.118 C 
HETATM   18  C   UNL     1     -39.263  63.294 -59.428  1.00  0.00     0.026 C 
ENDBRANCH  14  17
ENDBRANCH  12  13
ENDBRANCH  11  12
ENDBRANCH   7  11
ENDBRANCH   1   5
BRANCH   2  19
HETATM   19  C   UNL     1     -41.950  54.568 -53.455  1.00  0.00     0.157 A 
HETATM   20  N   UNL     1     -41.825  55.346 -52.356  1.00  0.00    -0.168 NA
HETATM   21  N   UNL     1     -40.935  54.682 -51.595  1.00  0.00    -0.277 N 
HETATM   22  H   UNL     1     -40.665  55.087 -50.706  1.00  0.00     0.189 HD
HETATM   23  C   UNL     1     -40.502  53.500 -52.129  1.00  0.00     0.063 A 
HETATM   24  C   UNL     1     -41.148  53.392 -53.353  1.00  0.00     0.029 A 
HETATM   25  C   UNL     1     -39.615  52.533 -51.648  1.00  0.00     0.032 A 
HETATM   26  C   UNL     1     -40.907  52.257 -54.151  1.00  0.00     0.023 A 
HETATM   27  C   UNL     1     -40.029  51.260 -53.692  1.00  0.00    -0.061 A 
HETATM   28  C   UNL     1     -39.393  51.409 -52.455  1.00  0.00     0.009 A 
HETATM   29  C   UNL     1     -39.789  50.045 -54.542  1.00  0.00     0.048 C 
ENDBRANCH   2  19
TORSDOF 6
ENDMDL
MODEL 5
REMARK VINA RESULT:      -7.6      5.598      8.261
REMARK  6 active torsions:
REMARK  status: ('A' for Active; 'I' for Inactive)
REMARK    1  A    between atoms: C_2  and  N_3 
REMARK       I    between atoms: N_3  and  C_4 
REMARK    2  A    between atoms: C_4  and  C_5 
REMARK    3  A    between atoms: C_5  and  O_6 
REMARK    4  A    between atoms: O_6  and  C_7 
REMARK    5  A    between atoms: C_9  and  N_10 
REMARK       I    between atoms: N_10  and  C_11 
REMARK    6  A    between atoms: C_11  and  C_12 
ROOT
HETATM    1  N   UNL     1     -43.341  57.185 -50.984  1.00  0.00    -0.322 N 
HETATM    2  C   UNL     1     -41.957  57.178 -50.988  1.00  0.00     0.277 C 
HETATM    3  O   UNL     1     -41.228  58.076 -51.397  1.00  0.00    -0.266 OA
HETATM    4  H   UNL     1     -43.749  56.319 -50.643  1.00  0.00     0.169 HD
ENDROOT
BRANCH   1   5
HETATM    5  C   UNL     1     -44.202  58.200 -51.436  1.00  0.00     0.037 A 
HETATM    6  C   UNL     1     -44.797  59.137 -50.591  1.00  0.00     0.066 A 
HETATM    7  C   UNL     1     -45.627  60.143 -51.099  1.00  0.00     0.071 A 
HETATM    8  C   UNL     1     -45.883  60.205 -52.466  1.00  0.00     0.037 A 
HETATM    9  C   UNL     1     -45.303  59.264 -53.319  1.00  0.00     0.005 A 
HETATM   10  C   UNL     1     -44.469  58.266 -52.807  1.00  0.00     0.029 A 
BRANCH   7  11
HETATM   11  O   UNL     1     -46.135  60.980 -50.149  1.00  0.00    -0.342 OA
BRANCH  11  12
HETATM   12  C   UNL     1     -45.284  61.325 -49.058  1.00  0.00     0.278 C 
BRANCH  12  13
HETATM   13  C   UNL     1     -46.058  61.144 -47.750  1.00  0.00     0.241 C 
HETATM   14  N   UNL     1     -45.473  60.258 -46.870  1.00  0.00    -0.360 N 
HETATM   15  H   UNL     1     -44.709  59.698 -47.239  1.00  0.00     0.162 HD
HETATM   16  O   UNL     1     -47.082  61.775 -47.503  1.00  0.00    -0.271 OA
BRANCH  14  17
HETATM   17  C   UNL     1     -46.079  59.878 -45.616  1.00  0.00     0.118 C 
HETATM   18  C   UNL     1     -46.981  58.668 -45.780  1.00  0.00     0.026 C 
ENDBRANCH  14  17
ENDBRANCH  12  13
ENDBRANCH  11  12
ENDBRANCH   7  11
ENDBRANCH   1   5
BRANCH   2  19
HETATM   19  C   UNL     1     -41.410  55.918 -50.455  1.00  0.00     0.157 A 
HETATM   20  N   UNL     1     -41.261  55.718 -49.125  1.00  0.00    -0.168 NA
HETATM   21  N   UNL     1     -40.734  54.481 -49.047  1.00  0.00    -0.277 N 
HETATM   22  H   UNL     1     -40.517  54.107 -48.131  1.00  0.00     0.189 HD
HETATM   23  C   UNL     1     -40.566  53.859 -50.253  1.00  0.00     0.063 A 
HETATM   24  C   UNL     1     -40.999  54.775 -51.203  1.00  0.00     0.029 A 
HETATM   25  C   UNL     1     -40.080  52.591 -50.585  1.00  0.00     0.032 A 
HETATM   26  C   UNL     1     -40.955  54.417 -52.564  1.00  0.00     0.023 A 
HETATM   27  C   UNL     1     -40.482  53.145 -52.931  1.00  0.00    -0.061 A 
HETATM   28  C   UNL     1     -40.049  52.252 -51.944  1.00  0.00     0.009 A 
HETATM   29  C   UNL     1     -40.452  52.764 -54.384  1.00  0.00     0.048 C 
ENDBRANCH   2  19
TORSDOF 6
ENDMDL
MODEL 6
REMARK VINA RESULT:      -7.5      3.029      4.649
REMARK  6 active torsions:
REMARK  status: ('A' for Active; 'I' for Inactive)
REMARK    1  A    between atoms: C_2  and  N_3 
REMARK       I    between atoms: N_3  and  C_4 
REMARK    2  A    between atoms: C_4  and  C_5 
REMARK    3  A    between atoms: C_5  and  O_6 
REMARK    4  A    between atoms: O_6  and  C_7 
REMARK    5  A    between atoms: C_9  and  N_10 
REMARK       I    between atoms: N_10  and  C_11 
REMARK    6  A    between atoms: C_11  and  C_12 
ROOT
HETATM    1  N   UNL     1     -43.042  56.486 -51.173  1.00  0.00    -0.322 N 
HETATM    2  C   UNL     1     -41.788  56.536 -50.590  1.00  0.00     0.277 C 
HETATM    3  O   UNL     1     -41.092  57.537 -50.452  1.00  0.00    -0.266 OA
HETATM    4  H   UNL     1     -43.425  55.545 -51.227  1.00  0.00     0.169 HD
ENDROOT
BRANCH   1   5
HETATM    5  C   UNL     1     -43.784  57.546 -51.722  1.00  0.00     0.037 A 
HETATM    6  C   UNL     1     -43.525  58.098 -52.976  1.00  0.00     0.066 A 
HETATM    7  C   UNL     1     -44.314  59.136 -53.484  1.00  0.00     0.071 A 
HETATM    8  C   UNL     1     -45.363  59.645 -52.724  1.00  0.00     0.037 A 
HETATM    9  C   UNL     1     -45.622  59.108 -51.462  1.00  0.00     0.005 A 
HETATM   10  C   UNL     1     -44.836  58.066 -50.963  1.00  0.00     0.029 A 
BRANCH   7  11
HETATM   11  O   UNL     1     -43.935  59.570 -54.721  1.00  0.00    -0.342 OA
BRANCH  11  12
HETATM   12  C   UNL     1     -44.552  58.954 -55.849  1.00  0.00     0.278 C 
BRANCH  12  13
HETATM   13  C   UNL     1     -43.528  58.053 -56.542  1.00  0.00     0.241 C 
HETATM   14  N   UNL     1     -43.841  56.710 -56.496  1.00  0.00    -0.360 N 
HETATM   15  H   UNL     1     -44.600  56.447 -55.873  1.00  0.00     0.162 HD
HETATM   16  O   UNL     1     -42.546  58.504 -57.125  1.00  0.00    -0.271 OA
BRANCH  14  17
HETATM   17  C   UNL     1     -42.971  55.680 -57.013  1.00  0.00     0.118 C 
HETATM   18  C   UNL     1     -42.262  54.939 -55.894  1.00  0.00     0.026 C 
ENDBRANCH  14  17
ENDBRANCH  12  13
ENDBRANCH  11  12
ENDBRANCH   7  11
ENDBRANCH   1   5
BRANCH   2  19
HETATM   19  C   UNL     1     -41.328  55.205 -50.154  1.00  0.00     0.157 A 
HETATM   20  N   UNL     1     -41.311  54.856 -48.847  1.00  0.00    -0.168 NA
HETATM   21  N   UNL     1     -40.828  53.599 -48.861  1.00  0.00    -0.277 N 
HETATM   22  H   UNL     1     -40.708  53.120 -47.976  1.00  0.00     0.189 HD
HETATM   23  C   UNL     1     -40.563  53.106 -50.108  1.00  0.00     0.063 A 
HETATM   24  C   UNL     1     -40.880  54.136 -50.984  1.00  0.00     0.029 A 
HETATM   25  C   UNL     1     -40.083  51.864 -50.534  1.00  0.00     0.032 A 
HETATM   26  C   UNL     1     -40.717  53.927 -52.367  1.00  0.00     0.023 A 
HETATM   27  C   UNL     1     -40.247  52.685 -52.831  1.00  0.00    -0.061 A 
HETATM   28  C   UNL     1     -39.933  51.675 -51.914  1.00  0.00     0.009 A 
HETATM   29  C   UNL     1     -40.090  52.464 -54.308  1.00  0.00     0.048 C 
ENDBRANCH   2  19
TORSDOF 6
ENDMDL
MODEL 7
REMARK VINA RESULT:      -7.4      1.716      2.494
REMARK  6 active torsions:
REMARK  status: ('A' for Active; 'I' for Inactive)
REMARK    1  A    between atoms: C_2  and  N_3 
REMARK       I    between atoms: N_3  and  C_4 
REMARK    2  A    between atoms: C_4  and  C_5 
REMARK    3  A    between atoms: C_5  and  O_6 
REMARK    4  A    between atoms: O_6  and  C_7 
REMARK    5  A    between atoms: C_9  and  N_10 
REMARK       I    between atoms: N_10  and  C_11 
REMARK    6  A    between atoms: C_11  and  C_12 
ROOT
HETATM    1  N   UNL     1     -43.066  56.699 -56.202  1.00  0.00    -0.322 N 
HETATM    2  C   UNL     1     -42.736  55.535 -55.531  1.00  0.00     0.277 C 
HETATM    3  O   UNL     1     -42.268  54.517 -56.031  1.00  0.00    -0.266 OA
HETATM    4  H   UNL     1     -43.484  57.406 -55.603  1.00  0.00     0.169 HD
ENDROOT
BRANCH   1   5
HETATM    5  C   UNL     1     -42.940  56.971 -57.575  1.00  0.00     0.037 A 
HETATM    6  C   UNL     1     -43.596  56.244 -58.568  1.00  0.00     0.066 A 
HETATM    7  C   UNL     1     -43.453  56.577 -59.920  1.00  0.00     0.071 A 
HETATM    8  C   UNL     1     -42.630  57.637 -60.289  1.00  0.00     0.037 A 
HETATM    9  C   UNL     1     -41.958  58.363 -59.304  1.00  0.00     0.005 A 
HETATM   10  C   UNL     1     -42.110  58.031 -57.955  1.00  0.00     0.029 A 
BRANCH   7  11
HETATM   11  O   UNL     1     -44.155  55.772 -60.769  1.00  0.00    -0.342 OA
BRANCH  11  12
HETATM   12  C   UNL     1     -45.354  55.181 -60.271  1.00  0.00     0.278 C 
BRANCH  12  13
HETATM   13  C   UNL     1     -46.473  56.224 -60.311  1.00  0.00     0.241 C 
HETATM   14  N   UNL     1     -46.964  56.471 -61.576  1.00  0.00    -0.360 N 
HETATM   15  H   UNL     1     -46.430  56.083 -62.349  1.00  0.00     0.162 HD
HETATM   16  O   UNL     1     -46.915  56.749 -59.293  1.00  0.00    -0.271 OA
BRANCH  14  17
HETATM   17  C   UNL     1     -47.962  57.478 -61.851  1.00  0.00     0.118 C 
HETATM   18  C   UNL     1     -49.165  56.889 -62.566  1.00  0.00     0.026 C 
ENDBRANCH  14  17
ENDBRANCH  12  13
ENDBRANCH  11  12
ENDBRANCH   7  11
ENDBRANCH   1   5
BRANCH   2  19
HETATM   19  C   UNL     1     -43.040  55.623 -54.091  1.00  0.00     0.157 A 
HETATM   20  N   UNL     1     -44.047  56.397 -53.626  1.00  0.00    -0.168 NA
HETATM   21  N   UNL     1     -43.994  56.218 -52.292  1.00  0.00    -0.277 N 
HETATM   22  H   UNL     1     -44.658  56.719 -51.713  1.00  0.00     0.189 HD
HETATM   23  C   UNL     1     -43.028  55.346 -51.874  1.00  0.00     0.063 A 
HETATM   24  C   UNL     1     -42.379  54.935 -53.031  1.00  0.00     0.029 A 
HETATM   25  C   UNL     1     -42.676  54.891 -50.600  1.00  0.00     0.032 A 
HETATM   26  C   UNL     1     -41.320  54.012 -52.925  1.00  0.00     0.023 A 
HETATM   27  C   UNL     1     -40.948  53.525 -51.660  1.00  0.00    -0.061 A 
HETATM   28  C   UNL     1     -41.623  53.970 -50.518  1.00  0.00     0.009 A 
HETATM   29  C   UNL     1     -39.828  52.530 -51.557  1.00  0.00     0.048 C 
ENDBRANCH   2  19
TORSDOF 6
ENDMDL
MODEL 8
REMARK VINA RESULT:      -7.2      2.333      3.145
REMARK  6 active torsions:
REMARK  status: ('A' for Active; 'I' for Inactive)
REMARK    1  A    between atoms: C_2  and  N_3 
REMARK       I    between atoms: N_3  and  C_4 
REMARK    2  A    between atoms: C_4  and  C_5 
REMARK    3  A    between atoms: C_5  and  O_6 
REMARK    4  A    between atoms: O_6  and  C_7 
REMARK    5  A    between atoms: C_9  and  N_10 
REMARK       I    between atoms: N_10  and  C_11 
REMARK    6  A    between atoms: C_11  and  C_12 
ROOT
HETATM    1  N   UNL     1     -42.618  58.223 -54.191  1.00  0.00    -0.322 N 
HETATM    2  C   UNL     1     -41.496  58.449 -53.414  1.00  0.00     0.277 C 
HETATM    3  O   UNL     1     -40.612  59.270 -53.637  1.00  0.00    -0.266 OA
HETATM    4  H   UNL     1     -43.201  57.463 -53.849  1.00  0.00     0.169 HD
ENDROOT
BRANCH   1   5
HETATM    5  C   UNL     1     -42.989  58.870 -55.382  1.00  0.00     0.037 A 
HETATM    6  C   UNL     1     -42.511  58.502 -56.640  1.00  0.00     0.066 A 
HETATM    7  C   UNL     1     -42.936  59.166 -57.796  1.00  0.00     0.071 A 
HETATM    8  C   UNL     1     -43.835  60.224 -57.697  1.00  0.00     0.037 A 
HETATM    9  C   UNL     1     -44.311  60.608 -56.442  1.00  0.00     0.005 A 
HETATM   10  C   UNL     1     -43.889  59.937 -55.291  1.00  0.00     0.029 A 
BRANCH   7  11
HETATM   11  O   UNL     1     -42.377  58.693 -58.948  1.00  0.00    -0.342 OA
BRANCH  11  12
HETATM   12  C   UNL     1     -43.239  58.517 -60.070  1.00  0.00     0.278 C 
BRANCH  12  13
HETATM   13  C   UNL     1     -43.297  57.029 -60.421  1.00  0.00     0.241 C 
HETATM   14  N   UNL     1     -44.555  56.583 -60.767  1.00  0.00    -0.360 N 
HETATM   15  H   UNL     1     -45.324  57.223 -60.585  1.00  0.00     0.162 HD
HETATM   16  O   UNL     1     -42.294  56.321 -60.436  1.00  0.00    -0.271 OA
BRANCH  14  17
HETATM   17  C   UNL     1     -44.849  55.199 -61.051  1.00  0.00     0.118 C 
HETATM   18  C   UNL     1     -44.844  54.358 -59.787  1.00  0.00     0.026 C 
ENDBRANCH  14  17
ENDBRANCH  12  13
ENDBRANCH  11  12
ENDBRANCH   7  11
ENDBRANCH   1   5
BRANCH   2  19
HETATM   19  C   UNL     1     -41.442  57.549 -52.248  1.00  0.00     0.157 A 
HETATM   20  N   UNL     1     -41.615  58.010 -50.989  1.00  0.00    -0.168 NA
HETATM   21  N   UNL     1     -41.486  56.908 -50.226  1.00  0.00    -0.277 N 
HETATM   22  H   UNL     1     -41.564  57.007 -49.220  1.00  0.00     0.189 HD
HETATM   23  C   UNL     1     -41.270  55.754 -50.927  1.00  0.00     0.063 A 
HETATM   24  C   UNL     1     -41.235  56.137 -52.262  1.00  0.00     0.029 A 
HETATM   25  C   UNL     1     -41.109  54.430 -50.511  1.00  0.00     0.032 A 
HETATM   26  C   UNL     1     -41.032  55.152 -53.247  1.00  0.00     0.023 A 
HETATM   27  C   UNL     1     -40.877  53.809 -52.863  1.00  0.00    -0.061 A 
HETATM   28  C   UNL     1     -40.913  53.465 -51.507  1.00  0.00     0.009 A 
HETATM   29  C   UNL     1     -40.676  52.761 -53.920  1.00  0.00     0.048 C 
ENDBRANCH   2  19
TORSDOF 6
ENDMDL
MODEL 9
REMARK VINA RESULT:      -7.2     15.534     20.143
REMARK  6 active torsions:
REMARK  status: ('A' for Active; 'I' for Inactive)
REMARK    1  A    between atoms: C_2  and  N_3 
REMARK       I    between atoms: N_3  and  C_4 
REMARK    2  A    between atoms: C_4  and  C_5 
REMARK    3  A    between atoms: C_5  and  O_6 
REMARK    4  A    between atoms: O_6  and  C_7 
REMARK    5  A    between atoms: C_9  and  N_10 
REMARK       I    between atoms: N_10  and  C_11 
REMARK    6  A    between atoms: C_11  and  C_12 
ROOT
HETATM    1  N   UNL     1     -34.368  40.234 -51.460  1.00  0.00    -0.322 N 
HETATM    2  C   UNL     1     -34.654  41.564 -51.713  1.00  0.00     0.277 C 
HETATM    3  O   UNL     1     -34.457  42.505 -50.952  1.00  0.00    -0.266 OA
HETATM    4  H   UNL     1     -34.655  39.609 -52.209  1.00  0.00     0.169 HD
ENDROOT
BRANCH   1   5
HETATM    5  C   UNL     1     -33.799  39.677 -50.302  1.00  0.00     0.037 A 
HETATM    6  C   UNL     1     -32.533  40.019 -49.826  1.00  0.00     0.066 A 
HETATM    7  C   UNL     1     -32.027  39.450 -48.651  1.00  0.00     0.071 A 
HETATM    8  C   UNL     1     -32.782  38.513 -47.953  1.00  0.00     0.037 A 
HETATM    9  C   UNL     1     -34.045  38.154 -48.429  1.00  0.00     0.005 A 
HETATM   10  C   UNL     1     -34.549  38.731 -49.597  1.00  0.00     0.029 A 
BRANCH   7  11
HETATM   11  O   UNL     1     -30.776  39.883 -48.317  1.00  0.00    -0.342 OA
BRANCH  11  12
HETATM   12  C   UNL     1     -30.154  39.278 -47.186  1.00  0.00     0.278 C 
BRANCH  12  13
HETATM   13  C   UNL     1     -29.806  40.368 -46.170  1.00  0.00     0.241 C 
HETATM   14  N   UNL     1     -29.692  39.910 -44.874  1.00  0.00    -0.360 N 
HETATM   15  H   UNL     1     -30.017  38.963 -44.702  1.00  0.00     0.162 HD
HETATM   16  O   UNL     1     -29.601  41.532 -46.503  1.00  0.00    -0.271 OA
BRANCH  14  17
HETATM   17  C   UNL     1     -29.453  40.784 -43.749  1.00  0.00     0.118 C 
HETATM   18  C   UNL     1     -28.381  40.227 -42.830  1.00  0.00     0.026 C 
ENDBRANCH  14  17
ENDBRANCH  12  13
ENDBRANCH  11  12
ENDBRANCH   7  11
ENDBRANCH   1   5
BRANCH   2  19
HETATM   19  C   UNL     1     -35.275  41.753 -53.036  1.00  0.00     0.157 A 
HETATM   20  N   UNL     1     -36.495  42.321 -53.172  1.00  0.00    -0.168 NA
HETATM   21  N   UNL     1     -36.708  42.304 -54.501  1.00  0.00    -0.277 N 
HETATM   22  H   UNL     1     -37.583  42.674 -54.853  1.00  0.00     0.189 HD
HETATM   23  C   UNL     1     -35.678  41.784 -55.234  1.00  0.00     0.063 A 
HETATM   24  C   UNL     1     -34.717  41.410 -54.303  1.00  0.00     0.029 A 
HETATM   25  C   UNL     1     -35.509  41.615 -56.612  1.00  0.00     0.032 A 
HETATM   26  C   UNL     1     -33.514  40.837 -54.760  1.00  0.00     0.023 A 
HETATM   27  C   UNL     1     -33.308  40.664 -56.140  1.00  0.00    -0.061 A 
HETATM   28  C   UNL     1     -34.304  41.049 -57.045  1.00  0.00     0.009 A 
HETATM   29  C   UNL     1     -32.016  40.067 -56.620  1.00  0.00     0.048 C 
ENDBRANCH   2  19
TORSDOF 6
ENDMDL
MODEL 10
REMARK VINA RESULT:      -7.1      2.410      3.352
REMARK  6 active torsions:
REMARK  status: ('A' for Active; 'I' for Inactive)
REMARK    1  A    between atoms: C_2  and  N_3 
REMARK       I    between atoms: N_3  and  C_4 
REMARK    2  A    between atoms: C_4  and  C_5 
REMARK    3  A    between atoms: C_5  and  O_6 
REMARK    4  A    between atoms: O_6  and  C_7 
REMARK    5  A    between atoms: C_9  and  N_10 
REMARK       I    between atoms: N_10  and  C_11 
REMARK    6  A    between atoms: C_11  and  C_12 
ROOT
HETATM    1  N   UNL     1     -41.849  57.444 -52.495  1.00  0.00    -0.322 N 
HETATM    2  C   UNL     1     -42.582  56.722 -51.571  1.00  0.00     0.277 C 
HETATM    3  O   UNL     1     -43.760  56.902 -51.280  1.00  0.00    -0.266 OA
HETATM    4  H   UNL     1     -40.874  57.159 -52.549  1.00  0.00     0.169 HD
ENDROOT
BRANCH   1   5
HETATM    5  C   UNL     1     -42.279  58.518 -53.292  1.00  0.00     0.037 A 
HETATM    6  C   UNL     1     -42.919  58.358 -54.521  1.00  0.00     0.066 A 
HETATM    7  C   UNL     1     -43.349  59.466 -55.260  1.00  0.00     0.071 A 
HETATM    8  C   UNL     1     -43.122  60.751 -54.779  1.00  0.00     0.037 A 
HETATM    9  C   UNL     1     -42.470  60.923 -53.556  1.00  0.00     0.005 A 
HETATM   10  C   UNL     1     -42.049  59.814 -52.818  1.00  0.00     0.029 A 
BRANCH   7  11
HETATM   11  O   UNL     1     -43.956  59.146 -56.441  1.00  0.00    -0.342 OA
BRANCH  11  12
HETATM   12  C   UNL     1     -44.418  57.807 -56.598  1.00  0.00     0.278 C 
BRANCH  12  13
HETATM   13  C   UNL     1     -44.173  57.365 -58.042  1.00  0.00     0.241 C 
HETATM   14  N   UNL     1     -43.969  56.009 -58.188  1.00  0.00    -0.360 N 
HETATM   15  H   UNL     1     -43.828  55.482 -57.330  1.00  0.00     0.162 HD
HETATM   16  O   UNL     1     -44.205  58.155 -58.982  1.00  0.00    -0.271 OA
BRANCH  14  17
HETATM   17  C   UNL     1     -43.637  55.393 -59.450  1.00  0.00     0.118 C 
HETATM   18  C   UNL     1     -44.709  54.412 -59.890  1.00  0.00     0.026 C 
ENDBRANCH  14  17
ENDBRANCH  12  13
ENDBRANCH  11  12
ENDBRANCH   7  11
ENDBRANCH   1   5
BRANCH   2  19
HETATM   19  C   UNL     1     -41.771  55.682 -50.913  1.00  0.00     0.157 A 
HETATM   20  N   UNL     1     -41.510  55.721 -49.586  1.00  0.00    -0.168 NA
HETATM   21  N   UNL     1     -40.749  54.629 -49.380  1.00  0.00    -0.277 N 
HETATM   22  H   UNL     1     -40.411  54.448 -48.442  1.00  0.00     0.189 HD
HETATM   23  C   UNL     1     -40.532  53.869 -50.496  1.00  0.00     0.063 A 
HETATM   24  C   UNL     1     -41.189  54.532 -51.525  1.00  0.00     0.029 A 
HETATM   25  C   UNL     1     -39.828  52.676 -50.685  1.00  0.00     0.032 A 
HETATM   26  C   UNL     1     -41.153  53.982 -52.820  1.00  0.00     0.023 A 
HETATM   27  C   UNL     1     -40.464  52.777 -53.043  1.00  0.00    -0.061 A 
HETATM   28  C   UNL     1     -39.810  52.143 -51.981  1.00  0.00     0.009 A 
HETATM   29  C   UNL     1     -40.443  52.188 -54.425  1.00  0.00     0.048 C 
ENDBRANCH   2  19
TORSDOF 6
ENDMDL
