MODEL 1
REMARK VINA RESULT:      -8.2      0.000      0.000
REMARK  5 active torsions:
REMARK  status: ('A' for Active; 'I' for Inactive)
REMARK    1  A    between atoms: O_2  and  C_3 
REMARK    2  A    between atoms: C_5  and  C_23 
REMARK    3  A    between atoms: C_11  and  C_14 
REMARK    4  A    between atoms: C_14  and  N_15 
REMARK    5  A    between atoms: C_14  and  C_16 
ROOT
HETATM    1  C   UNL     1     -40.808  54.731 -53.830  1.00  0.00     0.098 A 
HETATM    2  C   UNL     1     -40.443  53.378 -53.741  1.00  0.00     0.051 A 
HETATM    3  C   UNL     1     -40.339  52.735 -52.498  1.00  0.00    -0.019 A 
HETATM    4  C   UNL     1     -40.606  53.464 -51.337  1.00  0.00     0.032 A 
HETATM    5  C   UNL     1     -40.981  54.809 -51.428  1.00  0.00     0.064 A 
HETATM    6  C   UNL     1     -41.240  55.593 -50.208  1.00  0.00     0.259 A 
HETATM    7  O   UNL     1     -41.140  55.105 -49.089  1.00  0.00    -0.267 OA
HETATM    8  N   UNL     1     -41.586  56.899 -50.410  1.00  0.00    -0.309 N 
HETATM    9  C   UNL     1     -41.698  57.469 -51.651  1.00  0.00     0.145 A 
HETATM   10  N   UNL     1     -41.473  56.821 -52.748  1.00  0.00    -0.229 NA
HETATM   11  C   UNL     1     -41.097  55.461 -52.661  1.00  0.00     0.108 A 
HETATM   12  H   UNL     1     -41.725  57.478 -49.593  1.00  0.00     0.170 HD
ENDROOT
BRANCH   9  13
HETATM   13  C   UNL     1     -42.093  58.954 -51.676  1.00  0.00     0.320 C 
BRANCH  13  14
HETATM   14  N   UNL     1     -42.730  59.284 -50.385  1.00  0.00     0.094 N 
HETATM   15  H   UNL     1     -42.250  60.101 -50.004  1.00  0.00     0.314 HD
HETATM   16  H   UNL     1     -42.521  58.525 -49.733  1.00  0.00     0.314 HD
ENDBRANCH  13  14
BRANCH  13  17
HETATM   17  C   UNL     1     -42.981  59.274 -52.869  1.00  0.00    -0.018 A 
HETATM   18  C   UNL     1     -42.447  60.016 -53.938  1.00  0.00     0.011 A 
HETATM   19  C   UNL     1     -43.225  60.316 -55.059  1.00  0.00     0.024 A 
HETATM   20  C   UNL     1     -44.542  59.873 -55.127  1.00  0.00     0.034 A 
HETATM   21 CL   UNL     1     -45.502  60.244 -56.507  1.00  0.00    -0.084 Cl
HETATM   22  C   UNL     1     -45.088  59.127 -54.087  1.00  0.00     0.024 A 
HETATM   23  C   UNL     1     -44.311  58.827 -52.965  1.00  0.00     0.011 A 
ENDBRANCH  13  17
ENDBRANCH   9  13
BRANCH   1  24
HETATM   24  O   UNL     1     -40.932  55.415 -55.016  1.00  0.00    -0.354 OA
HETATM   25  C   UNL     1     -42.044  55.086 -55.839  1.00  0.00     0.210 C 
ENDBRANCH   1  24
BRANCH   3  26
HETATM   26  C   UNL     1     -39.947  51.336 -52.430  1.00  0.00     0.010 A 
HETATM   27  C   UNL     1     -39.774  50.371 -53.450  1.00  0.00     0.152 A 
HETATM   28  N   UNL     1     -39.414  49.175 -52.979  1.00  0.00    -0.187 NA
HETATM   29  N   UNL     1     -39.353  49.367 -51.651  1.00  0.00    -0.289 N 
HETATM   30  H   UNL     1     -39.094  48.583 -51.062  1.00  0.00     0.188 HD
HETATM   31  C   UNL     1     -39.665  50.641 -51.272  1.00  0.00     0.123 A 
ENDBRANCH   3  26
TORSDOF 5
ENDMDL
MODEL 2
REMARK VINA RESULT:      -8.0      1.736      3.129
REMARK  5 active torsions:
REMARK  status: ('A' for Active; 'I' for Inactive)
REMARK    1  A    between atoms: O_2  and  C_3 
REMARK    2  A    between atoms: C_5  and  C_23 
REMARK    3  A    between atoms: C_11  and  C_14 
REMARK    4  A    between atoms: C_14  and  N_15 
REMARK    5  A    between atoms: C_14  and  C_16 
ROOT
HETATM    1  C   UNL     1     -40.450  54.432 -50.559  1.00  0.00     0.098 A 
HETATM    2  C   UNL     1     -40.227  53.159 -51.109  1.00  0.00     0.051 A 
HETATM    3  C   UNL     1     -40.349  52.933 -52.489  1.00  0.00    -0.019 A 
HETATM    4  C   UNL     1     -40.697  54.002 -53.318  1.00  0.00     0.032 A 
HETATM    5  C   UNL     1     -40.907  55.272 -52.770  1.00  0.00     0.064 A 
HETATM    6  C   UNL     1     -41.299  56.399 -53.634  1.00  0.00     0.259 A 
HETATM    7  O   UNL     1     -41.452  56.268 -54.842  1.00  0.00    -0.267 OA
HETATM    8  N   UNL     1     -41.491  57.591 -52.994  1.00  0.00    -0.309 N 
HETATM    9  C   UNL     1     -41.333  57.760 -51.644  1.00  0.00     0.145 A 
HETATM   10  N   UNL     1     -40.997  56.797 -50.847  1.00  0.00    -0.229 NA
HETATM   11  C   UNL     1     -40.781  55.513 -51.398  1.00  0.00     0.108 A 
HETATM   12  H   UNL     1     -41.806  58.374 -53.551  1.00  0.00     0.170 HD
ENDROOT
BRANCH   9  13
HETATM   13  C   UNL     1     -41.599  59.175 -51.107  1.00  0.00     0.320 C 
BRANCH  13  14
HETATM   14  N   UNL     1     -41.269  59.192 -49.667  1.00  0.00     0.094 N 
HETATM   15  H   UNL     1     -41.351  58.234 -49.321  1.00  0.00     0.314 HD
HETATM   16  H   UNL     1     -42.006  59.711 -49.186  1.00  0.00     0.314 HD
ENDBRANCH  13  14
BRANCH  13  17
HETATM   17  C   UNL     1     -43.027  59.617 -51.388  1.00  0.00    -0.018 A 
HETATM   18  C   UNL     1     -43.246  60.850 -52.028  1.00  0.00     0.011 A 
HETATM   19  C   UNL     1     -44.542  61.284 -52.320  1.00  0.00     0.024 A 
HETATM   20  C   UNL     1     -45.633  60.489 -51.980  1.00  0.00     0.034 A 
HETATM   21 CL   UNL     1     -47.229  61.025 -52.336  1.00  0.00    -0.084 Cl
HETATM   22  C   UNL     1     -45.439  59.260 -51.356  1.00  0.00     0.024 A 
HETATM   23  C   UNL     1     -44.143  58.825 -51.065  1.00  0.00     0.011 A 
ENDBRANCH  13  17
ENDBRANCH   9  13
BRANCH   1  24
HETATM   24  O   UNL     1     -40.341  54.717 -49.219  1.00  0.00    -0.354 OA
HETATM   25  C   UNL     1     -40.561  53.646 -48.310  1.00  0.00     0.210 C 
ENDBRANCH   1  24
BRANCH   3  26
HETATM   26  C   UNL     1     -40.126  51.604 -53.034  1.00  0.00     0.010 A 
HETATM   27  C   UNL     1     -39.607  50.431 -52.436  1.00  0.00     0.152 A 
HETATM   28  N   UNL     1     -39.546  49.399 -53.281  1.00  0.00    -0.187 NA
HETATM   29  N   UNL     1     -40.028  49.905 -54.428  1.00  0.00    -0.289 N 
HETATM   30  H   UNL     1     -40.082  49.296 -55.237  1.00  0.00     0.188 HD
HETATM   31  C   UNL     1     -40.386  51.219 -54.333  1.00  0.00     0.123 A 
ENDBRANCH   3  26
TORSDOF 5
ENDMDL
MODEL 3
REMARK VINA RESULT:      -7.9      3.850      8.275
REMARK  5 active torsions:
REMARK  status: ('A' for Active; 'I' for Inactive)
REMARK    1  A    between atoms: O_2  and  C_3 
REMARK    2  A    between atoms: C_5  and  C_23 
REMARK    3  A    between atoms: C_11  and  C_14 
REMARK    4  A    between atoms: C_14  and  N_15 
REMARK    5  A    between atoms: C_14  and  C_16 
ROOT
HETATM    1  C   UNL     1     -40.784  59.360 -51.651  1.00  0.00     0.098 A 
HETATM    2  C   UNL     1     -41.464  60.299 -50.858  1.00  0.00     0.051 A 
HETATM    3  C   UNL     1     -42.865  60.302 -50.777  1.00  0.00    -0.019 A 
HETATM    4  C   UNL     1     -43.583  59.348 -51.501  1.00  0.00     0.032 A 
HETATM    5  C   UNL     1     -42.904  58.407 -52.282  1.00  0.00     0.064 A 
HETATM    6  C   UNL     1     -43.656  57.414 -53.069  1.00  0.00     0.259 A 
HETATM    7  O   UNL     1     -44.880  57.376 -53.069  1.00  0.00    -0.267 OA
HETATM    8  N   UNL     1     -42.895  56.549 -53.805  1.00  0.00    -0.309 N 
HETATM    9  C   UNL     1     -41.525  56.576 -53.826  1.00  0.00     0.145 A 
HETATM   10  N   UNL     1     -40.826  57.435 -53.157  1.00  0.00    -0.229 NA
HETATM   11  C   UNL     1     -41.508  58.386 -52.365  1.00  0.00     0.108 A 
HETATM   12  H   UNL     1     -43.380  55.885 -54.393  1.00  0.00     0.170 HD
ENDROOT
BRANCH   9  13
HETATM   13  C   UNL     1     -40.846  55.527 -54.720  1.00  0.00     0.320 C 
BRANCH  13  14
HETATM   14  N   UNL     1     -41.726  55.267 -55.878  1.00  0.00     0.094 N 
HETATM   15  H   UNL     1     -41.848  54.255 -55.951  1.00  0.00     0.314 HD
HETATM   16  H   UNL     1     -41.216  55.534 -56.721  1.00  0.00     0.314 HD
ENDBRANCH  13  14
BRANCH  13  17
HETATM   17  C   UNL     1     -40.511  54.265 -53.940  1.00  0.00    -0.018 A 
HETATM   18  C   UNL     1     -40.601  54.285 -52.537  1.00  0.00     0.011 A 
HETATM   19  C   UNL     1     -40.319  53.141 -51.785  1.00  0.00     0.024 A 
HETATM   20  C   UNL     1     -39.950  51.963 -52.428  1.00  0.00     0.034 A 
HETATM   21 CL   UNL     1     -39.600  50.554 -51.503  1.00  0.00    -0.084 Cl
HETATM   22  C   UNL     1     -39.866  51.916 -53.816  1.00  0.00     0.024 A 
HETATM   23  C   UNL     1     -40.148  53.060 -54.568  1.00  0.00     0.011 A 
ENDBRANCH  13  17
ENDBRANCH   9  13
BRANCH   1  24
HETATM   24  O   UNL     1     -39.416  59.303 -51.767  1.00  0.00    -0.354 OA
HETATM   25  C   UNL     1     -38.658  59.462 -50.575  1.00  0.00     0.210 C 
ENDBRANCH   1  24
BRANCH   3  26
HETATM   26  C   UNL     1     -43.547  61.292 -49.960  1.00  0.00     0.010 A 
HETATM   27  C   UNL     1     -44.446  61.142 -48.877  1.00  0.00     0.152 A 
HETATM   28  N   UNL     1     -44.871  62.310 -48.388  1.00  0.00    -0.187 NA
HETATM   29  N   UNL     1     -44.244  63.217 -49.155  1.00  0.00    -0.289 N 
HETATM   30  H   UNL     1     -44.412  64.201 -48.972  1.00  0.00     0.188 HD
HETATM   31  C   UNL     1     -43.444  62.660 -50.110  1.00  0.00     0.123 A 
ENDBRANCH   3  26
TORSDOF 5
ENDMDL
MODEL 4
REMARK VINA RESULT:      -7.8      1.334      2.742
REMARK  5 active torsions:
REMARK  status: ('A' for Active; 'I' for Inactive)
REMARK    1  A    between atoms: O_2  and  C_3 
REMARK    2  A    between atoms: C_5  and  C_23 
REMARK    3  A    between atoms: C_11  and  C_14 
REMARK    4  A    between atoms: C_14  and  N_15 
REMARK    5  A    between atoms: C_14  and  C_16 
ROOT
HETATM    1  C   UNL     1     -40.509  54.288 -50.658  1.00  0.00     0.098 A 
HETATM    2  C   UNL     1     -40.030  53.038 -51.082  1.00  0.00     0.051 A 
HETATM    3  C   UNL     1     -40.463  52.465 -52.289  1.00  0.00    -0.019 A 
HETATM    4  C   UNL     1     -41.386  53.162 -53.071  1.00  0.00     0.032 A 
HETATM    5  C   UNL     1     -41.853  54.413 -52.653  1.00  0.00     0.064 A 
HETATM    6  C   UNL     1     -42.846  55.143 -53.461  1.00  0.00     0.259 A 
HETATM    7  O   UNL     1     -43.290  54.691 -54.509  1.00  0.00    -0.267 OA
HETATM    8  N   UNL     1     -43.244  56.348 -52.954  1.00  0.00    -0.309 N 
HETATM    9  C   UNL     1     -42.767  56.871 -51.781  1.00  0.00     0.145 A 
HETATM   10  N   UNL     1     -41.901  56.262 -51.038  1.00  0.00    -0.229 NA
HETATM   11  C   UNL     1     -41.424  54.999 -51.458  1.00  0.00     0.108 A 
HETATM   12  H   UNL     1     -43.959  56.854 -53.460  1.00  0.00     0.170 HD
ENDROOT
BRANCH   9  13
HETATM   13  C   UNL     1     -43.338  58.238 -51.373  1.00  0.00     0.320 C 
BRANCH  13  14
HETATM   14  N   UNL     1     -44.627  58.013 -50.687  1.00  0.00     0.094 N 
HETATM   15  H   UNL     1     -45.215  57.457 -51.310  1.00  0.00     0.314 HD
HETATM   16  H   UNL     1     -45.100  58.915 -50.611  1.00  0.00     0.314 HD
ENDBRANCH  13  14
BRANCH  13  17
HETATM   17  C   UNL     1     -43.463  59.169 -52.568  1.00  0.00    -0.018 A 
HETATM   18  C   UNL     1     -42.300  59.740 -53.113  1.00  0.00     0.011 A 
HETATM   19  C   UNL     1     -42.370  60.587 -54.223  1.00  0.00     0.024 A 
HETATM   20  C   UNL     1     -43.604  60.868 -54.803  1.00  0.00     0.034 A 
HETATM   21 CL   UNL     1     -43.692  61.913 -56.167  1.00  0.00    -0.084 Cl
HETATM   22  C   UNL     1     -44.768  60.305 -54.288  1.00  0.00     0.024 A 
HETATM   23  C   UNL     1     -44.697  59.458 -53.178  1.00  0.00     0.011 A 
ENDBRANCH  13  17
ENDBRANCH   9  13
BRANCH   1  24
HETATM   24  O   UNL     1     -40.120  54.903 -49.492  1.00  0.00    -0.354 OA
HETATM   25  C   UNL     1     -40.482  54.266 -48.273  1.00  0.00     0.210 C 
ENDBRANCH   1  24
BRANCH   3  26
HETATM   26  C   UNL     1     -39.963  51.164 -52.700  1.00  0.00     0.010 A 
HETATM   27  C   UNL     1     -39.762  50.611 -53.987  1.00  0.00     0.152 A 
HETATM   28  N   UNL     1     -39.290  49.363 -53.950  1.00  0.00    -0.187 NA
HETATM   29  N   UNL     1     -39.184  49.108 -52.636  1.00  0.00    -0.289 N 
HETATM   30  H   UNL     1     -38.840  48.198 -52.348  1.00  0.00     0.188 HD
HETATM   31  C   UNL     1     -39.576  50.151 -51.847  1.00  0.00     0.123 A 
ENDBRANCH   3  26
TORSDOF 5
ENDMDL
MODEL 5
REMARK VINA RESULT:      -7.8      2.139      3.571
REMARK  5 active torsions:
REMARK  status: ('A' for Active; 'I' for Inactive)
REMARK    1  A    between atoms: O_2  and  C_3 
REMARK    2  A    between atoms: C_5  and  C_23 
REMARK    3  A    between atoms: C_11  and  C_14 
REMARK    4  A    between atoms: C_14  and  N_15 
REMARK    5  A    between atoms: C_14  and  C_16 
ROOT
HETATM    1  C   UNL     1     -40.970  55.057 -51.943  1.00  0.00     0.098 A 
HETATM    2  C   UNL     1     -40.532  53.725 -52.016  1.00  0.00     0.051 A 
HETATM    3  C   UNL     1     -40.614  52.999 -53.215  1.00  0.00    -0.019 A 
HETATM    4  C   UNL     1     -41.142  53.625 -54.347  1.00  0.00     0.032 A 
HETATM    5  C   UNL     1     -41.566  54.956 -54.275  1.00  0.00     0.064 A 
HETATM    6  C   UNL     1     -42.147  55.615 -55.457  1.00  0.00     0.259 A 
HETATM    7  O   UNL     1     -42.276  55.034 -56.527  1.00  0.00    -0.267 OA
HETATM    8  N   UNL     1     -42.540  56.911 -55.273  1.00  0.00    -0.309 N 
HETATM    9  C   UNL     1     -42.412  57.580 -54.085  1.00  0.00     0.145 A 
HETATM   10  N   UNL     1     -41.915  57.038 -53.020  1.00  0.00    -0.229 NA
HETATM   11  C   UNL     1     -41.482  55.694 -53.089  1.00  0.00     0.108 A 
HETATM   12  H   UNL     1     -42.986  57.379 -56.052  1.00  0.00     0.170 HD
ENDROOT
BRANCH   9  13
HETATM   13  C   UNL     1     -42.917  59.031 -54.072  1.00  0.00     0.320 C 
BRANCH  13  14
HETATM   14  N   UNL     1     -41.777  59.920 -54.378  1.00  0.00     0.094 N 
HETATM   15  H   UNL     1     -41.139  59.403 -54.986  1.00  0.00     0.314 HD
HETATM   16  H   UNL     1     -41.257  60.067 -53.511  1.00  0.00     0.314 HD
ENDBRANCH  13  14
BRANCH  13  17
HETATM   17  C   UNL     1     -43.591  59.374 -52.753  1.00  0.00    -0.018 A 
HETATM   18  C   UNL     1     -42.958  60.273 -51.875  1.00  0.00     0.011 A 
HETATM   19  C   UNL     1     -43.552  60.628 -50.662  1.00  0.00     0.024 A 
HETATM   20  C   UNL     1     -44.789  60.093 -50.313  1.00  0.00     0.034 A 
HETATM   21 CL   UNL     1     -45.521  60.527 -48.818  1.00  0.00    -0.084 Cl
HETATM   22  C   UNL     1     -45.440  59.211 -51.171  1.00  0.00     0.024 A 
HETATM   23  C   UNL     1     -44.846  58.856 -52.385  1.00  0.00     0.011 A 
ENDBRANCH  13  17
ENDBRANCH   9  13
BRANCH   1  24
HETATM   24  O   UNL     1     -40.911  55.822 -50.802  1.00  0.00    -0.354 OA
HETATM   25  C   UNL     1     -41.352  55.215 -49.594  1.00  0.00     0.210 C 
ENDBRANCH   1  24
BRANCH   3  26
HETATM   26  C   UNL     1     -40.167  51.617 -53.263  1.00  0.00     0.010 A 
HETATM   27  C   UNL     1     -40.144  50.685 -54.328  1.00  0.00     0.152 A 
HETATM   28  N   UNL     1     -39.663  49.493 -53.966  1.00  0.00    -0.187 NA
HETATM   29  N   UNL     1     -39.372  49.654 -52.665  1.00  0.00    -0.289 N 
HETATM   30  H   UNL     1     -38.984  48.867 -52.157  1.00  0.00     0.188 HD
HETATM   31  C   UNL     1     -39.658  50.904 -52.196  1.00  0.00     0.123 A 
ENDBRANCH   3  26
TORSDOF 5
ENDMDL
MODEL 6
REMARK VINA RESULT:      -7.8      2.142      2.525
REMARK  5 active torsions:
REMARK  status: ('A' for Active; 'I' for Inactive)
REMARK    1  A    between atoms: O_2  and  C_3 
REMARK    2  A    between atoms: C_5  and  C_23 
REMARK    3  A    between atoms: C_11  and  C_14 
REMARK    4  A    between atoms: C_14  and  N_15 
REMARK    5  A    between atoms: C_14  and  C_16 
ROOT
HETATM    1  C   UNL     1     -41.303  54.384 -54.598  1.00  0.00     0.098 A 
HETATM    2  C   UNL     1     -40.841  53.088 -54.316  1.00  0.00     0.051 A 
HETATM    3  C   UNL     1     -40.501  52.706 -53.009  1.00  0.00    -0.019 A 
HETATM    4  C   UNL     1     -40.630  53.641 -51.979  1.00  0.00     0.032 A 
HETATM    5  C   UNL     1     -41.100  54.928 -52.259  1.00  0.00     0.064 A 
HETATM    6  C   UNL     1     -41.215  55.928 -51.183  1.00  0.00     0.259 A 
HETATM    7  O   UNL     1     -40.909  55.674 -50.025  1.00  0.00    -0.267 OA
HETATM    8  N   UNL     1     -41.673  57.156 -51.569  1.00  0.00    -0.309 N 
HETATM    9  C   UNL     1     -42.016  57.466 -52.859  1.00  0.00     0.145 A 
HETATM   10  N   UNL     1     -41.924  56.622 -53.835  1.00  0.00    -0.229 NA
HETATM   11  C   UNL     1     -41.451  55.320 -53.556  1.00  0.00     0.108 A 
HETATM   12  H   UNL     1     -41.719  57.880 -50.864  1.00  0.00     0.170 HD
ENDROOT
BRANCH   9  13
HETATM   13  C   UNL     1     -42.505  58.903 -53.098  1.00  0.00     0.320 C 
BRANCH  13  14
HETATM   14  N   UNL     1     -41.329  59.750 -53.386  1.00  0.00     0.094 N 
HETATM   15  H   UNL     1     -40.596  59.142 -53.757  1.00  0.00     0.314 HD
HETATM   16  H   UNL     1     -40.966  60.089 -52.494  1.00  0.00     0.314 HD
ENDBRANCH  13  14
BRANCH  13  17
HETATM   17  C   UNL     1     -43.324  59.415 -51.924  1.00  0.00    -0.018 A 
HETATM   18  C   UNL     1     -42.789  60.429 -51.109  1.00  0.00     0.011 A 
HETATM   19  C   UNL     1     -43.517  60.939 -50.030  1.00  0.00     0.024 A 
HETATM   20  C   UNL     1     -44.789  60.445 -49.758  1.00  0.00     0.034 A 
HETATM   21 CL   UNL     1     -45.686  61.071 -48.428  1.00  0.00    -0.084 Cl
HETATM   22  C   UNL     1     -45.344  59.450 -50.558  1.00  0.00     0.024 A 
HETATM   23  C   UNL     1     -44.616  58.940 -51.636  1.00  0.00     0.011 A 
ENDBRANCH  13  17
ENDBRANCH   9  13
BRANCH   1  24
HETATM   24  O   UNL     1     -41.656  54.816 -55.854  1.00  0.00    -0.354 OA
HETATM   25  C   UNL     1     -43.005  54.610 -56.252  1.00  0.00     0.210 C 
ENDBRANCH   1  24
BRANCH   3  26
HETATM   26  C   UNL     1     -40.013  51.362 -52.744  1.00  0.00     0.010 A 
HETATM   27  C   UNL     1     -39.856  50.247 -53.601  1.00  0.00     0.152 A 
HETATM   28  N   UNL     1     -39.382  49.169 -52.970  1.00  0.00    -0.187 NA
HETATM   29  N   UNL     1     -39.231  49.589 -51.704  1.00  0.00    -0.289 N 
HETATM   30  H   UNL     1     -38.875  48.932 -51.018  1.00  0.00     0.188 HD
HETATM   31  C   UNL     1     -39.596  50.891 -51.516  1.00  0.00     0.123 A 
ENDBRANCH   3  26
TORSDOF 5
ENDMDL
MODEL 7
REMARK VINA RESULT:      -7.8      4.670      8.722
REMARK  5 active torsions:
REMARK  status: ('A' for Active; 'I' for Inactive)
REMARK    1  A    between atoms: O_2  and  C_3 
REMARK    2  A    between atoms: C_5  and  C_23 
REMARK    3  A    between atoms: C_11  and  C_14 
REMARK    4  A    between atoms: C_14  and  N_15 
REMARK    5  A    between atoms: C_14  and  C_16 
ROOT
HETATM    1  C   UNL     1     -42.161  59.342 -56.220  1.00  0.00     0.098 A 
HETATM    2  C   UNL     1     -41.886  60.072 -57.388  1.00  0.00     0.051 A 
HETATM    3  C   UNL     1     -42.071  59.505 -58.659  1.00  0.00    -0.019 A 
HETATM    4  C   UNL     1     -42.539  58.192 -58.749  1.00  0.00     0.032 A 
HETATM    5  C   UNL     1     -42.824  57.471 -57.585  1.00  0.00     0.064 A 
HETATM    6  C   UNL     1     -43.293  56.077 -57.671  1.00  0.00     0.259 A 
HETATM    7  O   UNL     1     -43.450  55.509 -58.744  1.00  0.00    -0.267 OA
HETATM    8  N   UNL     1     -43.530  55.461 -56.474  1.00  0.00    -0.309 N 
HETATM    9  C   UNL     1     -43.356  56.073 -55.260  1.00  0.00     0.145 A 
HETATM   10  N   UNL     1     -42.939  57.292 -55.138  1.00  0.00    -0.229 NA
HETATM   11  C   UNL     1     -42.652  58.026 -56.312  1.00  0.00     0.108 A 
HETATM   12  H   UNL     1     -43.809  54.489 -56.495  1.00  0.00     0.170 HD
ENDROOT
BRANCH   9  13
HETATM   13  C   UNL     1     -43.668  55.216 -54.023  1.00  0.00     0.320 C 
BRANCH  13  14
HETATM   14  N   UNL     1     -44.057  56.121 -52.921  1.00  0.00     0.094 N 
HETATM   15  H   UNL     1     -43.677  55.733 -52.057  1.00  0.00     0.314 HD
HETATM   16  H   UNL     1     -45.072  56.060 -52.815  1.00  0.00     0.314 HD
ENDBRANCH  13  14
BRANCH  13  17
HETATM   17  C   UNL     1     -42.498  54.317 -53.660  1.00  0.00    -0.018 A 
HETATM   18  C   UNL     1     -42.046  54.289 -52.328  1.00  0.00     0.011 A 
HETATM   19  C   UNL     1     -40.984  53.462 -51.949  1.00  0.00     0.024 A 
HETATM   20  C   UNL     1     -40.366  52.651 -52.896  1.00  0.00     0.034 A 
HETATM   21 CL   UNL     1     -39.057  51.635 -52.431  1.00  0.00    -0.084 Cl
HETATM   22  C   UNL     1     -40.804  52.653 -54.217  1.00  0.00     0.024 A 
HETATM   23  C   UNL     1     -41.865  53.479 -54.596  1.00  0.00     0.011 A 
ENDBRANCH  13  17
ENDBRANCH   9  13
BRANCH   1  24
HETATM   24  O   UNL     1     -42.006  59.842 -54.949  1.00  0.00    -0.354 OA
HETATM   25  C   UNL     1     -42.882  60.891 -54.555  1.00  0.00     0.210 C 
ENDBRANCH   1  24
BRANCH   3  26
HETATM   26  C   UNL     1     -41.767  60.276 -59.853  1.00  0.00     0.010 A 
HETATM   27  C   UNL     1     -41.280  61.596 -60.007  1.00  0.00     0.152 A 
HETATM   28  N   UNL     1     -41.139  61.953 -61.286  1.00  0.00    -0.187 NA
HETATM   29  N   UNL     1     -41.534  60.861 -61.961  1.00  0.00    -0.289 N 
HETATM   30  H   UNL     1     -41.517  60.889 -62.974  1.00  0.00     0.188 HD
HETATM   31  C   UNL     1     -41.922  59.833 -61.151  1.00  0.00     0.123 A 
ENDBRANCH   3  26
TORSDOF 5
ENDMDL
MODEL 8
REMARK VINA RESULT:      -7.6      2.217      3.606
REMARK  5 active torsions:
REMARK  status: ('A' for Active; 'I' for Inactive)
REMARK    1  A    between atoms: O_2  and  C_3 
REMARK    2  A    between atoms: C_5  and  C_23 
REMARK    3  A    between atoms: C_11  and  C_14 
REMARK    4  A    between atoms: C_14  and  N_15 
REMARK    5  A    between atoms: C_14  and  C_16 
ROOT
HETATM    1  C   UNL     1     -41.172  54.873 -52.419  1.00  0.00     0.098 A 
HETATM    2  C   UNL     1     -40.539  53.624 -52.310  1.00  0.00     0.051 A 
HETATM    3  C   UNL     1     -40.805  52.593 -53.225  1.00  0.00    -0.019 A 
HETATM    4  C   UNL     1     -41.716  52.827 -54.257  1.00  0.00     0.032 A 
HETATM    5  C   UNL     1     -42.338  54.075 -54.371  1.00  0.00     0.064 A 
HETATM    6  C   UNL     1     -43.319  54.321 -55.442  1.00  0.00     0.259 A 
HETATM    7  O   UNL     1     -43.622  53.459 -56.257  1.00  0.00    -0.267 OA
HETATM    8  N   UNL     1     -43.875  55.570 -55.454  1.00  0.00    -0.309 N 
HETATM    9  C   UNL     1     -43.558  56.549 -54.549  1.00  0.00     0.145 A 
HETATM   10  N   UNL     1     -42.708  56.374 -53.589  1.00  0.00    -0.229 NA
HETATM   11  C   UNL     1     -42.076  55.115 -53.472  1.00  0.00     0.108 A 
HETATM   12  H   UNL     1     -44.587  55.758 -56.147  1.00  0.00     0.170 HD
ENDROOT
BRANCH   9  13
HETATM   13  C   UNL     1     -44.292  57.887 -54.721  1.00  0.00     0.320 C 
BRANCH  13  14
HETATM   14  N   UNL     1     -45.622  57.613 -55.306  1.00  0.00     0.094 N 
HETATM   15  H   UNL     1     -46.270  58.311 -54.939  1.00  0.00     0.314 HD
HETATM   16  H   UNL     1     -45.949  56.722 -54.926  1.00  0.00     0.314 HD
ENDBRANCH  13  14
BRANCH  13  17
HETATM   17  C   UNL     1     -43.477  58.867 -55.550  1.00  0.00    -0.018 A 
HETATM   18  C   UNL     1     -42.808  58.401 -56.696  1.00  0.00     0.011 A 
HETATM   19  C   UNL     1     -42.063  59.273 -57.494  1.00  0.00     0.024 A 
HETATM   20  C   UNL     1     -41.982  60.621 -57.159  1.00  0.00     0.034 A 
HETATM   21 CL   UNL     1     -41.063  61.695 -58.140  1.00  0.00    -0.084 Cl
HETATM   22  C   UNL     1     -42.646  61.108 -56.037  1.00  0.00     0.024 A 
HETATM   23  C   UNL     1     -43.391  60.236 -55.238  1.00  0.00     0.011 A 
ENDBRANCH  13  17
ENDBRANCH   9  13
BRANCH   1  24
HETATM   24  O   UNL     1     -40.950  55.923 -51.560  1.00  0.00    -0.354 OA
HETATM   25  C   UNL     1     -41.096  55.662 -50.170  1.00  0.00     0.210 C 
ENDBRANCH   1  24
BRANCH   3  26
HETATM   26  C   UNL     1     -40.147  51.305 -53.084  1.00  0.00     0.010 A 
HETATM   27  C   UNL     1     -39.914  50.273 -54.024  1.00  0.00     0.152 A 
HETATM   28  N   UNL     1     -39.278  49.224 -53.499  1.00  0.00    -0.187 NA
HETATM   29  N   UNL     1     -39.096  49.578 -52.216  1.00  0.00    -0.289 N 
HETATM   30  H   UNL     1     -38.622  48.927 -51.599  1.00  0.00     0.188 HD
HETATM   31  C   UNL     1     -39.600  50.811 -51.917  1.00  0.00     0.123 A 
ENDBRANCH   3  26
TORSDOF 5
ENDMDL
MODEL 9
REMARK VINA RESULT:      -7.4      3.193      4.832
REMARK  5 active torsions:
REMARK  status: ('A' for Active; 'I' for Inactive)
REMARK    1  A    between atoms: O_2  and  C_3 
REMARK    2  A    between atoms: C_5  and  C_23 
REMARK    3  A    between atoms: C_11  and  C_14 
REMARK    4  A    between atoms: C_14  and  N_15 
REMARK    5  A    between atoms: C_14  and  C_16 
ROOT
HETATM    1  C   UNL     1     -43.380  56.377 -52.743  1.00  0.00     0.098 A 
HETATM    2  C   UNL     1     -42.876  55.862 -51.537  1.00  0.00     0.051 A 
HETATM    3  C   UNL     1     -41.787  54.976 -51.526  1.00  0.00    -0.019 A 
HETATM    4  C   UNL     1     -41.205  54.609 -52.741  1.00  0.00     0.032 A 
HETATM    5  C   UNL     1     -41.701  55.132 -53.940  1.00  0.00     0.064 A 
HETATM    6  C   UNL     1     -41.108  54.730 -55.227  1.00  0.00     0.259 A 
HETATM    7  O   UNL     1     -40.176  53.939 -55.295  1.00  0.00    -0.267 OA
HETATM    8  N   UNL     1     -41.677  55.290 -56.336  1.00  0.00    -0.309 N 
HETATM    9  C   UNL     1     -42.725  56.172 -56.287  1.00  0.00     0.145 A 
HETATM   10  N   UNL     1     -43.280  56.547 -55.180  1.00  0.00    -0.229 NA
HETATM   11  C   UNL     1     -42.780  56.023 -53.966  1.00  0.00     0.108 A 
HETATM   12  H   UNL     1     -41.325  55.000 -57.239  1.00  0.00     0.170 HD
ENDROOT
BRANCH   9  13
HETATM   13  C   UNL     1     -43.232  56.691 -57.641  1.00  0.00     0.320 C 
BRANCH  13  14
HETATM   14  N   UNL     1     -42.490  55.991 -58.711  1.00  0.00     0.094 N 
HETATM   15  H   UNL     1     -42.993  55.126 -58.919  1.00  0.00     0.314 HD
HETATM   16  H   UNL     1     -41.595  55.690 -58.321  1.00  0.00     0.314 HD
ENDBRANCH  13  14
BRANCH  13  17
HETATM   17  C   UNL     1     -43.114  58.203 -57.738  1.00  0.00    -0.018 A 
HETATM   18  C   UNL     1     -41.857  58.775 -58.006  1.00  0.00     0.011 A 
HETATM   19  C   UNL     1     -41.710  60.160 -58.120  1.00  0.00     0.024 A 
HETATM   20  C   UNL     1     -42.819  60.989 -57.973  1.00  0.00     0.034 A 
HETATM   21 CL   UNL     1     -42.638  62.695 -58.110  1.00  0.00    -0.084 Cl
HETATM   22  C   UNL     1     -44.075  60.445 -57.719  1.00  0.00     0.024 A 
HETATM   23  C   UNL     1     -44.222  59.060 -57.604  1.00  0.00     0.011 A 
ENDBRANCH  13  17
ENDBRANCH   9  13
BRANCH   1  24
HETATM   24  O   UNL     1     -44.438  57.251 -52.820  1.00  0.00    -0.354 OA
HETATM   25  C   UNL     1     -44.910  57.804 -51.598  1.00  0.00     0.210 C 
ENDBRANCH   1  24
BRANCH   3  26
HETATM   26  C   UNL     1     -41.291  54.446 -50.266  1.00  0.00     0.010 A 
HETATM   27  C   UNL     1     -41.263  55.011 -48.969  1.00  0.00     0.152 A 
HETATM   28  N   UNL     1     -40.706  54.203 -48.062  1.00  0.00    -0.187 NA
HETATM   29  N   UNL     1     -40.375  53.114 -48.774  1.00  0.00    -0.289 N 
HETATM   30  H   UNL     1     -39.926  52.342 -48.293  1.00  0.00     0.188 HD
HETATM   31  C   UNL     1     -40.701  53.211 -50.096  1.00  0.00     0.123 A 
ENDBRANCH   3  26
TORSDOF 5
ENDMDL
MODEL 10
REMARK VINA RESULT:      -7.2     15.661     17.283
REMARK  5 active torsions:
REMARK  status: ('A' for Active; 'I' for Inactive)
REMARK    1  A    between atoms: O_2  and  C_3 
REMARK    2  A    between atoms: C_5  and  C_23 
REMARK    3  A    between atoms: C_11  and  C_14 
REMARK    4  A    between atoms: C_14  and  N_15 
REMARK    5  A    between atoms: C_14  and  C_16 
ROOT
HETATM    1  C   UNL     1     -36.497  40.278 -51.606  1.00  0.00     0.098 A 
HETATM    2  C   UNL     1     -35.467  39.956 -50.708  1.00  0.00     0.051 A 
HETATM    3  C   UNL     1     -34.120  40.008 -51.100  1.00  0.00    -0.019 A 
HETATM    4  C   UNL     1     -33.813  40.388 -52.409  1.00  0.00     0.032 A 
HETATM    5  C   UNL     1     -34.841  40.718 -53.299  1.00  0.00     0.064 A 
HETATM    6  C   UNL     1     -34.527  41.095 -54.688  1.00  0.00     0.259 A 
HETATM    7  O   UNL     1     -33.378  41.133 -55.107  1.00  0.00    -0.267 OA
HETATM    8  N   UNL     1     -35.606  41.387 -55.475  1.00  0.00    -0.309 N 
HETATM    9  C   UNL     1     -36.901  41.345 -55.031  1.00  0.00     0.145 A 
HETATM   10  N   UNL     1     -37.222  41.013 -53.823  1.00  0.00    -0.229 NA
HETATM   11  C   UNL     1     -36.187  40.680 -52.919  1.00  0.00     0.108 A 
HETATM   12  H   UNL     1     -35.429  41.604 -56.447  1.00  0.00     0.170 HD
ENDROOT
BRANCH   9  13
HETATM   13  C   UNL     1     -37.979  41.700 -56.067  1.00  0.00     0.320 C 
BRANCH  13  14
HETATM   14  N   UNL     1     -39.299  41.360 -55.495  1.00  0.00     0.094 N 
HETATM   15  H   UNL     1     -39.552  42.103 -54.841  1.00  0.00     0.314 HD
HETATM   16  H   UNL     1     -39.180  40.526 -54.916  1.00  0.00     0.314 HD
ENDBRANCH  13  14
BRANCH  13  17
HETATM   17  C   UNL     1     -37.721  41.013 -57.398  1.00  0.00    -0.018 A 
HETATM   18  C   UNL     1     -37.371  41.794 -58.514  1.00  0.00     0.011 A 
HETATM   19  C   UNL     1     -37.109  41.199 -59.751  1.00  0.00     0.024 A 
HETATM   20  C   UNL     1     -37.187  39.816 -59.885  1.00  0.00     0.034 A 
HETATM   21 CL   UNL     1     -36.866  39.082 -61.408  1.00  0.00    -0.084 Cl
HETATM   22  C   UNL     1     -37.519  39.021 -58.792  1.00  0.00     0.024 A 
HETATM   23  C   UNL     1     -37.782  39.616 -57.555  1.00  0.00     0.011 A 
ENDBRANCH  13  17
ENDBRANCH   9  13
BRANCH   1  24
HETATM   24  O   UNL     1     -37.833  40.252 -51.281  1.00  0.00    -0.354 OA
HETATM   25  C   UNL     1     -38.400  38.984 -50.977  1.00  0.00     0.210 C 
ENDBRANCH   1  24
BRANCH   3  26
HETATM   26  C   UNL     1     -33.071  39.658 -50.156  1.00  0.00     0.010 A 
HETATM   27  C   UNL     1     -31.682  39.928 -50.171  1.00  0.00     0.152 A 
HETATM   28  N   UNL     1     -31.042  39.421 -49.113  1.00  0.00    -0.187 NA
HETATM   29  N   UNL     1     -32.020  38.824 -48.413  1.00  0.00    -0.289 N 
HETATM   30  H   UNL     1     -31.775  38.356 -47.547  1.00  0.00     0.188 HD
HETATM   31  C   UNL     1     -33.250  38.935 -48.995  1.00  0.00     0.123 A 
ENDBRANCH   3  26
TORSDOF 5
ENDMDL
