MODEL 1
REMARK VINA RESULT:      -8.6      0.000      0.000
REMARK  8 active torsions:
REMARK  status: ('A' for Active; 'I' for Inactive)
REMARK    1  A    between atoms: C_2  and  N_3 
REMARK    2  A    between atoms: N_3  and  N_4 
REMARK       I    between atoms: N_4  and  C_5 
REMARK    3  A    between atoms: C_5  and  C_6 
REMARK       I    between atoms: C_6  and  N_7 
REMARK    4  A    between atoms: N_7  and  C_8 
REMARK    5  A    between atoms: C_16  and  C_17 
REMARK       I    between atoms: C_17  and  N_18 
REMARK    6  A    between atoms: N_18  and  C_19 
REMARK    7  A    between atoms: C_22  and  N_23 
REMARK    8  A    between atoms: N_23  and  C_24 
ROOT
HETATM    1  C   UNL     1     -44.809  61.284 -53.803  1.00  0.00     0.063 C 
HETATM    2  C   UNL     1     -43.825  60.220 -54.249  1.00  0.00     0.007 C 
HETATM    3  C   UNL     1     -44.298  59.210 -55.011  1.00  0.00     0.094 C 
ENDROOT
BRANCH   3   4
HETATM    4  C   UNL     1     -43.545  58.008 -55.474  1.00  0.00     0.247 C 
HETATM    5  N   UNL     1     -43.200  57.184 -54.419  1.00  0.00    -0.324 N 
HETATM    6  H   UNL     1     -43.655  57.347 -53.530  1.00  0.00     0.169 HD
HETATM    7  O   UNL     1     -43.312  57.802 -56.658  1.00  0.00    -0.268 OA
BRANCH   5   8
HETATM    8  C   UNL     1     -42.374  56.043 -54.486  1.00  0.00     0.035 A 
HETATM    9  C   UNL     1     -40.983  56.106 -54.568  1.00  0.00     0.031 A 
HETATM   10  C   UNL     1     -40.220  54.935 -54.629  1.00  0.00     0.026 A 
HETATM   11  C   UNL     1     -40.833  53.676 -54.659  1.00  0.00     0.012 A 
HETATM   12  C   UNL     1     -42.224  53.617 -54.524  1.00  0.00     0.026 A 
HETATM   13  C   UNL     1     -42.987  54.788 -54.430  1.00  0.00     0.031 A 
BRANCH  11  14
HETATM   14  N   UNL     1     -40.028  52.507 -54.745  1.00  0.00    -0.260 NA
HETATM   15  H   UNL     1     -40.365  51.950 -55.529  1.00  0.00     0.134 HD
BRANCH  14  16
HETATM   16  C   UNL     1     -39.836  51.632 -53.643  1.00  0.00     0.012 A 
HETATM   17  C   UNL     1     -39.813  52.125 -52.336  1.00  0.00     0.024 A 
HETATM   18  C   UNL     1     -39.679  51.251 -51.254  1.00  0.00     0.002 A 
HETATM   19  C   UNL     1     -39.583  49.876 -51.473  1.00  0.00     0.000 A 
HETATM   20  C   UNL     1     -39.626  49.375 -52.773  1.00  0.00     0.002 A 
HETATM   21  C   UNL     1     -39.757  50.248 -53.853  1.00  0.00     0.024 A 
ENDBRANCH  14  16
ENDBRANCH  11  14
ENDBRANCH   5   8
ENDBRANCH   3   4
BRANCH   2  22
HETATM   22  N   UNL     1     -42.528  60.428 -53.794  1.00  0.00    -0.207 NA
HETATM   23  H   UNL     1     -41.827  59.947 -54.370  1.00  0.00     0.152 HD
BRANCH  22  24
HETATM   24  N   UNL     1     -42.215  60.272 -52.429  1.00  0.00    -0.279 N 
HETATM   25  C   UNL     1     -41.115  59.496 -52.112  1.00  0.00     0.323 C 
HETATM   26  O   UNL     1     -40.272  59.127 -52.917  1.00  0.00    -0.261 OA
HETATM   27  H   UNL     1     -42.982  60.429 -51.767  1.00  0.00     0.184 HD
BRANCH  25  28
HETATM   28  C   UNL     1     -41.081  59.056 -50.645  1.00  0.00     0.311 C 
HETATM   29  N   UNL     1     -41.557  57.828 -50.258  1.00  0.00    -0.348 N 
HETATM   30  H   UNL     1     -41.465  57.699 -49.257  1.00  0.00     0.163 HD
HETATM   31  O   UNL     1     -40.610  59.826 -49.811  1.00  0.00    -0.262 OA
BRANCH  29  32
HETATM   32  C   UNL     1     -42.036  56.673 -51.022  1.00  0.00     0.084 C 
HETATM   33  C   UNL     1     -41.239  55.378 -50.784  1.00  0.00     0.025 C 
HETATM   34  C   UNL     1     -42.024  54.122 -50.408  1.00  0.00     0.002 C 
HETATM   35  C   UNL     1     -43.433  54.095 -50.972  1.00  0.00     0.000 C 
HETATM   36  C   UNL     1     -44.194  55.331 -50.524  1.00  0.00     0.002 C 
HETATM   37  C   UNL     1     -43.568  56.596 -51.091  1.00  0.00     0.025 C 
ENDBRANCH  29  32
ENDBRANCH  25  28
ENDBRANCH  22  24
ENDBRANCH   2  22
TORSDOF 8
ENDMDL
MODEL 2
REMARK VINA RESULT:      -8.1      2.028      3.994
REMARK  8 active torsions:
REMARK  status: ('A' for Active; 'I' for Inactive)
REMARK    1  A    between atoms: C_2  and  N_3 
REMARK    2  A    between atoms: N_3  and  N_4 
REMARK       I    between atoms: N_4  and  C_5 
REMARK    3  A    between atoms: C_5  and  C_6 
REMARK       I    between atoms: C_6  and  N_7 
REMARK    4  A    between atoms: N_7  and  C_8 
REMARK    5  A    between atoms: C_16  and  C_17 
REMARK       I    between atoms: C_17  and  N_18 
REMARK    6  A    between atoms: N_18  and  C_19 
REMARK    7  A    between atoms: C_22  and  N_23 
REMARK    8  A    between atoms: N_23  and  C_24 
ROOT
HETATM    1  C   UNL     1     -46.602  60.730 -51.417  1.00  0.00     0.063 C 
HETATM    2  C   UNL     1     -45.772  59.640 -52.069  1.00  0.00     0.007 C 
HETATM    3  C   UNL     1     -45.336  58.631 -51.285  1.00  0.00     0.094 C 
ENDROOT
BRANCH   3   4
HETATM    4  C   UNL     1     -44.426  57.516 -51.680  1.00  0.00     0.247 C 
HETATM    5  N   UNL     1     -43.710  57.034 -50.600  1.00  0.00    -0.324 N 
HETATM    6  H   UNL     1     -44.017  57.308 -49.676  1.00  0.00     0.169 HD
HETATM    7  O   UNL     1     -44.376  57.093 -52.828  1.00  0.00    -0.268 OA
BRANCH   5   8
HETATM    8  C   UNL     1     -42.671  56.082 -50.646  1.00  0.00     0.035 A 
HETATM    9  C   UNL     1     -41.353  56.366 -50.289  1.00  0.00     0.031 A 
HETATM   10  C   UNL     1     -40.369  55.374 -50.355  1.00  0.00     0.026 A 
HETATM   11  C   UNL     1     -40.670  54.090 -50.825  1.00  0.00     0.012 A 
HETATM   12  C   UNL     1     -42.002  53.795 -51.131  1.00  0.00     0.026 A 
HETATM   13  C   UNL     1     -42.995  54.779 -51.035  1.00  0.00     0.031 A 
BRANCH  11  14
HETATM   14  N   UNL     1     -39.639  53.113 -50.899  1.00  0.00    -0.260 NA
HETATM   15  H   UNL     1     -38.767  53.592 -51.120  1.00  0.00     0.134 HD
BRANCH  14  16
HETATM   16  C   UNL     1     -39.730  51.972 -51.740  1.00  0.00     0.012 A 
HETATM   17  C   UNL     1     -39.780  52.111 -53.128  1.00  0.00     0.024 A 
HETATM   18  C   UNL     1     -39.814  50.982 -53.951  1.00  0.00     0.002 A 
HETATM   19  C   UNL     1     -39.783  49.706 -53.388  1.00  0.00     0.000 A 
HETATM   20  C   UNL     1     -39.712  49.558 -52.004  1.00  0.00     0.002 A 
HETATM   21  C   UNL     1     -39.680  50.686 -51.183  1.00  0.00     0.024 A 
ENDBRANCH  14  16
ENDBRANCH  11  14
ENDBRANCH   5   8
ENDBRANCH   3   4
BRANCH   2  22
HETATM   22  N   UNL     1     -45.558  59.835 -53.429  1.00  0.00    -0.207 NA
HETATM   23  H   UNL     1     -46.011  59.116 -54.006  1.00  0.00     0.152 HD
BRANCH  22  24
HETATM   24  N   UNL     1     -44.264  60.098 -53.919  1.00  0.00    -0.279 N 
HETATM   25  C   UNL     1     -43.987  59.721 -55.221  1.00  0.00     0.323 C 
HETATM   26  O   UNL     1     -44.832  59.390 -56.042  1.00  0.00    -0.261 OA
HETATM   27  H   UNL     1     -43.527  60.215 -53.216  1.00  0.00     0.184 HD
BRANCH  25  28
HETATM   28  C   UNL     1     -42.489  59.674 -55.537  1.00  0.00     0.311 C 
HETATM   29  N   UNL     1     -41.742  58.550 -55.282  1.00  0.00    -0.348 N 
HETATM   30  H   UNL     1     -40.773  58.688 -55.543  1.00  0.00     0.163 HD
HETATM   31  O   UNL     1     -41.961  60.666 -56.034  1.00  0.00    -0.262 OA
BRANCH  29  32
HETATM   32  C   UNL     1     -42.111  57.205 -54.835  1.00  0.00     0.084 C 
HETATM   33  C   UNL     1     -42.870  56.372 -55.885  1.00  0.00     0.025 C 
HETATM   34  C   UNL     1     -42.335  54.976 -56.203  1.00  0.00     0.002 C 
HETATM   35  C   UNL     1     -41.617  54.322 -55.037  1.00  0.00     0.000 C 
HETATM   36  C   UNL     1     -40.482  55.211 -54.561  1.00  0.00     0.002 C 
HETATM   37  C   UNL     1     -41.010  56.525 -54.009  1.00  0.00     0.025 C 
ENDBRANCH  29  32
ENDBRANCH  25  28
ENDBRANCH  22  24
ENDBRANCH   2  22
TORSDOF 8
ENDMDL
MODEL 3
REMARK VINA RESULT:      -7.8      2.010      2.844
REMARK  8 active torsions:
REMARK  status: ('A' for Active; 'I' for Inactive)
REMARK    1  A    between atoms: C_2  and  N_3 
REMARK    2  A    between atoms: N_3  and  N_4 
REMARK       I    between atoms: N_4  and  C_5 
REMARK    3  A    between atoms: C_5  and  C_6 
REMARK       I    between atoms: C_6  and  N_7 
REMARK    4  A    between atoms: N_7  and  C_8 
REMARK    5  A    between atoms: C_16  and  C_17 
REMARK       I    between atoms: C_17  and  N_18 
REMARK    6  A    between atoms: N_18  and  C_19 
REMARK    7  A    between atoms: C_22  and  N_23 
REMARK    8  A    between atoms: N_23  and  C_24 
ROOT
HETATM    1  C   UNL     1     -44.894  59.921 -58.922  1.00  0.00     0.063 C 
HETATM    2  C   UNL     1     -43.927  58.991 -58.214  1.00  0.00     0.007 C 
HETATM    3  C   UNL     1     -44.133  57.662 -58.338  1.00  0.00     0.094 C 
ENDROOT
BRANCH   3   4
HETATM    4  C   UNL     1     -43.382  56.571 -57.651  1.00  0.00     0.247 C 
HETATM    5  N   UNL     1     -43.322  56.773 -56.285  1.00  0.00    -0.324 N 
HETATM    6  H   UNL     1     -43.942  57.466 -55.887  1.00  0.00     0.169 HD
HETATM    7  O   UNL     1     -42.918  55.616 -58.261  1.00  0.00    -0.268 OA
BRANCH   5   8
HETATM    8  C   UNL     1     -42.578  56.012 -55.360  1.00  0.00     0.035 A 
HETATM    9  C   UNL     1     -41.207  56.173 -55.159  1.00  0.00     0.031 A 
HETATM   10  C   UNL     1     -40.528  55.386 -54.223  1.00  0.00     0.026 A 
HETATM   11  C   UNL     1     -41.194  54.387 -53.502  1.00  0.00     0.012 A 
HETATM   12  C   UNL     1     -42.577  54.265 -53.669  1.00  0.00     0.026 A 
HETATM   13  C   UNL     1     -43.265  55.074 -54.583  1.00  0.00     0.031 A 
BRANCH  11  14
HETATM   14  N   UNL     1     -40.467  53.591 -52.575  1.00  0.00    -0.260 NA
HETATM   15  H   UNL     1     -39.576  54.053 -52.395  1.00  0.00     0.134 HD
BRANCH  14  16
HETATM   16  C   UNL     1     -40.203  52.213 -52.797  1.00  0.00     0.012 A 
HETATM   17  C   UNL     1     -40.275  51.671 -54.081  1.00  0.00     0.024 A 
HETATM   18  C   UNL     1     -39.959  50.327 -54.300  1.00  0.00     0.002 A 
HETATM   19  C   UNL     1     -39.555  49.522 -53.234  1.00  0.00     0.000 A 
HETATM   20  C   UNL     1     -39.461  50.060 -51.953  1.00  0.00     0.002 A 
HETATM   21  C   UNL     1     -39.778  51.402 -51.735  1.00  0.00     0.024 A 
ENDBRANCH  14  16
ENDBRANCH  11  14
ENDBRANCH   5   8
ENDBRANCH   3   4
BRANCH   2  22
HETATM   22  N   UNL     1     -42.931  59.651 -57.505  1.00  0.00    -0.207 NA
HETATM   23  H   UNL     1     -42.112  59.056 -57.329  1.00  0.00     0.152 HD
BRANCH  22  24
HETATM   24  N   UNL     1     -43.245  60.387 -56.345  1.00  0.00    -0.279 N 
HETATM   25  C   UNL     1     -42.440  60.204 -55.236  1.00  0.00     0.323 C 
HETATM   26  O   UNL     1     -41.357  59.635 -55.252  1.00  0.00    -0.261 OA
HETATM   27  H   UNL     1     -44.211  60.725 -56.270  1.00  0.00     0.184 HD
BRANCH  25  28
HETATM   28  C   UNL     1     -43.067  60.715 -53.935  1.00  0.00     0.311 C 
HETATM   29  N   UNL     1     -43.415  59.852 -52.925  1.00  0.00    -0.348 N 
HETATM   30  H   UNL     1     -43.820  60.351 -52.142  1.00  0.00     0.163 HD
HETATM   31  O   UNL     1     -43.251  61.923 -53.805  1.00  0.00    -0.262 OA
BRANCH  29  32
HETATM   32  C   UNL     1     -43.196  58.415 -52.740  1.00  0.00     0.084 C 
HETATM   33  C   UNL     1     -41.871  58.060 -52.041  1.00  0.00     0.025 C 
HETATM   34  C   UNL     1     -41.937  57.135 -50.826  1.00  0.00     0.002 C 
HETATM   35  C   UNL     1     -43.100  56.161 -50.868  1.00  0.00     0.000 C 
HETATM   36  C   UNL     1     -44.408  56.920 -51.008  1.00  0.00     0.002 C 
HETATM   37  C   UNL     1     -44.471  57.663 -52.333  1.00  0.00     0.025 C 
ENDBRANCH  29  32
ENDBRANCH  25  28
ENDBRANCH  22  24
ENDBRANCH   2  22
TORSDOF 8
ENDMDL
MODEL 4
REMARK VINA RESULT:      -7.8      2.190      3.306
REMARK  8 active torsions:
REMARK  status: ('A' for Active; 'I' for Inactive)
REMARK    1  A    between atoms: C_2  and  N_3 
REMARK    2  A    between atoms: N_3  and  N_4 
REMARK       I    between atoms: N_4  and  C_5 
REMARK    3  A    between atoms: C_5  and  C_6 
REMARK       I    between atoms: C_6  and  N_7 
REMARK    4  A    between atoms: N_7  and  C_8 
REMARK    5  A    between atoms: C_16  and  C_17 
REMARK       I    between atoms: C_17  and  N_18 
REMARK    6  A    between atoms: N_18  and  C_19 
REMARK    7  A    between atoms: C_22  and  N_23 
REMARK    8  A    between atoms: N_23  and  C_24 
ROOT
HETATM    1  C   UNL     1     -46.679  59.359 -57.340  1.00  0.00     0.063 C 
HETATM    2  C   UNL     1     -45.529  59.125 -56.379  1.00  0.00     0.007 C 
HETATM    3  C   UNL     1     -44.666  58.127 -56.667  1.00  0.00     0.094 C 
ENDROOT
BRANCH   3   4
HETATM    4  C   UNL     1     -43.533  57.649 -55.821  1.00  0.00     0.247 C 
HETATM    5  N   UNL     1     -43.591  56.283 -55.614  1.00  0.00    -0.324 N 
HETATM    6  H   UNL     1     -44.218  55.747 -56.200  1.00  0.00     0.169 HD
HETATM    7  O   UNL     1     -42.664  58.406 -55.409  1.00  0.00    -0.268 OA
BRANCH   5   8
HETATM    8  C   UNL     1     -42.760  55.533 -54.756  1.00  0.00     0.035 A 
HETATM    9  C   UNL     1     -43.247  54.713 -53.739  1.00  0.00     0.031 A 
HETATM   10  C   UNL     1     -42.367  53.993 -52.924  1.00  0.00     0.026 A 
HETATM   11  C   UNL     1     -40.981  54.114 -53.075  1.00  0.00     0.012 A 
HETATM   12  C   UNL     1     -40.499  54.896 -54.130  1.00  0.00     0.026 A 
HETATM   13  C   UNL     1     -41.379  55.593 -54.968  1.00  0.00     0.031 A 
BRANCH  11  14
HETATM   14  N   UNL     1     -40.116  53.384 -52.214  1.00  0.00    -0.260 NA
HETATM   15  H   UNL     1     -39.191  53.809 -52.263  1.00  0.00     0.134 HD
BRANCH  14  16
HETATM   16  C   UNL     1     -39.950  51.977 -52.316  1.00  0.00     0.012 A 
HETATM   17  C   UNL     1     -39.872  51.356 -53.564  1.00  0.00     0.024 A 
HETATM   18  C   UNL     1     -39.653  49.978 -53.655  1.00  0.00     0.002 A 
HETATM   19  C   UNL     1     -39.497  49.217 -52.497  1.00  0.00     0.000 A 
HETATM   20  C   UNL     1     -39.553  49.832 -51.248  1.00  0.00     0.002 A 
HETATM   21  C   UNL     1     -39.773  51.207 -51.157  1.00  0.00     0.024 A 
ENDBRANCH  14  16
ENDBRANCH  11  14
ENDBRANCH   5   8
ENDBRANCH   3   4
BRANCH   2  22
HETATM   22  N   UNL     1     -45.519  59.993 -55.292  1.00  0.00    -0.207 NA
HETATM   23  H   UNL     1     -44.678  60.582 -55.266  1.00  0.00     0.152 HD
BRANCH  22  24
HETATM   24  N   UNL     1     -45.814  59.521 -53.998  1.00  0.00    -0.279 N 
HETATM   25  C   UNL     1     -45.427  60.309 -52.930  1.00  0.00     0.323 C 
HETATM   26  O   UNL     1     -45.057  61.471 -53.023  1.00  0.00    -0.261 OA
HETATM   27  H   UNL     1     -45.965  58.511 -53.906  1.00  0.00     0.184 HD
BRANCH  25  28
HETATM   28  C   UNL     1     -45.421  59.563 -51.592  1.00  0.00     0.311 C 
HETATM   29  N   UNL     1     -44.272  58.996 -51.097  1.00  0.00    -0.348 N 
HETATM   30  H   UNL     1     -44.444  58.538 -50.210  1.00  0.00     0.163 HD
HETATM   31  O   UNL     1     -46.471  59.483 -50.958  1.00  0.00    -0.262 OA
BRANCH  29  32
HETATM   32  C   UNL     1     -42.879  59.044 -51.547  1.00  0.00     0.084 C 
HETATM   33  C   UNL     1     -42.044  60.169 -50.908  1.00  0.00     0.025 C 
HETATM   34  C   UNL     1     -40.715  59.782 -50.258  1.00  0.00     0.002 C 
HETATM   35  C   UNL     1     -40.062  58.567 -50.890  1.00  0.00     0.000 C 
HETATM   36  C   UNL     1     -41.016  57.386 -50.853  1.00  0.00     0.002 C 
HETATM   37  C   UNL     1     -42.251  57.652 -51.699  1.00  0.00     0.025 C 
ENDBRANCH  29  32
ENDBRANCH  25  28
ENDBRANCH  22  24
ENDBRANCH   2  22
TORSDOF 8
ENDMDL
MODEL 5
REMARK VINA RESULT:      -7.6      2.431      4.781
REMARK  8 active torsions:
REMARK  status: ('A' for Active; 'I' for Inactive)
REMARK    1  A    between atoms: C_2  and  N_3 
REMARK    2  A    between atoms: N_3  and  N_4 
REMARK       I    between atoms: N_4  and  C_5 
REMARK    3  A    between atoms: C_5  and  C_6 
REMARK       I    between atoms: C_6  and  N_7 
REMARK    4  A    between atoms: N_7  and  C_8 
REMARK    5  A    between atoms: C_16  and  C_17 
REMARK       I    between atoms: C_17  and  N_18 
REMARK    6  A    between atoms: N_18  and  C_19 
REMARK    7  A    between atoms: C_22  and  N_23 
REMARK    8  A    between atoms: N_23  and  C_24 
ROOT
HETATM    1  C   UNL     1     -46.060  61.121 -53.519  1.00  0.00     0.063 C 
HETATM    2  C   UNL     1     -44.879  60.170 -53.528  1.00  0.00     0.007 C 
HETATM    3  C   UNL     1     -45.061  58.940 -53.001  1.00  0.00     0.094 C 
ENDROOT
BRANCH   3   4
HETATM    4  C   UNL     1     -44.024  57.885 -52.808  1.00  0.00     0.247 C 
HETATM    5  N   UNL     1     -43.561  57.397 -54.016  1.00  0.00    -0.324 N 
HETATM    6  H   UNL     1     -43.785  57.924 -54.850  1.00  0.00     0.169 HD
HETATM    7  O   UNL     1     -43.639  57.545 -51.697  1.00  0.00    -0.268 OA
BRANCH   5   8
HETATM    8  C   UNL     1     -42.685  56.307 -54.195  1.00  0.00     0.035 A 
HETATM    9  C   UNL     1     -41.297  56.437 -54.244  1.00  0.00     0.031 A 
HETATM   10  C   UNL     1     -40.483  55.312 -54.422  1.00  0.00     0.026 A 
HETATM   11  C   UNL     1     -41.040  54.041 -54.603  1.00  0.00     0.012 A 
HETATM   12  C   UNL     1     -42.429  53.908 -54.501  1.00  0.00     0.026 A 
HETATM   13  C   UNL     1     -43.243  55.028 -54.291  1.00  0.00     0.031 A 
BRANCH  11  14
HETATM   14  N   UNL     1     -40.183  52.923 -54.803  1.00  0.00    -0.260 NA
HETATM   15  H   UNL     1     -40.450  52.476 -55.679  1.00  0.00     0.134 HD
BRANCH  14  16
HETATM   16  C   UNL     1     -40.022  51.903 -53.828  1.00  0.00     0.012 A 
HETATM   17  C   UNL     1     -39.950  50.561 -54.206  1.00  0.00     0.024 A 
HETATM   18  C   UNL     1     -39.735  49.567 -53.246  1.00  0.00     0.002 A 
HETATM   19  C   UNL     1     -39.577  49.914 -51.905  1.00  0.00     0.000 A 
HETATM   20  C   UNL     1     -39.628  51.253 -51.522  1.00  0.00     0.002 A 
HETATM   21  C   UNL     1     -39.843  52.245 -52.480  1.00  0.00     0.024 A 
ENDBRANCH  14  16
ENDBRANCH  11  14
ENDBRANCH   5   8
ENDBRANCH   3   4
BRANCH   2  22
HETATM   22  N   UNL     1     -43.727  60.710 -54.090  1.00  0.00    -0.207 NA
HETATM   23  H   UNL     1     -43.581  61.691 -53.821  1.00  0.00     0.152 HD
BRANCH  22  24
HETATM   24  N   UNL     1     -43.454  60.543 -55.461  1.00  0.00    -0.279 N 
HETATM   25  C   UNL     1     -42.207  60.055 -55.807  1.00  0.00     0.323 C 
HETATM   26  O   UNL     1     -41.417  59.551 -55.021  1.00  0.00    -0.261 OA
HETATM   27  H   UNL     1     -44.022  61.098 -56.109  1.00  0.00     0.184 HD
BRANCH  25  28
HETATM   28  C   UNL     1     -41.852  60.277 -57.281  1.00  0.00     0.311 C 
HETATM   29  N   UNL     1     -42.346  59.456 -58.264  1.00  0.00    -0.348 N 
HETATM   30  H   UNL     1     -42.010  59.737 -59.178  1.00  0.00     0.163 HD
HETATM   31  O   UNL     1     -41.115  61.215 -57.574  1.00  0.00    -0.262 OA
BRANCH  29  32
HETATM   32  C   UNL     1     -43.330  58.370 -58.237  1.00  0.00     0.084 C 
HETATM   33  C   UNL     1     -44.366  58.424 -59.374  1.00  0.00     0.025 C 
HETATM   34  C   UNL     1     -44.562  57.162 -60.214  1.00  0.00     0.002 C 
HETATM   35  C   UNL     1     -44.280  55.878 -59.455  1.00  0.00     0.000 C 
HETATM   36  C   UNL     1     -42.870  55.908 -58.891  1.00  0.00     0.002 C 
HETATM   37  C   UNL     1     -42.715  57.015 -57.861  1.00  0.00     0.025 C 
ENDBRANCH  29  32
ENDBRANCH  25  28
ENDBRANCH  22  24
ENDBRANCH   2  22
TORSDOF 8
ENDMDL
MODEL 6
REMARK VINA RESULT:      -7.5      1.940      4.298
REMARK  8 active torsions:
REMARK  status: ('A' for Active; 'I' for Inactive)
REMARK    1  A    between atoms: C_2  and  N_3 
REMARK    2  A    between atoms: N_3  and  N_4 
REMARK       I    between atoms: N_4  and  C_5 
REMARK    3  A    between atoms: C_5  and  C_6 
REMARK       I    between atoms: C_6  and  N_7 
REMARK    4  A    between atoms: N_7  and  C_8 
REMARK    5  A    between atoms: C_16  and  C_17 
REMARK       I    between atoms: C_17  and  N_18 
REMARK    6  A    between atoms: N_18  and  C_19 
REMARK    7  A    between atoms: C_22  and  N_23 
REMARK    8  A    between atoms: N_23  and  C_24 
ROOT
HETATM    1  C   UNL     1     -45.927  61.102 -54.160  1.00  0.00     0.063 C 
HETATM    2  C   UNL     1     -45.089  60.109 -53.378  1.00  0.00     0.007 C 
HETATM    3  C   UNL     1     -45.675  59.478 -52.337  1.00  0.00     0.094 C 
ENDROOT
BRANCH   3   4
HETATM    4  C   UNL     1     -45.022  58.548 -51.370  1.00  0.00     0.247 C 
HETATM    5  N   UNL     1     -43.958  57.878 -51.945  1.00  0.00    -0.324 N 
HETATM    6  H   UNL     1     -43.608  58.226 -52.828  1.00  0.00     0.169 HD
HETATM    7  O   UNL     1     -45.398  58.447 -50.209  1.00  0.00    -0.268 OA
BRANCH   5   8
HETATM    8  C   UNL     1     -43.213  56.835 -51.357  1.00  0.00     0.035 A 
HETATM    9  C   UNL     1     -43.690  55.531 -51.226  1.00  0.00     0.031 A 
HETATM   10  C   UNL     1     -42.899  54.540 -50.634  1.00  0.00     0.026 A 
HETATM   11  C   UNL     1     -41.633  54.842 -50.118  1.00  0.00     0.012 A 
HETATM   12  C   UNL     1     -41.138  56.137 -50.299  1.00  0.00     0.026 A 
HETATM   13  C   UNL     1     -41.917  57.123 -50.920  1.00  0.00     0.031 A 
BRANCH  11  14
HETATM   14  N   UNL     1     -40.865  53.814 -49.504  1.00  0.00    -0.260 NA
HETATM   15  H   UNL     1     -40.052  54.248 -49.067  1.00  0.00     0.134 HD
BRANCH  14  16
HETATM   16  C   UNL     1     -40.414  52.671 -50.216  1.00  0.00     0.012 A 
HETATM   17  C   UNL     1     -39.719  52.808 -51.420  1.00  0.00     0.024 A 
HETATM   18  C   UNL     1     -39.231  51.681 -52.086  1.00  0.00     0.002 A 
HETATM   19  C   UNL     1     -39.423  50.410 -51.543  1.00  0.00     0.000 A 
HETATM   20  C   UNL     1     -40.098  50.266 -50.332  1.00  0.00     0.002 A 
HETATM   21  C   UNL     1     -40.587  51.392 -49.668  1.00  0.00     0.024 A 
ENDBRANCH  14  16
ENDBRANCH  11  14
ENDBRANCH   5   8
ENDBRANCH   3   4
BRANCH   2  22
HETATM   22  N   UNL     1     -43.787  59.980 -53.847  1.00  0.00    -0.207 NA
HETATM   23  H   UNL     1     -43.400  60.869 -54.186  1.00  0.00     0.152 HD
BRANCH  22  24
HETATM   24  N   UNL     1     -43.445  58.940 -54.734  1.00  0.00    -0.279 N 
HETATM   25  C   UNL     1     -42.256  59.060 -55.429  1.00  0.00     0.323 C 
HETATM   26  O   UNL     1     -41.380  59.874 -55.170  1.00  0.00    -0.261 OA
HETATM   27  H   UNL     1     -44.220  58.359 -55.073  1.00  0.00     0.184 HD
BRANCH  25  28
HETATM   28  C   UNL     1     -42.155  58.119 -56.633  1.00  0.00     0.311 C 
HETATM   29  N   UNL     1     -41.988  56.766 -56.469  1.00  0.00    -0.348 N 
HETATM   30  H   UNL     1     -41.934  56.293 -57.363  1.00  0.00     0.163 HD
HETATM   31  O   UNL     1     -42.233  58.598 -57.763  1.00  0.00    -0.262 OA
BRANCH  29  32
HETATM   32  C   UNL     1     -41.999  55.912 -55.279  1.00  0.00     0.084 C 
HETATM   33  C   UNL     1     -43.243  55.013 -55.154  1.00  0.00     0.025 C 
HETATM   34  C   UNL     1     -43.017  53.518 -54.932  1.00  0.00     0.002 C 
HETATM   35  C   UNL     1     -41.731  53.202 -54.192  1.00  0.00     0.000 C 
HETATM   36  C   UNL     1     -40.546  53.797 -54.933  1.00  0.00     0.002 C 
HETATM   37  C   UNL     1     -40.621  55.314 -54.958  1.00  0.00     0.025 C 
ENDBRANCH  29  32
ENDBRANCH  25  28
ENDBRANCH  22  24
ENDBRANCH   2  22
TORSDOF 8
ENDMDL
MODEL 7
REMARK VINA RESULT:      -7.2      3.494      6.811
REMARK  8 active torsions:
REMARK  status: ('A' for Active; 'I' for Inactive)
REMARK    1  A    between atoms: C_2  and  N_3 
REMARK    2  A    between atoms: N_3  and  N_4 
REMARK       I    between atoms: N_4  and  C_5 
REMARK    3  A    between atoms: C_5  and  C_6 
REMARK       I    between atoms: C_6  and  N_7 
REMARK    4  A    between atoms: N_7  and  C_8 
REMARK    5  A    between atoms: C_16  and  C_17 
REMARK       I    between atoms: C_17  and  N_18 
REMARK    6  A    between atoms: N_18  and  C_19 
REMARK    7  A    between atoms: C_22  and  N_23 
REMARK    8  A    between atoms: N_23  and  C_24 
ROOT
HETATM    1  C   UNL     1     -42.153  54.835 -49.881  1.00  0.00     0.063 C 
HETATM    2  C   UNL     1     -42.350  54.913 -51.383  1.00  0.00     0.007 C 
HETATM    3  C   UNL     1     -41.279  54.670 -52.169  1.00  0.00     0.094 C 
ENDROOT
BRANCH   3   4
HETATM    4  C   UNL     1     -41.211  54.791 -53.655  1.00  0.00     0.247 C 
HETATM    5  N   UNL     1     -42.097  55.741 -54.130  1.00  0.00    -0.324 N 
HETATM    6  H   UNL     1     -42.508  56.375 -53.458  1.00  0.00     0.169 HD
HETATM    7  O   UNL     1     -40.430  54.131 -54.327  1.00  0.00    -0.268 OA
BRANCH   5   8
HETATM    8  C   UNL     1     -42.385  56.010 -55.484  1.00  0.00     0.035 A 
HETATM    9  C   UNL     1     -42.195  57.258 -56.077  1.00  0.00     0.031 A 
HETATM   10  C   UNL     1     -42.498  57.457 -57.428  1.00  0.00     0.026 A 
HETATM   11  C   UNL     1     -43.043  56.427 -58.204  1.00  0.00     0.012 A 
HETATM   12  C   UNL     1     -43.182  55.164 -57.620  1.00  0.00     0.026 A 
HETATM   13  C   UNL     1     -42.848  54.954 -56.276  1.00  0.00     0.031 A 
BRANCH  11  14
HETATM   14  N   UNL     1     -43.360  56.671 -59.569  1.00  0.00    -0.260 NA
HETATM   15  H   UNL     1     -42.758  57.424 -59.901  1.00  0.00     0.134 HD
BRANCH  14  16
HETATM   16  C   UNL     1     -44.682  56.950 -60.006  1.00  0.00     0.012 A 
HETATM   17  C   UNL     1     -45.558  55.914 -60.338  1.00  0.00     0.024 A 
HETATM   18  C   UNL     1     -46.874  56.195 -60.714  1.00  0.00     0.002 A 
HETATM   19  C   UNL     1     -47.326  57.515 -60.745  1.00  0.00     0.000 A 
HETATM   20  C   UNL     1     -46.464  58.553 -60.397  1.00  0.00     0.002 A 
HETATM   21  C   UNL     1     -45.149  58.272 -60.023  1.00  0.00     0.024 A 
ENDBRANCH  14  16
ENDBRANCH  11  14
ENDBRANCH   5   8
ENDBRANCH   3   4
BRANCH   2  22
HETATM   22  N   UNL     1     -43.647  55.242 -51.763  1.00  0.00    -0.207 NA
HETATM   23  H   UNL     1     -43.743  55.355 -52.779  1.00  0.00     0.152 HD
BRANCH  22  24
HETATM   24  N   UNL     1     -44.349  56.266 -51.098  1.00  0.00    -0.279 N 
HETATM   25  C   UNL     1     -44.600  57.429 -51.804  1.00  0.00     0.323 C 
HETATM   26  O   UNL     1     -44.463  57.549 -53.013  1.00  0.00    -0.261 OA
HETATM   27  H   UNL     1     -44.321  56.244 -50.073  1.00  0.00     0.184 HD
BRANCH  25  28
HETATM   28  C   UNL     1     -44.997  58.610 -50.913  1.00  0.00     0.311 C 
HETATM   29  N   UNL     1     -44.097  59.596 -50.593  1.00  0.00    -0.348 N 
HETATM   30  H   UNL     1     -44.518  60.295 -49.994  1.00  0.00     0.163 HD
HETATM   31  O   UNL     1     -46.149  58.666 -50.489  1.00  0.00    -0.262 OA
BRANCH  29  32
HETATM   32  C   UNL     1     -42.731  59.865 -51.049  1.00  0.00     0.084 C 
HETATM   33  C   UNL     1     -41.721  58.750 -50.724  1.00  0.00     0.025 C 
HETATM   34  C   UNL     1     -40.870  58.207 -51.872  1.00  0.00     0.002 C 
HETATM   35  C   UNL     1     -40.604  59.227 -52.964  1.00  0.00     0.000 C 
HETATM   36  C   UNL     1     -41.918  59.763 -53.505  1.00  0.00     0.002 C 
HETATM   37  C   UNL     1     -42.682  60.525 -52.434  1.00  0.00     0.025 C 
ENDBRANCH  29  32
ENDBRANCH  25  28
ENDBRANCH  22  24
ENDBRANCH   2  22
TORSDOF 8
ENDMDL
MODEL 8
REMARK VINA RESULT:      -7.2      2.842      5.335
REMARK  8 active torsions:
REMARK  status: ('A' for Active; 'I' for Inactive)
REMARK    1  A    between atoms: C_2  and  N_3 
REMARK    2  A    between atoms: N_3  and  N_4 
REMARK       I    between atoms: N_4  and  C_5 
REMARK    3  A    between atoms: C_5  and  C_6 
REMARK       I    between atoms: C_6  and  N_7 
REMARK    4  A    between atoms: N_7  and  C_8 
REMARK    5  A    between atoms: C_16  and  C_17 
REMARK       I    between atoms: C_17  and  N_18 
REMARK    6  A    between atoms: N_18  and  C_19 
REMARK    7  A    between atoms: C_22  and  N_23 
REMARK    8  A    between atoms: N_23  and  C_24 
ROOT
HETATM    1  C   UNL     1     -45.527  60.635 -54.711  1.00  0.00     0.063 C 
HETATM    2  C   UNL     1     -45.034  59.305 -54.174  1.00  0.00     0.007 C 
HETATM    3  C   UNL     1     -45.066  59.119 -52.837  1.00  0.00     0.094 C 
ENDROOT
BRANCH   3   4
HETATM    4  C   UNL     1     -44.539  57.944 -52.082  1.00  0.00     0.247 C 
HETATM    5  N   UNL     1     -43.290  57.563 -52.538  1.00  0.00    -0.324 N 
HETATM    6  H   UNL     1     -42.794  58.209 -53.136  1.00  0.00     0.169 HD
HETATM    7  O   UNL     1     -45.159  57.432 -51.159  1.00  0.00    -0.268 OA
BRANCH   5   8
HETATM    8  C   UNL     1     -42.572  56.416 -52.140  1.00  0.00     0.035 A 
HETATM    9  C   UNL     1     -41.451  56.461 -51.311  1.00  0.00     0.031 A 
HETATM   10  C   UNL     1     -40.785  55.285 -50.952  1.00  0.00     0.026 A 
HETATM   11  C   UNL     1     -41.193  54.043 -51.452  1.00  0.00     0.012 A 
HETATM   12  C   UNL     1     -42.348  53.997 -52.241  1.00  0.00     0.026 A 
HETATM   13  C   UNL     1     -43.036  55.171 -52.575  1.00  0.00     0.031 A 
BRANCH  11  14
HETATM   14  N   UNL     1     -40.478  52.870 -51.084  1.00  0.00    -0.260 NA
HETATM   15  H   UNL     1     -39.628  53.159 -50.602  1.00  0.00     0.134 HD
BRANCH  14  16
HETATM   16  C   UNL     1     -40.123  51.867 -52.024  1.00  0.00     0.012 A 
HETATM   17  C   UNL     1     -39.768  50.585 -51.600  1.00  0.00     0.024 A 
HETATM   18  C   UNL     1     -39.473  49.588 -52.535  1.00  0.00     0.002 A 
HETATM   19  C   UNL     1     -39.546  49.866 -53.900  1.00  0.00     0.000 A 
HETATM   20  C   UNL     1     -39.918  51.138 -54.331  1.00  0.00     0.002 A 
HETATM   21  C   UNL     1     -40.211  52.133 -53.398  1.00  0.00     0.024 A 
ENDBRANCH  14  16
ENDBRANCH  11  14
ENDBRANCH   5   8
ENDBRANCH   3   4
BRANCH   2  22
HETATM   22  N   UNL     1     -44.596  58.428 -55.161  1.00  0.00    -0.207 NA
HETATM   23  H   UNL     1     -44.030  57.660 -54.781  1.00  0.00     0.152 HD
BRANCH  22  24
HETATM   24  N   UNL     1     -44.008  58.919 -56.343  1.00  0.00    -0.279 N 
HETATM   25  C   UNL     1     -42.846  58.306 -56.778  1.00  0.00     0.323 C 
HETATM   26  O   UNL     1     -42.421  57.242 -56.350  1.00  0.00    -0.261 OA
HETATM   27  H   UNL     1     -44.250  59.879 -56.607  1.00  0.00     0.184 HD
BRANCH  25  28
HETATM   28  C   UNL     1     -42.072  59.131 -57.811  1.00  0.00     0.311 C 
HETATM   29  N   UNL     1     -42.124  58.828 -59.149  1.00  0.00    -0.348 N 
HETATM   30  H   UNL     1     -41.553  59.465 -59.691  1.00  0.00     0.163 HD
HETATM   31  O   UNL     1     -41.400  60.083 -57.420  1.00  0.00    -0.262 OA
BRANCH  29  32
HETATM   32  C   UNL     1     -42.926  57.866 -59.909  1.00  0.00     0.084 C 
HETATM   33  C   UNL     1     -42.492  56.399 -59.734  1.00  0.00     0.025 C 
HETATM   34  C   UNL     1     -43.565  55.384 -59.341  1.00  0.00     0.002 C 
HETATM   35  C   UNL     1     -44.954  55.748 -59.833  1.00  0.00     0.000 C 
HETATM   36  C   UNL     1     -45.339  57.127 -59.327  1.00  0.00     0.002 C 
HETATM   37  C   UNL     1     -44.425  58.198 -59.901  1.00  0.00     0.025 C 
ENDBRANCH  29  32
ENDBRANCH  25  28
ENDBRANCH  22  24
ENDBRANCH   2  22
TORSDOF 8
ENDMDL
MODEL 9
REMARK VINA RESULT:      -7.1      2.961      5.780
REMARK  8 active torsions:
REMARK  status: ('A' for Active; 'I' for Inactive)
REMARK    1  A    between atoms: C_2  and  N_3 
REMARK    2  A    between atoms: N_3  and  N_4 
REMARK       I    between atoms: N_4  and  C_5 
REMARK    3  A    between atoms: C_5  and  C_6 
REMARK       I    between atoms: C_6  and  N_7 
REMARK    4  A    between atoms: N_7  and  C_8 
REMARK    5  A    between atoms: C_16  and  C_17 
REMARK       I    between atoms: C_17  and  N_18 
REMARK    6  A    between atoms: N_18  and  C_19 
REMARK    7  A    between atoms: C_22  and  N_23 
REMARK    8  A    between atoms: N_23  and  C_24 
ROOT
HETATM    1  C   UNL     1     -45.796  60.790 -54.730  1.00  0.00     0.063 C 
HETATM    2  C   UNL     1     -45.230  59.385 -54.669  1.00  0.00     0.007 C 
HETATM    3  C   UNL     1     -44.686  58.979 -53.501  1.00  0.00     0.094 C 
ENDROOT
BRANCH   3   4
HETATM    4  C   UNL     1     -43.981  57.690 -53.240  1.00  0.00     0.247 C 
HETATM    5  N   UNL     1     -43.154  57.338 -54.292  1.00  0.00    -0.324 N 
HETATM    6  H   UNL     1     -42.947  58.049 -54.981  1.00  0.00     0.169 HD
HETATM    7  O   UNL     1     -44.124  57.069 -52.195  1.00  0.00    -0.268 OA
BRANCH   5   8
HETATM    8  C   UNL     1     -42.452  56.123 -54.431  1.00  0.00     0.035 A 
HETATM    9  C   UNL     1     -43.079  54.890 -54.605  1.00  0.00     0.031 A 
HETATM   10  C   UNL     1     -42.323  53.720 -54.740  1.00  0.00     0.026 A 
HETATM   11  C   UNL     1     -40.926  53.752 -54.655  1.00  0.00     0.012 A 
HETATM   12  C   UNL     1     -40.300  54.996 -54.533  1.00  0.00     0.026 A 
HETATM   13  C   UNL     1     -41.055  56.172 -54.430  1.00  0.00     0.031 A 
BRANCH  11  14
HETATM   14  N   UNL     1     -40.190  52.540 -54.774  1.00  0.00    -0.260 NA
HETATM   15  H   UNL     1     -40.582  52.011 -55.553  1.00  0.00     0.134 HD
BRANCH  14  16
HETATM   16  C   UNL     1     -40.017  51.644 -53.686  1.00  0.00     0.012 A 
HETATM   17  C   UNL     1     -39.847  50.276 -53.909  1.00  0.00     0.024 A 
HETATM   18  C   UNL     1     -39.621  49.408 -52.836  1.00  0.00     0.002 A 
HETATM   19  C   UNL     1     -39.549  49.908 -51.536  1.00  0.00     0.000 A 
HETATM   20  C   UNL     1     -39.698  51.275 -51.307  1.00  0.00     0.002 A 
HETATM   21  C   UNL     1     -39.925  52.140 -52.378  1.00  0.00     0.024 A 
ENDBRANCH  14  16
ENDBRANCH  11  14
ENDBRANCH   5   8
ENDBRANCH   3   4
BRANCH   2  22
HETATM   22  N   UNL     1     -45.344  58.681 -55.862  1.00  0.00    -0.207 NA
HETATM   23  H   UNL     1     -44.627  57.951 -55.959  1.00  0.00     0.152 HD
BRANCH  22  24
HETATM   24  N   UNL     1     -45.500  59.364 -57.084  1.00  0.00    -0.279 N 
HETATM   25  C   UNL     1     -46.174  58.709 -58.099  1.00  0.00     0.323 C 
HETATM   26  O   UNL     1     -46.833  57.689 -57.948  1.00  0.00    -0.261 OA
HETATM   27  H   UNL     1     -44.833  60.120 -57.270  1.00  0.00     0.184 HD
BRANCH  25  28
HETATM   28  C   UNL     1     -45.956  59.336 -59.479  1.00  0.00     0.311 C 
HETATM   29  N   UNL     1     -44.893  58.972 -60.268  1.00  0.00    -0.348 N 
HETATM   30  H   UNL     1     -44.894  59.484 -61.142  1.00  0.00     0.163 HD
HETATM   31  O   UNL     1     -46.762  60.174 -59.878  1.00  0.00    -0.262 OA
BRANCH  29  32
HETATM   32  C   UNL     1     -43.874  57.929 -60.124  1.00  0.00     0.084 C 
HETATM   33  C   UNL     1     -42.897  58.153 -58.955  1.00  0.00     0.025 C 
HETATM   34  C   UNL     1     -42.702  57.004 -57.966  1.00  0.00     0.002 C 
HETATM   35  C   UNL     1     -42.903  55.632 -58.583  1.00  0.00     0.000 C 
HETATM   36  C   UNL     1     -44.284  55.542 -59.209  1.00  0.00     0.002 C 
HETATM   37  C   UNL     1     -44.425  56.517 -60.367  1.00  0.00     0.025 C 
ENDBRANCH  29  32
ENDBRANCH  25  28
ENDBRANCH  22  24
ENDBRANCH   2  22
TORSDOF 8
ENDMDL
MODEL 10
REMARK VINA RESULT:      -7.1      3.325      6.760
REMARK  8 active torsions:
REMARK  status: ('A' for Active; 'I' for Inactive)
REMARK    1  A    between atoms: C_2  and  N_3 
REMARK    2  A    between atoms: N_3  and  N_4 
REMARK       I    between atoms: N_4  and  C_5 
REMARK    3  A    between atoms: C_5  and  C_6 
REMARK       I    between atoms: C_6  and  N_7 
REMARK    4  A    between atoms: N_7  and  C_8 
REMARK    5  A    between atoms: C_16  and  C_17 
REMARK       I    between atoms: C_17  and  N_18 
REMARK    6  A    between atoms: N_18  and  C_19 
REMARK    7  A    between atoms: C_22  and  N_23 
REMARK    8  A    between atoms: N_23  and  C_24 
ROOT
HETATM    1  C   UNL     1     -40.861  60.009 -49.847  1.00  0.00     0.063 C 
HETATM    2  C   UNL     1     -40.997  58.879 -50.849  1.00  0.00     0.007 C 
HETATM    3  C   UNL     1     -41.010  59.203 -52.160  1.00  0.00     0.094 C 
ENDROOT
BRANCH   3   4
HETATM    4  C   UNL     1     -41.237  58.279 -53.310  1.00  0.00     0.247 C 
HETATM    5  N   UNL     1     -41.970  58.884 -54.315  1.00  0.00    -0.324 N 
HETATM    6  H   UNL     1     -42.075  59.889 -54.275  1.00  0.00     0.169 HD
HETATM    7  O   UNL     1     -40.784  57.141 -53.331  1.00  0.00    -0.268 OA
BRANCH   5   8
HETATM    8  C   UNL     1     -42.474  58.258 -55.473  1.00  0.00     0.035 A 
HETATM    9  C   UNL     1     -43.368  57.188 -55.440  1.00  0.00     0.031 A 
HETATM   10  C   UNL     1     -43.833  56.613 -56.627  1.00  0.00     0.026 A 
HETATM   11  C   UNL     1     -43.378  57.062 -57.873  1.00  0.00     0.012 A 
HETATM   12  C   UNL     1     -42.522  58.168 -57.902  1.00  0.00     0.026 A 
HETATM   13  C   UNL     1     -42.081  58.766 -56.715  1.00  0.00     0.031 A 
BRANCH  11  14
HETATM   14  N   UNL     1     -43.855  56.439 -59.059  1.00  0.00    -0.260 NA
HETATM   15  H   UNL     1     -43.131  56.525 -59.772  1.00  0.00     0.134 HD
BRANCH  14  16
HETATM   16  C   UNL     1     -45.094  56.789 -59.657  1.00  0.00     0.012 A 
HETATM   17  C   UNL     1     -45.584  58.094 -59.572  1.00  0.00     0.024 A 
HETATM   18  C   UNL     1     -46.777  58.444 -60.211  1.00  0.00     0.002 A 
HETATM   19  C   UNL     1     -47.479  57.492 -60.951  1.00  0.00     0.000 A 
HETATM   20  C   UNL     1     -46.987  56.192 -61.057  1.00  0.00     0.002 A 
HETATM   21  C   UNL     1     -45.796  55.843 -60.418  1.00  0.00     0.024 A 
ENDBRANCH  14  16
ENDBRANCH  11  14
ENDBRANCH   5   8
ENDBRANCH   3   4
BRANCH   2  22
HETATM   22  N   UNL     1     -41.100  57.621 -50.267  1.00  0.00    -0.207 NA
HETATM   23  H   UNL     1     -40.209  57.108 -50.275  1.00  0.00     0.152 HD
BRANCH  22  24
HETATM   24  N   UNL     1     -42.154  56.755 -50.616  1.00  0.00    -0.279 N 
HETATM   25  C   UNL     1     -42.136  55.480 -50.079  1.00  0.00     0.323 C 
HETATM   26  O   UNL     1     -41.411  55.124 -49.160  1.00  0.00    -0.261 OA
HETATM   27  H   UNL     1     -42.655  56.975 -51.483  1.00  0.00     0.184 HD
BRANCH  25  28
HETATM   28  C   UNL     1     -43.065  54.500 -50.802  1.00  0.00     0.311 C 
HETATM   29  N   UNL     1     -42.614  53.723 -51.840  1.00  0.00    -0.348 N 
HETATM   30  H   UNL     1     -43.354  53.138 -52.208  1.00  0.00     0.163 HD
HETATM   31  O   UNL     1     -44.234  54.415 -50.431  1.00  0.00    -0.262 OA
BRANCH  29  32
HETATM   32  C   UNL     1     -41.276  53.510 -52.399  1.00  0.00     0.084 C 
HETATM   33  C   UNL     1     -40.321  52.728 -51.480  1.00  0.00     0.025 C 
HETATM   34  C   UNL     1     -39.610  51.510 -52.070  1.00  0.00     0.002 C 
HETATM   35  C   UNL     1     -39.368  51.613 -53.564  1.00  0.00     0.000 C 
HETATM   36  C   UNL     1     -40.684  51.841 -54.288  1.00  0.00     0.002 C 
HETATM   37  C   UNL     1     -41.301  53.175 -53.898  1.00  0.00     0.025 C 
ENDBRANCH  29  32
ENDBRANCH  25  28
ENDBRANCH  22  24
ENDBRANCH   2  22
TORSDOF 8
ENDMDL
