MODEL 1
REMARK VINA RESULT:      -7.2      0.000      0.000
REMARK  5 active torsions:
REMARK  status: ('A' for Active; 'I' for Inactive)
REMARK    1  A    between atoms: C_7  and  C_8 
REMARK    2  A    between atoms: C_8  and  N_9 
REMARK    3  A    between atoms: C_12  and  C_13 
REMARK    4  A    between atoms: C_13  and  C_14 
REMARK    5  A    between atoms: C_14  and  O_15 
ROOT
HETATM    1  C   UNL     1     -40.851  54.309 -49.361  1.00  0.00     0.020 A 
HETATM    2  C   UNL     1     -41.109  55.420 -50.132  1.00  0.00     0.117 A 
HETATM    3  N   UNL     1     -41.017  55.437 -51.483  1.00  0.00    -0.260 NA
HETATM    4  C   UNL     1     -40.679  54.290 -52.115  1.00  0.00     0.076 A 
HETATM    5  C   UNL     1     -40.378  53.094 -51.421  1.00  0.00     0.011 A 
HETATM    6  C   UNL     1     -40.477  53.140 -50.013  1.00  0.00     0.016 A 
HETATM    7  C   UNL     1     -40.609  54.305 -53.512  1.00  0.00    -0.003 A 
HETATM    8  C   UNL     1     -40.247  53.156 -54.230  1.00  0.00     0.012 A 
HETATM    9  C   UNL     1     -39.939  51.981 -53.555  1.00  0.00     0.020 A 
HETATM   10  C   UNL     1     -40.006  51.945 -52.162  1.00  0.00     0.023 A 
HETATM   11 BR   UNL     1     -39.569  50.288 -51.335  1.00  0.00    -0.050 Br
ENDROOT
BRANCH   7  12
HETATM   12  C   UNL     1     -40.983  55.562 -54.262  1.00  0.00     0.275 C 
BRANCH  12  13
HETATM   13  N   UNL     1     -42.345  55.511 -54.899  1.00  0.00    -0.067 N 
HETATM   14  H   UNL     1     -42.838  54.784 -54.344  1.00  0.00     0.280 HD
HETATM   15  C   UNL     1     -42.345  55.090 -56.344  1.00  0.00     0.240 C 
HETATM   16  C   UNL     1     -42.741  56.352 -57.101  1.00  0.00     0.015 C 
HETATM   17  C   UNL     1     -43.768  56.967 -56.158  1.00  0.00     0.034 C 
HETATM   18  C   UNL     1     -43.138  56.793 -54.790  1.00  0.00     0.235 C 
BRANCH  16  19
HETATM   19  C   UNL     1     -43.245  56.035 -58.513  1.00  0.00     0.032 C 
BRANCH  19  20
HETATM   20  C   UNL     1     -42.683  56.959 -59.589  1.00  0.00     0.164 C 
BRANCH  20  21
HETATM   21  O   UNL     1     -41.609  56.318 -60.255  1.00  0.00    -0.401 OA
HETATM   22  H   UNL     1     -41.408  55.502 -59.759  1.00  0.00     0.209 HD
ENDBRANCH  20  21
ENDBRANCH  19  20
ENDBRANCH  16  19
ENDBRANCH  12  13
ENDBRANCH   7  12
TORSDOF 5
ENDMDL
MODEL 2
REMARK VINA RESULT:      -7.1      1.439      2.586
REMARK  5 active torsions:
REMARK  status: ('A' for Active; 'I' for Inactive)
REMARK    1  A    between atoms: C_7  and  C_8 
REMARK    2  A    between atoms: C_8  and  N_9 
REMARK    3  A    between atoms: C_12  and  C_13 
REMARK    4  A    between atoms: C_13  and  C_14 
REMARK    5  A    between atoms: C_14  and  O_15 
ROOT
HETATM    1  C   UNL     1     -39.695  51.461 -52.537  1.00  0.00     0.020 A 
HETATM    2  C   UNL     1     -39.873  52.029 -53.778  1.00  0.00     0.117 A 
HETATM    3  N   UNL     1     -40.313  53.295 -53.971  1.00  0.00    -0.260 NA
HETATM    4  C   UNL     1     -40.567  54.056 -52.882  1.00  0.00     0.076 A 
HETATM    5  C   UNL     1     -40.432  53.569 -51.560  1.00  0.00     0.011 A 
HETATM    6  C   UNL     1     -39.983  52.237 -51.421  1.00  0.00     0.016 A 
HETATM    7  C   UNL     1     -40.997  55.372 -53.085  1.00  0.00    -0.003 A 
HETATM    8  C   UNL     1     -41.295  56.210 -52.000  1.00  0.00     0.012 A 
HETATM    9  C   UNL     1     -41.177  55.735 -50.700  1.00  0.00     0.020 A 
HETATM   10  C   UNL     1     -40.746  54.427 -50.477  1.00  0.00     0.023 A 
HETATM   11 BR   UNL     1     -40.613  53.877 -48.660  1.00  0.00    -0.050 Br
ENDROOT
BRANCH   7  12
HETATM   12  C   UNL     1     -41.089  55.915 -54.491  1.00  0.00     0.275 C 
BRANCH  12  13
HETATM   13  N   UNL     1     -42.466  55.828 -55.092  1.00  0.00    -0.067 N 
HETATM   14  H   UNL     1     -42.975  55.216 -54.425  1.00  0.00     0.280 HD
HETATM   15  C   UNL     1     -42.514  55.193 -56.456  1.00  0.00     0.240 C 
HETATM   16  C   UNL     1     -42.874  56.342 -57.390  1.00  0.00     0.015 C 
HETATM   17  C   UNL     1     -43.855  57.137 -56.535  1.00  0.00     0.034 C 
HETATM   18  C   UNL     1     -43.203  57.145 -55.167  1.00  0.00     0.235 C 
BRANCH  16  19
HETATM   19  C   UNL     1     -43.422  55.837 -58.729  1.00  0.00     0.032 C 
BRANCH  19  20
HETATM   20  C   UNL     1     -42.937  56.638 -59.934  1.00  0.00     0.164 C 
BRANCH  20  21
HETATM   21  O   UNL     1     -41.603  56.275 -60.243  1.00  0.00    -0.401 OA
HETATM   22  H   UNL     1     -41.278  56.913 -60.906  1.00  0.00     0.209 HD
ENDBRANCH  20  21
ENDBRANCH  19  20
ENDBRANCH  16  19
ENDBRANCH  12  13
ENDBRANCH   7  12
TORSDOF 5
ENDMDL
MODEL 3
REMARK VINA RESULT:      -7.1      1.774      2.106
REMARK  5 active torsions:
REMARK  status: ('A' for Active; 'I' for Inactive)
REMARK    1  A    between atoms: C_7  and  C_8 
REMARK    2  A    between atoms: C_8  and  N_9 
REMARK    3  A    between atoms: C_12  and  C_13 
REMARK    4  A    between atoms: C_13  and  C_14 
REMARK    5  A    between atoms: C_14  and  O_15 
ROOT
HETATM    1  C   UNL     1     -42.851  54.687 -50.885  1.00  0.00     0.020 A 
HETATM    2  C   UNL     1     -43.214  55.748 -51.684  1.00  0.00     0.117 A 
HETATM    3  N   UNL     1     -42.724  55.954 -52.930  1.00  0.00    -0.260 NA
HETATM    4  C   UNL     1     -41.850  55.051 -53.430  1.00  0.00     0.076 A 
HETATM    5  C   UNL     1     -41.398  53.932 -52.690  1.00  0.00     0.011 A 
HETATM    6  C   UNL     1     -41.932  53.777 -51.392  1.00  0.00     0.016 A 
HETATM    7  C   UNL     1     -41.367  55.254 -54.727  1.00  0.00    -0.003 A 
HETATM    8  C   UNL     1     -40.444  54.367 -55.301  1.00  0.00     0.012 A 
HETATM    9  C   UNL     1     -39.987  53.273 -54.577  1.00  0.00     0.020 A 
HETATM   10  C   UNL     1     -40.459  53.052 -53.283  1.00  0.00     0.023 A 
HETATM   11 BR   UNL     1     -39.774  51.524 -52.379  1.00  0.00    -0.050 Br
ENDROOT
BRANCH   7  12
HETATM   12  C   UNL     1     -41.887  56.413 -55.542  1.00  0.00     0.275 C 
BRANCH  12  13
HETATM   13  N   UNL     1     -43.226  56.161 -56.180  1.00  0.00    -0.067 N 
HETATM   14  H   UNL     1     -43.795  55.790 -55.394  1.00  0.00     0.280 HD
HETATM   15  C   UNL     1     -43.210  55.135 -57.282  1.00  0.00     0.240 C 
HETATM   16  C   UNL     1     -43.475  55.944 -58.547  1.00  0.00     0.015 C 
HETATM   17  C   UNL     1     -44.481  56.975 -58.048  1.00  0.00     0.034 C 
HETATM   18  C   UNL     1     -43.914  57.398 -56.707  1.00  0.00     0.235 C 
BRANCH  16  19
HETATM   19  C   UNL     1     -43.955  55.055 -59.700  1.00  0.00     0.032 C 
BRANCH  19  20
HETATM   20  C   UNL     1     -44.852  55.777 -60.702  1.00  0.00     0.164 C 
BRANCH  20  21
HETATM   21  O   UNL     1     -44.950  55.014 -61.891  1.00  0.00    -0.401 OA
HETATM   22  H   UNL     1     -45.125  55.639 -62.620  1.00  0.00     0.209 HD
ENDBRANCH  20  21
ENDBRANCH  19  20
ENDBRANCH  16  19
ENDBRANCH  12  13
ENDBRANCH   7  12
TORSDOF 5
ENDMDL
MODEL 4
REMARK VINA RESULT:      -6.9      2.507      3.040
REMARK  5 active torsions:
REMARK  status: ('A' for Active; 'I' for Inactive)
REMARK    1  A    between atoms: C_7  and  C_8 
REMARK    2  A    between atoms: C_8  and  N_9 
REMARK    3  A    between atoms: C_12  and  C_13 
REMARK    4  A    between atoms: C_13  and  C_14 
REMARK    5  A    between atoms: C_14  and  O_15 
ROOT
HETATM    1  C   UNL     1     -40.277  52.247 -49.895  1.00  0.00     0.020 A 
HETATM    2  C   UNL     1     -40.661  53.567 -49.821  1.00  0.00     0.117 A 
HETATM    3  N   UNL     1     -40.853  54.357 -50.904  1.00  0.00    -0.260 NA
HETATM    4  C   UNL     1     -40.685  53.813 -52.130  1.00  0.00     0.076 A 
HETATM    5  C   UNL     1     -40.277  52.471 -52.323  1.00  0.00     0.011 A 
HETATM    6  C   UNL     1     -40.079  51.699 -51.157  1.00  0.00     0.016 A 
HETATM    7  C   UNL     1     -40.908  54.626 -53.247  1.00  0.00    -0.003 A 
HETATM    8  C   UNL     1     -40.735  54.130 -54.548  1.00  0.00     0.012 A 
HETATM    9  C   UNL     1     -40.324  52.818 -54.744  1.00  0.00     0.020 A 
HETATM   10  C   UNL     1     -40.099  51.991 -53.643  1.00  0.00     0.023 A 
HETATM   11 BR   UNL     1     -39.543  50.210 -54.021  1.00  0.00    -0.050 Br
ENDROOT
BRANCH   7  12
HETATM   12  C   UNL     1     -41.397  56.041 -53.050  1.00  0.00     0.275 C 
BRANCH  12  13
HETATM   13  N   UNL     1     -42.893  56.163 -52.950  1.00  0.00    -0.067 N 
HETATM   14  H   UNL     1     -43.212  55.174 -52.981  1.00  0.00     0.280 HD
HETATM   15  C   UNL     1     -43.538  56.909 -54.087  1.00  0.00     0.240 C 
HETATM   16  C   UNL     1     -44.030  58.204 -53.452  1.00  0.00     0.015 C 
HETATM   17  C   UNL     1     -44.490  57.720 -52.081  1.00  0.00     0.034 C 
HETATM   18  C   UNL     1     -43.389  56.769 -51.658  1.00  0.00     0.235 C 
BRANCH  16  19
HETATM   19  C   UNL     1     -45.103  58.886 -54.308  1.00  0.00     0.032 C 
BRANCH  19  20
HETATM   20  C   UNL     1     -45.142  58.396 -55.752  1.00  0.00     0.164 C 
BRANCH  20  21
HETATM   21  O   UNL     1     -46.310  57.623 -55.963  1.00  0.00    -0.401 OA
HETATM   22  H   UNL     1     -46.512  57.172 -55.121  1.00  0.00     0.209 HD
ENDBRANCH  20  21
ENDBRANCH  19  20
ENDBRANCH  16  19
ENDBRANCH  12  13
ENDBRANCH   7  12
TORSDOF 5
ENDMDL
MODEL 5
REMARK VINA RESULT:      -6.8      3.316      4.544
REMARK  5 active torsions:
REMARK  status: ('A' for Active; 'I' for Inactive)
REMARK    1  A    between atoms: C_7  and  C_8 
REMARK    2  A    between atoms: C_8  and  N_9 
REMARK    3  A    between atoms: C_12  and  C_13 
REMARK    4  A    between atoms: C_13  and  C_14 
REMARK    5  A    between atoms: C_14  and  O_15 
ROOT
HETATM    1  C   UNL     1     -40.307  52.679 -49.950  1.00  0.00     0.020 A 
HETATM    2  C   UNL     1     -40.892  53.925 -49.963  1.00  0.00     0.117 A 
HETATM    3  N   UNL     1     -41.257  54.575 -51.093  1.00  0.00    -0.260 NA
HETATM    4  C   UNL     1     -41.061  53.953 -52.279  1.00  0.00     0.076 A 
HETATM    5  C   UNL     1     -40.454  52.679 -52.384  1.00  0.00     0.011 A 
HETATM    6  C   UNL     1     -40.082  52.056 -51.172  1.00  0.00     0.016 A 
HETATM    7  C   UNL     1     -41.462  54.617 -53.443  1.00  0.00    -0.003 A 
HETATM    8  C   UNL     1     -41.271  54.039 -54.707  1.00  0.00     0.012 A 
HETATM    9  C   UNL     1     -40.666  52.793 -54.818  1.00  0.00     0.020 A 
HETATM   10  C   UNL     1     -40.262  52.114 -53.668  1.00  0.00     0.023 A 
HETATM   11 BR   UNL     1     -39.447  50.415 -53.930  1.00  0.00    -0.050 Br
ENDROOT
BRANCH   7  12
HETATM   12  C   UNL     1     -42.160  55.952 -53.335  1.00  0.00     0.275 C 
BRANCH  12  13
HETATM   13  N   UNL     1     -41.227  57.132 -53.313  1.00  0.00    -0.067 N 
HETATM   14  H   UNL     1     -40.328  56.726 -53.642  1.00  0.00     0.280 HD
HETATM   15  C   UNL     1     -41.009  57.732 -51.950  1.00  0.00     0.240 C 
HETATM   16  C   UNL     1     -41.697  59.090 -52.027  1.00  0.00     0.015 C 
HETATM   17  C   UNL     1     -41.380  59.516 -53.456  1.00  0.00     0.034 C 
HETATM   18  C   UNL     1     -41.604  58.249 -54.258  1.00  0.00     0.235 C 
BRANCH  16  19
HETATM   19  C   UNL     1     -41.206  60.040 -50.929  1.00  0.00     0.032 C 
BRANCH  19  20
HETATM   20  C   UNL     1     -39.980  59.530 -50.178  1.00  0.00     0.164 C 
BRANCH  20  21
HETATM   21  O   UNL     1     -38.805  60.061 -50.766  1.00  0.00    -0.401 OA
HETATM   22  H   UNL     1     -38.981  61.000 -50.963  1.00  0.00     0.209 HD
ENDBRANCH  20  21
ENDBRANCH  19  20
ENDBRANCH  16  19
ENDBRANCH  12  13
ENDBRANCH   7  12
TORSDOF 5
ENDMDL
MODEL 6
REMARK VINA RESULT:      -6.8      2.322      3.455
REMARK  5 active torsions:
REMARK  status: ('A' for Active; 'I' for Inactive)
REMARK    1  A    between atoms: C_7  and  C_8 
REMARK    2  A    between atoms: C_8  and  N_9 
REMARK    3  A    between atoms: C_12  and  C_13 
REMARK    4  A    between atoms: C_13  and  C_14 
REMARK    5  A    between atoms: C_14  and  O_15 
ROOT
HETATM    1  C   UNL     1     -39.489  51.825 -52.587  1.00  0.00     0.020 A 
HETATM    2  C   UNL     1     -40.246  52.064 -53.711  1.00  0.00     0.117 A 
HETATM    3  N   UNL     1     -41.310  52.900 -53.739  1.00  0.00    -0.260 NA
HETATM    4  C   UNL     1     -41.633  53.561 -52.604  1.00  0.00     0.076 A 
HETATM    5  C   UNL     1     -40.933  53.380 -51.387  1.00  0.00     0.011 A 
HETATM    6  C   UNL     1     -39.841  52.485 -51.415  1.00  0.00     0.016 A 
HETATM    7  C   UNL     1     -42.718  54.443 -52.643  1.00  0.00    -0.003 A 
HETATM    8  C   UNL     1     -43.119  55.147 -51.497  1.00  0.00     0.012 A 
HETATM    9  C   UNL     1     -42.444  54.966 -50.297  1.00  0.00     0.020 A 
HETATM   10  C   UNL     1     -41.358  54.092 -50.239  1.00  0.00     0.023 A 
HETATM   11 BR   UNL     1     -40.500  53.918 -48.549  1.00  0.00    -0.050 Br
ENDROOT
BRANCH   7  12
HETATM   12  C   UNL     1     -43.434  54.684 -53.950  1.00  0.00     0.275 C 
BRANCH  12  13
HETATM   13  N   UNL     1     -42.777  55.715 -54.828  1.00  0.00    -0.067 N 
HETATM   14  H   UNL     1     -41.859  55.866 -54.364  1.00  0.00     0.280 HD
HETATM   15  C   UNL     1     -43.500  57.033 -54.895  1.00  0.00     0.240 C 
HETATM   16  C   UNL     1     -44.037  57.091 -56.321  1.00  0.00     0.015 C 
HETATM   17  C   UNL     1     -42.900  56.443 -57.104  1.00  0.00     0.034 C 
HETATM   18  C   UNL     1     -42.511  55.258 -56.243  1.00  0.00     0.235 C 
BRANCH  16  19
HETATM   19  C   UNL     1     -44.395  58.522 -56.737  1.00  0.00     0.032 C 
BRANCH  19  20
HETATM   20  C   UNL     1     -45.858  58.699 -57.133  1.00  0.00     0.164 C 
BRANCH  20  21
HETATM   21  O   UNL     1     -46.664  57.792 -56.401  1.00  0.00    -0.401 OA
HETATM   22  H   UNL     1     -47.364  57.478 -57.003  1.00  0.00     0.209 HD
ENDBRANCH  20  21
ENDBRANCH  19  20
ENDBRANCH  16  19
ENDBRANCH  12  13
ENDBRANCH   7  12
TORSDOF 5
ENDMDL
MODEL 7
REMARK VINA RESULT:      -6.7      3.388      5.575
REMARK  5 active torsions:
REMARK  status: ('A' for Active; 'I' for Inactive)
REMARK    1  A    between atoms: C_7  and  C_8 
REMARK    2  A    between atoms: C_8  and  N_9 
REMARK    3  A    between atoms: C_12  and  C_13 
REMARK    4  A    between atoms: C_13  and  C_14 
REMARK    5  A    between atoms: C_14  and  O_15 
ROOT
HETATM    1  C   UNL     1     -42.273  54.342 -55.518  1.00  0.00     0.020 A 
HETATM    2  C   UNL     1     -42.907  55.420 -54.942  1.00  0.00     0.117 A 
HETATM    3  N   UNL     1     -42.809  55.738 -53.629  1.00  0.00    -0.260 NA
HETATM    4  C   UNL     1     -42.020  54.970 -52.843  1.00  0.00     0.076 A 
HETATM    5  C   UNL     1     -41.335  53.830 -53.327  1.00  0.00     0.011 A 
HETATM    6  C   UNL     1     -41.486  53.539 -54.701  1.00  0.00     0.016 A 
HETATM    7  C   UNL     1     -41.902  55.317 -51.493  1.00  0.00    -0.003 A 
HETATM    8  C   UNL     1     -41.115  54.553 -50.617  1.00  0.00     0.012 A 
HETATM    9  C   UNL     1     -40.449  53.427 -51.083  1.00  0.00     0.020 A 
HETATM   10  C   UNL     1     -40.553  53.066 -52.426  1.00  0.00     0.023 A 
HETATM   11 BR   UNL     1     -39.598  51.510 -52.962  1.00  0.00    -0.050 Br
ENDROOT
BRANCH   7  12
HETATM   12  C   UNL     1     -42.585  56.563 -50.982  1.00  0.00     0.275 C 
BRANCH  12  13
HETATM   13  N   UNL     1     -42.034  57.841 -51.554  1.00  0.00    -0.067 N 
HETATM   14  H   UNL     1     -42.101  57.687 -52.580  1.00  0.00     0.280 HD
HETATM   15  C   UNL     1     -40.595  58.113 -51.206  1.00  0.00     0.240 C 
HETATM   16  C   UNL     1     -40.660  59.311 -50.266  1.00  0.00     0.015 C 
HETATM   17  C   UNL     1     -41.793  60.125 -50.881  1.00  0.00     0.034 C 
HETATM   18  C   UNL     1     -42.835  59.076 -51.217  1.00  0.00     0.235 C 
BRANCH  16  19
HETATM   19  C   UNL     1     -39.309  60.029 -50.164  1.00  0.00     0.032 C 
BRANCH  19  20
HETATM   20  C   UNL     1     -38.153  59.255 -50.790  1.00  0.00     0.164 C 
BRANCH  20  21
HETATM   21  O   UNL     1     -38.197  59.388 -52.200  1.00  0.00    -0.401 OA
HETATM   22  H   UNL     1     -38.389  58.504 -52.566  1.00  0.00     0.209 HD
ENDBRANCH  20  21
ENDBRANCH  19  20
ENDBRANCH  16  19
ENDBRANCH  12  13
ENDBRANCH   7  12
TORSDOF 5
ENDMDL
MODEL 8
REMARK VINA RESULT:      -6.7      3.606      5.144
REMARK  5 active torsions:
REMARK  status: ('A' for Active; 'I' for Inactive)
REMARK    1  A    between atoms: C_7  and  C_8 
REMARK    2  A    between atoms: C_8  and  N_9 
REMARK    3  A    between atoms: C_12  and  C_13 
REMARK    4  A    between atoms: C_13  and  C_14 
REMARK    5  A    between atoms: C_14  and  O_15 
ROOT
HETATM    1  C   UNL     1     -41.264  55.053 -49.416  1.00  0.00     0.020 A 
HETATM    2  C   UNL     1     -41.867  54.123 -50.233  1.00  0.00     0.117 A 
HETATM    3  N   UNL     1     -42.393  54.415 -51.446  1.00  0.00    -0.260 NA
HETATM    4  C   UNL     1     -42.297  55.687 -51.895  1.00  0.00     0.076 A 
HETATM    5  C   UNL     1     -41.711  56.725 -51.132  1.00  0.00     0.011 A 
HETATM    6  C   UNL     1     -41.192  56.365 -49.869  1.00  0.00     0.016 A 
HETATM    7  C   UNL     1     -42.820  55.979 -53.159  1.00  0.00    -0.003 A 
HETATM    8  C   UNL     1     -42.770  57.282 -53.678  1.00  0.00     0.012 A 
HETATM    9  C   UNL     1     -42.207  58.308 -52.930  1.00  0.00     0.020 A 
HETATM   10  C   UNL     1     -41.678  58.036 -51.669  1.00  0.00     0.023 A 
HETATM   11 BR   UNL     1     -40.927  59.510 -50.728  1.00  0.00    -0.050 Br
ENDROOT
BRANCH   7  12
HETATM   12  C   UNL     1     -43.395  54.866 -54.002  1.00  0.00     0.275 C 
BRANCH  12  13
HETATM   13  N   UNL     1     -42.380  54.159 -54.858  1.00  0.00    -0.067 N 
HETATM   14  H   UNL     1     -42.899  53.984 -55.741  1.00  0.00     0.280 HD
HETATM   15  C   UNL     1     -41.910  52.839 -54.310  1.00  0.00     0.240 C 
HETATM   16  C   UNL     1     -40.459  53.093 -53.918  1.00  0.00     0.015 C 
HETATM   17  C   UNL     1     -39.997  54.023 -55.034  1.00  0.00     0.034 C 
HETATM   18  C   UNL     1     -41.159  54.983 -55.195  1.00  0.00     0.235 C 
BRANCH  16  19
HETATM   19  C   UNL     1     -39.670  51.786 -53.777  1.00  0.00     0.032 C 
BRANCH  19  20
HETATM   20  C   UNL     1     -40.364  50.578 -54.399  1.00  0.00     0.164 C 
BRANCH  20  21
HETATM   21  O   UNL     1     -39.517  49.446 -54.316  1.00  0.00    -0.401 OA
HETATM   22  H   UNL     1     -39.459  49.198 -53.374  1.00  0.00     0.209 HD
ENDBRANCH  20  21
ENDBRANCH  19  20
ENDBRANCH  16  19
ENDBRANCH  12  13
ENDBRANCH   7  12
TORSDOF 5
ENDMDL
MODEL 9
REMARK VINA RESULT:      -6.7      4.324      6.224
REMARK  5 active torsions:
REMARK  status: ('A' for Active; 'I' for Inactive)
REMARK    1  A    between atoms: C_7  and  C_8 
REMARK    2  A    between atoms: C_8  and  N_9 
REMARK    3  A    between atoms: C_12  and  C_13 
REMARK    4  A    between atoms: C_13  and  C_14 
REMARK    5  A    between atoms: C_14  and  O_15 
ROOT
HETATM    1  C   UNL     1     -41.367  60.207 -50.277  1.00  0.00     0.020 A 
HETATM    2  C   UNL     1     -40.534  59.117 -50.394  1.00  0.00     0.117 A 
HETATM    3  N   UNL     1     -40.884  57.965 -51.014  1.00  0.00    -0.260 NA
HETATM    4  C   UNL     1     -42.112  57.889 -51.576  1.00  0.00     0.076 A 
HETATM    5  C   UNL     1     -43.054  58.944 -51.502  1.00  0.00     0.011 A 
HETATM    6  C   UNL     1     -42.639  60.115 -50.831  1.00  0.00     0.016 A 
HETATM    7  C   UNL     1     -42.460  56.707 -52.237  1.00  0.00    -0.003 A 
HETATM    8  C   UNL     1     -43.725  56.554 -52.826  1.00  0.00     0.012 A 
HETATM    9  C   UNL     1     -44.658  57.580 -52.748  1.00  0.00     0.020 A 
HETATM   10  C   UNL     1     -44.328  58.768 -52.095  1.00  0.00     0.023 A 
HETATM   11 BR   UNL     1     -45.675  60.111 -52.049  1.00  0.00    -0.050 Br
ENDROOT
BRANCH   7  12
HETATM   12  C   UNL     1     -41.442  55.600 -52.368  1.00  0.00     0.275 C 
BRANCH  12  13
HETATM   13  N   UNL     1     -41.551  54.815 -53.647  1.00  0.00    -0.067 N 
HETATM   14  H   UNL     1     -42.456  55.137 -54.043  1.00  0.00     0.280 HD
HETATM   15  C   UNL     1     -41.615  53.323 -53.462  1.00  0.00     0.240 C 
HETATM   16  C   UNL     1     -40.287  52.821 -54.016  1.00  0.00     0.015 C 
HETATM   17  C   UNL     1     -40.079  53.752 -55.205  1.00  0.00     0.034 C 
HETATM   18  C   UNL     1     -40.470  55.111 -54.660  1.00  0.00     0.235 C 
BRANCH  16  19
HETATM   19  C   UNL     1     -40.337  51.325 -54.348  1.00  0.00     0.032 C 
BRANCH  19  20
HETATM   20  C   UNL     1     -39.711  50.437 -53.278  1.00  0.00     0.164 C 
BRANCH  20  21
HETATM   21  O   UNL     1     -39.307  49.207 -53.855  1.00  0.00    -0.401 OA
HETATM   22  H   UNL     1     -40.057  48.589 -53.769  1.00  0.00     0.209 HD
ENDBRANCH  20  21
ENDBRANCH  19  20
ENDBRANCH  16  19
ENDBRANCH  12  13
ENDBRANCH   7  12
TORSDOF 5
ENDMDL
MODEL 10
REMARK VINA RESULT:      -6.7      2.607      4.580
REMARK  5 active torsions:
REMARK  status: ('A' for Active; 'I' for Inactive)
REMARK    1  A    between atoms: C_7  and  C_8 
REMARK    2  A    between atoms: C_8  and  N_9 
REMARK    3  A    between atoms: C_12  and  C_13 
REMARK    4  A    between atoms: C_13  and  C_14 
REMARK    5  A    between atoms: C_14  and  O_15 
ROOT
HETATM    1  C   UNL     1     -42.811  54.303 -55.460  1.00  0.00     0.020 A 
HETATM    2  C   UNL     1     -43.555  55.185 -54.709  1.00  0.00     0.117 A 
HETATM    3  N   UNL     1     -43.421  55.333 -53.370  1.00  0.00    -0.260 NA
HETATM    4  C   UNL     1     -42.483  54.594 -52.736  1.00  0.00     0.076 A 
HETATM    5  C   UNL     1     -41.673  53.646 -53.406  1.00  0.00     0.011 A 
HETATM    6  C   UNL     1     -41.867  53.525 -54.800  1.00  0.00     0.016 A 
HETATM    7  C   UNL     1     -42.331  54.768 -51.356  1.00  0.00    -0.003 A 
HETATM    8  C   UNL     1     -41.390  54.020 -50.633  1.00  0.00     0.012 A 
HETATM    9  C   UNL     1     -40.599  53.081 -51.282  1.00  0.00     0.020 A 
HETATM   10  C   UNL     1     -40.735  52.894 -52.658  1.00  0.00     0.023 A 
HETATM   11 BR   UNL     1     -39.602  51.586 -53.451  1.00  0.00    -0.050 Br
ENDROOT
BRANCH   7  12
HETATM   12  C   UNL     1     -43.152  55.817 -50.644  1.00  0.00     0.275 C 
BRANCH  12  13
HETATM   13  N   UNL     1     -42.466  57.150 -50.517  1.00  0.00    -0.067 N 
HETATM   14  H   UNL     1     -42.693  57.439 -49.546  1.00  0.00     0.280 HD
HETATM   15  C   UNL     1     -42.974  58.206 -51.461  1.00  0.00     0.240 C 
HETATM   16  C   UNL     1     -41.820  58.423 -52.434  1.00  0.00     0.015 C 
HETATM   17  C   UNL     1     -40.612  58.290 -51.513  1.00  0.00     0.034 C 
HETATM   18  C   UNL     1     -40.962  57.097 -50.646  1.00  0.00     0.235 C 
BRANCH  16  19
HETATM   19  C   UNL     1     -41.943  59.759 -53.174  1.00  0.00     0.032 C 
BRANCH  19  20
HETATM   20  C   UNL     1     -42.468  59.626 -54.601  1.00  0.00     0.164 C 
BRANCH  20  21
HETATM   21  O   UNL     1     -41.563  60.240 -55.502  1.00  0.00    -0.401 OA
HETATM   22  H   UNL     1     -42.021  61.009 -55.890  1.00  0.00     0.209 HD
ENDBRANCH  20  21
ENDBRANCH  19  20
ENDBRANCH  16  19
ENDBRANCH  12  13
ENDBRANCH   7  12
TORSDOF 5
ENDMDL
