MODEL 1
REMARK VINA RESULT:      -8.6      0.000      0.000
REMARK  2 active torsions:
REMARK  status: ('A' for Active; 'I' for Inactive)
REMARK    1  A    between atoms: C_5  and  O_6 
REMARK    2  A    between atoms: C_5  and  C_7 
ROOT
HETATM    1  C   UNL     1     -41.492  59.292 -52.583  1.00  0.00     0.050 C 
HETATM    2  C   UNL     1     -42.097  57.953 -52.303  1.00  0.00    -0.034 A 
HETATM    3  C   UNL     1     -41.674  56.794 -52.939  1.00  0.00     0.052 A 
HETATM    4  C   UNL     1     -42.212  55.525 -52.668  1.00  0.00     0.039 A 
HETATM    5  C   UNL     1     -41.538  54.506 -53.548  1.00  0.00     0.200 A 
HETATM    6  C   UNL     1     -40.519  55.386 -54.340  1.00  0.00     0.266 A 
HETATM    7  O   UNL     1     -39.761  55.027 -55.230  1.00  0.00    -0.269 OA
HETATM    8  N   UNL     1     -40.678  56.697 -53.905  1.00  0.00    -0.323 N 
HETATM    9  C   UNL     1     -43.221  55.399 -51.729  1.00  0.00     0.046 A 
HETATM   10 CL   UNL     1     -43.960  53.892 -51.359  1.00  0.00    -0.084 Cl
HETATM   11  C   UNL     1     -43.654  56.546 -51.054  1.00  0.00     0.025 A 
HETATM   12  C   UNL     1     -43.096  57.806 -51.332  1.00  0.00     0.011 A 
HETATM   13  H   UNL     1     -40.147  57.462 -54.293  1.00  0.00     0.169 HD
ENDROOT
BRANCH   5  14
HETATM   14  O   UNL     1     -42.483  53.946 -54.457  1.00  0.00    -0.371 OA
HETATM   15  H   UNL     1     -42.635  54.645 -55.117  1.00  0.00     0.212 HD
ENDBRANCH   5  14
BRANCH   5  16
HETATM   16  C   UNL     1     -40.844  53.474 -52.695  1.00  0.00     0.018 A 
HETATM   17  C   UNL     1     -40.442  52.128 -53.036  1.00  0.00     0.002 A 
HETATM   18  C   UNL     1     -39.845  51.566 -51.905  1.00  0.00     0.043 A 
HETATM   19  C   UNL     1     -40.518  51.331 -54.199  1.00  0.00     0.014 A 
HETATM   20  C   UNL     1     -39.323  50.266 -51.880  1.00  0.00     0.030 A 
HETATM   21  N   UNL     1     -39.883  52.511 -50.911  1.00  0.00    -0.365 N 
HETATM   22  C   UNL     1     -39.406  49.509 -53.049  1.00  0.00     0.002 A 
HETATM   23  C   UNL     1     -39.994  50.032 -54.195  1.00  0.00     0.001 A 
HETATM   24  H   UNL     1     -39.517  52.376 -49.978  1.00  0.00     0.165 HD
HETATM   25  C   UNL     1     -40.475  53.653 -51.368  1.00  0.00     0.100 A 
ENDBRANCH   5  16
TORSDOF 2
ENDMDL
MODEL 2
REMARK VINA RESULT:      -8.3      2.218      6.362
REMARK  2 active torsions:
REMARK  status: ('A' for Active; 'I' for Inactive)
REMARK    1  A    between atoms: C_5  and  O_6 
REMARK    2  A    between atoms: C_5  and  C_7 
ROOT
HETATM    1  C   UNL     1     -39.300  51.577 -52.593  1.00  0.00     0.050 C 
HETATM    2  C   UNL     1     -40.417  52.503 -52.957  1.00  0.00    -0.034 A 
HETATM    3  C   UNL     1     -41.066  53.295 -52.020  1.00  0.00     0.052 A 
HETATM    4  C   UNL     1     -42.098  54.190 -52.348  1.00  0.00     0.039 A 
HETATM    5  C   UNL     1     -42.583  54.865 -51.092  1.00  0.00     0.200 A 
HETATM    6  C   UNL     1     -41.652  54.235 -50.007  1.00  0.00     0.266 A 
HETATM    7  O   UNL     1     -41.687  54.424 -48.800  1.00  0.00    -0.269 OA
HETATM    8  N   UNL     1     -40.806  53.341 -50.654  1.00  0.00    -0.323 N 
HETATM    9  C   UNL     1     -42.511  54.300 -53.664  1.00  0.00     0.046 A 
HETATM   10 CL   UNL     1     -43.788  55.342 -54.151  1.00  0.00    -0.084 Cl
HETATM   11  C   UNL     1     -41.862  53.530 -54.637  1.00  0.00     0.025 A 
HETATM   12  C   UNL     1     -40.824  52.648 -54.289  1.00  0.00     0.011 A 
HETATM   13  H   UNL     1     -40.127  52.785 -50.157  1.00  0.00     0.169 HD
ENDROOT
BRANCH   5  14
HETATM   14  O   UNL     1     -43.933  54.491 -50.830  1.00  0.00    -0.371 OA
HETATM   15  H   UNL     1     -44.099  53.733 -51.417  1.00  0.00     0.212 HD
ENDBRANCH   5  14
BRANCH   5  16
HETATM   16  C   UNL     1     -42.386  56.356 -51.206  1.00  0.00     0.018 A 
HETATM   17  C   UNL     1     -43.376  57.408 -51.223  1.00  0.00     0.002 A 
HETATM   18  C   UNL     1     -42.698  58.623 -51.354  1.00  0.00     0.043 A 
HETATM   19  C   UNL     1     -44.785  57.453 -51.132  1.00  0.00     0.014 A 
HETATM   20  C   UNL     1     -43.349  59.863 -51.394  1.00  0.00     0.030 A 
HETATM   21  N   UNL     1     -41.358  58.338 -51.423  1.00  0.00    -0.365 N 
HETATM   22  C   UNL     1     -44.740  59.872 -51.292  1.00  0.00     0.002 A 
HETATM   23  C   UNL     1     -45.451  58.684 -51.162  1.00  0.00     0.001 A 
HETATM   24  H   UNL     1     -40.629  59.031 -51.520  1.00  0.00     0.165 HD
HETATM   25  C   UNL     1     -41.157  56.990 -51.336  1.00  0.00     0.100 A 
ENDBRANCH   5  16
TORSDOF 2
ENDMDL
MODEL 3
REMARK VINA RESULT:      -8.2      2.245      6.085
REMARK  2 active torsions:
REMARK  status: ('A' for Active; 'I' for Inactive)
REMARK    1  A    between atoms: C_5  and  O_6 
REMARK    2  A    between atoms: C_5  and  C_7 
ROOT
HETATM    1  C   UNL     1     -39.676  51.878 -51.648  1.00  0.00     0.050 C 
HETATM    2  C   UNL     1     -40.292  52.708 -52.729  1.00  0.00    -0.034 A 
HETATM    3  C   UNL     1     -41.428  53.479 -52.523  1.00  0.00     0.052 A 
HETATM    4  C   UNL     1     -42.004  54.286 -53.519  1.00  0.00     0.039 A 
HETATM    5  C   UNL     1     -43.228  54.962 -52.958  1.00  0.00     0.200 A 
HETATM    6  C   UNL     1     -43.242  54.435 -51.487  1.00  0.00     0.266 A 
HETATM    7  O   UNL     1     -44.083  54.658 -50.628  1.00  0.00    -0.269 OA
HETATM    8  N   UNL     1     -42.151  53.586 -51.340  1.00  0.00    -0.323 N 
HETATM    9  C   UNL     1     -41.433  54.325 -54.778  1.00  0.00     0.046 A 
HETATM   10 CL   UNL     1     -42.089  55.256 -56.065  1.00  0.00    -0.084 Cl
HETATM   11  C   UNL     1     -40.273  53.576 -55.012  1.00  0.00     0.025 A 
HETATM   12  C   UNL     1     -39.707  52.782 -53.999  1.00  0.00     0.011 A 
HETATM   13  H   UNL     1     -41.962  53.096 -50.478  1.00  0.00     0.169 HD
ENDROOT
BRANCH   5  14
HETATM   14  O   UNL     1     -44.393  54.498 -53.636  1.00  0.00    -0.371 OA
HETATM   15  H   UNL     1     -44.814  53.882 -53.012  1.00  0.00     0.212 HD
ENDBRANCH   5  14
BRANCH   5  16
HETATM   16  C   UNL     1     -43.055  56.459 -53.018  1.00  0.00     0.018 A 
HETATM   17  C   UNL     1     -42.160  57.305 -52.262  1.00  0.00     0.002 A 
HETATM   18  C   UNL     1     -42.380  58.623 -52.669  1.00  0.00     0.043 A 
HETATM   19  C   UNL     1     -41.175  57.082 -51.274  1.00  0.00     0.014 A 
HETATM   20  C   UNL     1     -41.672  59.714 -52.149  1.00  0.00     0.030 A 
HETATM   21  N   UNL     1     -43.368  58.597 -53.621  1.00  0.00    -0.365 N 
HETATM   22  C   UNL     1     -40.699  59.458 -51.182  1.00  0.00     0.002 A 
HETATM   23  C   UNL     1     -40.451  58.160 -50.750  1.00  0.00     0.001 A 
HETATM   24  H   UNL     1     -43.730  59.414 -54.094  1.00  0.00     0.165 HD
HETATM   25  C   UNL     1     -43.779  57.313 -53.839  1.00  0.00     0.100 A 
ENDBRANCH   5  16
TORSDOF 2
ENDMDL
MODEL 4
REMARK VINA RESULT:      -8.0      3.062      4.275
REMARK  2 active torsions:
REMARK  status: ('A' for Active; 'I' for Inactive)
REMARK    1  A    between atoms: C_5  and  O_6 
REMARK    2  A    between atoms: C_5  and  C_7 
ROOT
HETATM    1  C   UNL     1     -45.422  58.133 -55.590  1.00  0.00     0.050 C 
HETATM    2  C   UNL     1     -44.112  58.290 -54.886  1.00  0.00    -0.034 A 
HETATM    3  C   UNL     1     -43.924  57.911 -53.564  1.00  0.00     0.052 A 
HETATM    4  C   UNL     1     -42.693  58.026 -52.896  1.00  0.00     0.039 A 
HETATM    5  C   UNL     1     -42.856  57.543 -51.478  1.00  0.00     0.200 A 
HETATM    6  C   UNL     1     -44.358  57.114 -51.453  1.00  0.00     0.266 A 
HETATM    7  O   UNL     1     -44.995  56.698 -50.497  1.00  0.00    -0.269 OA
HETATM    8  N   UNL     1     -44.882  57.365 -52.717  1.00  0.00    -0.323 N 
HETATM    9  C   UNL     1     -41.601  58.548 -53.566  1.00  0.00     0.046 A 
HETATM   10 CL   UNL     1     -40.068  58.756 -52.817  1.00  0.00    -0.084 Cl
HETATM   11  C   UNL     1     -41.752  58.919 -54.907  1.00  0.00     0.025 A 
HETATM   12  C   UNL     1     -42.989  58.787 -55.561  1.00  0.00     0.011 A 
HETATM   13  H   UNL     1     -45.851  57.195 -52.942  1.00  0.00     0.169 HD
ENDROOT
BRANCH   5  14
HETATM   14  O   UNL     1     -42.660  58.625 -50.571  1.00  0.00    -0.371 OA
HETATM   15  H   UNL     1     -43.472  58.650 -50.036  1.00  0.00     0.212 HD
ENDBRANCH   5  14
BRANCH   5  16
HETATM   16  C   UNL     1     -41.933  56.376 -51.228  1.00  0.00     0.018 A 
HETATM   17  C   UNL     1     -41.667  55.229 -52.065  1.00  0.00     0.002 A 
HETATM   18  C   UNL     1     -40.746  54.421 -51.393  1.00  0.00     0.043 A 
HETATM   19  C   UNL     1     -42.112  54.796 -53.334  1.00  0.00     0.014 A 
HETATM   20  C   UNL     1     -40.250  53.222 -51.921  1.00  0.00     0.030 A 
HETATM   21  N   UNL     1     -40.463  55.032 -50.197  1.00  0.00    -0.365 N 
HETATM   22  C   UNL     1     -40.702  52.828 -53.180  1.00  0.00     0.002 A 
HETATM   23  C   UNL     1     -41.620  53.604 -53.881  1.00  0.00     0.001 A 
HETATM   24  H   UNL     1     -39.822  54.668 -49.506  1.00  0.00     0.165 HD
HETATM   25  C   UNL     1     -41.163  56.199 -50.087  1.00  0.00     0.100 A 
ENDBRANCH   5  16
TORSDOF 2
ENDMDL
MODEL 5
REMARK VINA RESULT:      -7.9      2.516      3.606
REMARK  2 active torsions:
REMARK  status: ('A' for Active; 'I' for Inactive)
REMARK    1  A    between atoms: C_5  and  O_6 
REMARK    2  A    between atoms: C_5  and  C_7 
ROOT
HETATM    1  C   UNL     1     -45.901  58.793 -51.165  1.00  0.00     0.050 C 
HETATM    2  C   UNL     1     -44.555  58.489 -51.744  1.00  0.00    -0.034 A 
HETATM    3  C   UNL     1     -43.868  57.317 -51.460  1.00  0.00     0.052 A 
HETATM    4  C   UNL     1     -42.616  57.003 -52.016  1.00  0.00     0.039 A 
HETATM    5  C   UNL     1     -42.157  55.674 -51.477  1.00  0.00     0.200 A 
HETATM    6  C   UNL     1     -43.350  55.271 -50.551  1.00  0.00     0.266 A 
HETATM    7  O   UNL     1     -43.434  54.282 -49.837  1.00  0.00    -0.269 OA
HETATM    8  N   UNL     1     -44.290  56.293 -50.619  1.00  0.00    -0.323 N 
HETATM    9  C   UNL     1     -42.015  57.894 -52.888  1.00  0.00     0.046 A 
HETATM   10 CL   UNL     1     -40.472  57.608 -53.587  1.00  0.00    -0.084 Cl
HETATM   11  C   UNL     1     -42.693  59.075 -53.212  1.00  0.00     0.025 A 
HETATM   12  C   UNL     1     -43.950  59.366 -52.652  1.00  0.00     0.011 A 
HETATM   13  H   UNL     1     -45.144  56.277 -50.081  1.00  0.00     0.169 HD
ENDROOT
BRANCH   5  14
HETATM   14  O   UNL     1     -40.984  55.849 -50.686  1.00  0.00    -0.371 OA
HETATM   15  H   UNL     1     -40.974  55.082 -50.086  1.00  0.00     0.212 HD
ENDBRANCH   5  14
BRANCH   5  16
HETATM   16  C   UNL     1     -41.973  54.699 -52.613  1.00  0.00     0.018 A 
HETATM   17  C   UNL     1     -41.106  53.546 -52.694  1.00  0.00     0.002 A 
HETATM   18  C   UNL     1     -41.287  52.969 -53.954  1.00  0.00     0.043 A 
HETATM   19  C   UNL     1     -40.188  52.926 -51.818  1.00  0.00     0.014 A 
HETATM   20  C   UNL     1     -40.609  51.817 -54.374  1.00  0.00     0.030 A 
HETATM   21  N   UNL     1     -42.212  53.731 -54.623  1.00  0.00    -0.365 N 
HETATM   22  C   UNL     1     -39.716  51.225 -53.481  1.00  0.00     0.002 A 
HETATM   23  C   UNL     1     -39.507  51.769 -52.219  1.00  0.00     0.001 A 
HETATM   24  H   UNL     1     -42.537  53.543 -55.561  1.00  0.00     0.165 HD
HETATM   25  C   UNL     1     -42.630  54.764 -53.835  1.00  0.00     0.100 A 
ENDBRANCH   5  16
TORSDOF 2
ENDMDL
MODEL 6
REMARK VINA RESULT:      -7.9      1.919      5.943
REMARK  2 active torsions:
REMARK  status: ('A' for Active; 'I' for Inactive)
REMARK    1  A    between atoms: C_5  and  O_6 
REMARK    2  A    between atoms: C_5  and  C_7 
ROOT
HETATM    1  C   UNL     1     -40.231  50.172 -54.352  1.00  0.00     0.050 C 
HETATM    2  C   UNL     1     -40.153  51.299 -53.371  1.00  0.00    -0.034 A 
HETATM    3  C   UNL     1     -40.724  52.540 -53.613  1.00  0.00     0.052 A 
HETATM    4  C   UNL     1     -40.684  53.601 -52.692  1.00  0.00     0.039 A 
HETATM    5  C   UNL     1     -41.379  54.797 -53.287  1.00  0.00     0.200 A 
HETATM    6  C   UNL     1     -41.841  54.245 -54.674  1.00  0.00     0.266 A 
HETATM    7  O   UNL     1     -42.411  54.859 -55.565  1.00  0.00    -0.269 OA
HETATM    8  N   UNL     1     -41.413  52.924 -54.759  1.00  0.00    -0.323 N 
HETATM    9  C   UNL     1     -40.043  53.425 -51.478  1.00  0.00     0.046 A 
HETATM   10 CL   UNL     1     -39.917  54.676 -50.307  1.00  0.00    -0.084 Cl
HETATM   11  C   UNL     1     -39.476  52.176 -51.195  1.00  0.00     0.025 A 
HETATM   12  C   UNL     1     -39.536  51.125 -52.126  1.00  0.00     0.011 A 
HETATM   13  H   UNL     1     -41.568  52.359 -55.579  1.00  0.00     0.169 HD
ENDROOT
BRANCH   5  14
HETATM   14  O   UNL     1     -40.444  55.853 -53.488  1.00  0.00    -0.371 OA
HETATM   15  H   UNL     1     -40.989  56.629 -53.704  1.00  0.00     0.212 HD
ENDBRANCH   5  14
BRANCH   5  16
HETATM   16  C   UNL     1     -42.550  55.189 -52.421  1.00  0.00     0.018 A 
HETATM   17  C   UNL     1     -43.122  56.498 -52.199  1.00  0.00     0.002 A 
HETATM   18  C   UNL     1     -44.187  56.348 -51.308  1.00  0.00     0.043 A 
HETATM   19  C   UNL     1     -42.846  57.799 -52.673  1.00  0.00     0.014 A 
HETATM   20  C   UNL     1     -44.982  57.417 -50.876  1.00  0.00     0.030 A 
HETATM   21  N   UNL     1     -44.266  55.015 -50.986  1.00  0.00    -0.365 N 
HETATM   22  C   UNL     1     -44.689  58.688 -51.371  1.00  0.00     0.002 A 
HETATM   23  C   UNL     1     -43.636  58.879 -52.259  1.00  0.00     0.001 A 
HETATM   24  H   UNL     1     -44.950  54.618 -50.357  1.00  0.00     0.165 HD
HETATM   25  C   UNL     1     -43.297  54.314 -51.644  1.00  0.00     0.100 A 
ENDBRANCH   5  16
TORSDOF 2
ENDMDL
MODEL 7
REMARK VINA RESULT:      -7.9      2.471      3.609
REMARK  2 active torsions:
REMARK  status: ('A' for Active; 'I' for Inactive)
REMARK    1  A    between atoms: C_5  and  O_6 
REMARK    2  A    between atoms: C_5  and  C_7 
ROOT
HETATM    1  C   UNL     1     -43.639  61.297 -49.854  1.00  0.00     0.050 C 
HETATM    2  C   UNL     1     -43.811  60.186 -50.841  1.00  0.00    -0.034 A 
HETATM    3  C   UNL     1     -42.736  59.561 -51.456  1.00  0.00     0.052 A 
HETATM    4  C   UNL     1     -42.878  58.498 -52.365  1.00  0.00     0.039 A 
HETATM    5  C   UNL     1     -41.515  58.078 -52.848  1.00  0.00     0.200 A 
HETATM    6  C   UNL     1     -40.578  59.047 -52.057  1.00  0.00     0.266 A 
HETATM    7  O   UNL     1     -39.362  59.138 -52.143  1.00  0.00    -0.269 OA
HETATM    8  N   UNL     1     -41.390  59.861 -51.275  1.00  0.00    -0.323 N 
HETATM    9  C   UNL     1     -44.144  58.040 -52.684  1.00  0.00     0.046 A 
HETATM   10 CL   UNL     1     -44.412  56.769 -53.810  1.00  0.00    -0.084 Cl
HETATM   11  C   UNL     1     -45.248  58.636 -52.064  1.00  0.00     0.025 A 
HETATM   12  C   UNL     1     -45.084  59.691 -51.150  1.00  0.00     0.011 A 
HETATM   13  H   UNL     1     -41.016  60.593 -50.690  1.00  0.00     0.169 HD
ENDROOT
BRANCH   5  14
HETATM   14  O   UNL     1     -41.392  58.340 -54.244  1.00  0.00    -0.371 OA
HETATM   15  H   UNL     1     -42.116  57.837 -54.655  1.00  0.00     0.212 HD
ENDBRANCH   5  14
BRANCH   5  16
HETATM   16  C   UNL     1     -41.267  56.635 -52.485  1.00  0.00     0.018 A 
HETATM   17  C   UNL     1     -40.943  55.521 -53.346  1.00  0.00     0.002 A 
HETATM   18  C   UNL     1     -40.818  54.387 -52.540  1.00  0.00     0.043 A 
HETATM   19  C   UNL     1     -40.734  55.361 -54.734  1.00  0.00     0.014 A 
HETATM   20  C   UNL     1     -40.496  53.120 -53.043  1.00  0.00     0.030 A 
HETATM   21  N   UNL     1     -41.062  54.776 -51.246  1.00  0.00    -0.365 N 
HETATM   22  C   UNL     1     -40.286  52.999 -54.417  1.00  0.00     0.002 A 
HETATM   23  C   UNL     1     -40.402  54.104 -55.254  1.00  0.00     0.001 A 
HETATM   24  H   UNL     1     -41.038  54.157 -50.448  1.00  0.00     0.165 HD
HETATM   25  C   UNL     1     -41.330  56.114 -51.199  1.00  0.00     0.100 A 
ENDBRANCH   5  16
TORSDOF 2
ENDMDL
MODEL 8
REMARK VINA RESULT:      -7.8     14.481     15.672
REMARK  2 active torsions:
REMARK  status: ('A' for Active; 'I' for Inactive)
REMARK    1  A    between atoms: C_5  and  O_6 
REMARK    2  A    between atoms: C_5  and  C_7 
ROOT
HETATM    1  C   UNL     1     -31.991  39.573 -50.975  1.00  0.00     0.050 C 
HETATM    2  C   UNL     1     -33.271  40.153 -51.490  1.00  0.00    -0.034 A 
HETATM    3  C   UNL     1     -33.464  40.467 -52.827  1.00  0.00     0.052 A 
HETATM    4  C   UNL     1     -34.669  40.986 -53.332  1.00  0.00     0.039 A 
HETATM    5  C   UNL     1     -34.519  41.227 -54.811  1.00  0.00     0.200 A 
HETATM    6  C   UNL     1     -33.057  40.742 -55.072  1.00  0.00     0.266 A 
HETATM    7  O   UNL     1     -32.438  40.783 -56.126  1.00  0.00    -0.269 OA
HETATM    8  N   UNL     1     -32.538  40.316 -53.855  1.00  0.00    -0.323 N 
HETATM    9  C   UNL     1     -35.727  41.211 -52.470  1.00  0.00     0.046 A 
HETATM   10 CL   UNL     1     -37.223  41.874 -52.994  1.00  0.00    -0.084 Cl
HETATM   11  C   UNL     1     -35.571  40.884 -51.118  1.00  0.00     0.025 A 
HETATM   12  C   UNL     1     -34.362  40.356 -50.635  1.00  0.00     0.011 A 
HETATM   13  H   UNL     1     -31.591  39.982 -53.759  1.00  0.00     0.169 HD
ENDROOT
BRANCH   5  14
HETATM   14  O   UNL     1     -34.609  42.622 -55.088  1.00  0.00    -0.371 OA
HETATM   15  H   UNL     1     -35.498  42.877 -54.786  1.00  0.00     0.212 HD
ENDBRANCH   5  14
BRANCH   5  16
HETATM   16  C   UNL     1     -35.529  40.399 -55.567  1.00  0.00     0.018 A 
HETATM   17  C   UNL     1     -36.286  40.740 -56.750  1.00  0.00     0.002 A 
HETATM   18  C   UNL     1     -37.096  39.646 -57.063  1.00  0.00     0.043 A 
HETATM   19  C   UNL     1     -36.359  41.870 -57.595  1.00  0.00     0.014 A 
HETATM   20  C   UNL     1     -37.960  39.622 -58.166  1.00  0.00     0.030 A 
HETATM   21  N   UNL     1     -36.860  38.679 -56.117  1.00  0.00    -0.365 N 
HETATM   22  C   UNL     1     -38.001  40.750 -58.985  1.00  0.00     0.002 A 
HETATM   23  C   UNL     1     -37.211  41.860 -58.706  1.00  0.00     0.001 A 
HETATM   24  H   UNL     1     -37.311  37.775 -56.098  1.00  0.00     0.165 HD
HETATM   25  C   UNL     1     -35.928  39.115 -55.220  1.00  0.00     0.100 A 
ENDBRANCH   5  16
TORSDOF 2
ENDMDL
MODEL 9
REMARK VINA RESULT:      -7.7      2.753      3.989
REMARK  2 active torsions:
REMARK  status: ('A' for Active; 'I' for Inactive)
REMARK    1  A    between atoms: C_5  and  O_6 
REMARK    2  A    between atoms: C_5  and  C_7 
ROOT
HETATM    1  C   UNL     1     -43.347  61.030 -49.946  1.00  0.00     0.050 C 
HETATM    2  C   UNL     1     -43.635  59.948 -50.937  1.00  0.00    -0.034 A 
HETATM    3  C   UNL     1     -42.649  59.382 -51.733  1.00  0.00     0.052 A 
HETATM    4  C   UNL     1     -42.896  58.346 -52.649  1.00  0.00     0.039 A 
HETATM    5  C   UNL     1     -41.612  57.992 -53.352  1.00  0.00     0.200 A 
HETATM    6  C   UNL     1     -40.595  58.967 -52.677  1.00  0.00     0.266 A 
HETATM    7  O   UNL     1     -39.410  59.106 -52.944  1.00  0.00    -0.269 OA
HETATM    8  N   UNL     1     -41.301  59.725 -51.749  1.00  0.00    -0.323 N 
HETATM    9  C   UNL     1     -44.181  57.853 -52.788  1.00  0.00     0.046 A 
HETATM   10 CL   UNL     1     -44.582  56.611 -53.908  1.00  0.00    -0.084 Cl
HETATM   11  C   UNL     1     -45.195  58.387 -51.984  1.00  0.00     0.025 A 
HETATM   12  C   UNL     1     -44.925  59.417 -51.066  1.00  0.00     0.011 A 
HETATM   13  H   UNL     1     -40.864  60.451 -51.201  1.00  0.00     0.169 HD
ENDROOT
BRANCH   5  14
HETATM   14  O   UNL     1     -41.714  58.305 -54.739  1.00  0.00    -0.371 OA
HETATM   15  H   UNL     1     -41.246  57.582 -55.191  1.00  0.00     0.212 HD
ENDBRANCH   5  14
BRANCH   5  16
HETATM   16  C   UNL     1     -41.267  56.548 -53.087  1.00  0.00     0.018 A 
HETATM   17  C   UNL     1     -41.199  55.843 -51.827  1.00  0.00     0.002 A 
HETATM   18  C   UNL     1     -40.828  54.524 -52.101  1.00  0.00     0.043 A 
HETATM   19  C   UNL     1     -41.424  56.191 -50.477  1.00  0.00     0.014 A 
HETATM   20  C   UNL     1     -40.677  53.548 -51.107  1.00  0.00     0.030 A 
HETATM   21  N   UNL     1     -40.665  54.419 -53.460  1.00  0.00    -0.365 N 
HETATM   22  C   UNL     1     -40.916  53.923 -49.785  1.00  0.00     0.002 A 
HETATM   23  C   UNL     1     -41.286  55.226 -49.471  1.00  0.00     0.001 A 
HETATM   24  H   UNL     1     -40.398  53.572 -53.941  1.00  0.00     0.165 HD
HETATM   25  C   UNL     1     -40.924  55.618 -54.059  1.00  0.00     0.100 A 
ENDBRANCH   5  16
TORSDOF 2
ENDMDL
MODEL 10
REMARK VINA RESULT:      -7.6      2.522      3.762
REMARK  2 active torsions:
REMARK  status: ('A' for Active; 'I' for Inactive)
REMARK    1  A    between atoms: C_5  and  O_6 
REMARK    2  A    between atoms: C_5  and  C_7 
ROOT
HETATM    1  C   UNL     1     -43.152  61.468 -51.389  1.00  0.00     0.050 C 
HETATM    2  C   UNL     1     -42.552  60.113 -51.186  1.00  0.00    -0.034 A 
HETATM    3  C   UNL     1     -43.010  58.985 -51.853  1.00  0.00     0.052 A 
HETATM    4  C   UNL     1     -42.440  57.710 -51.695  1.00  0.00     0.039 A 
HETATM    5  C   UNL     1     -43.194  56.725 -52.548  1.00  0.00     0.200 A 
HETATM    6  C   UNL     1     -44.260  57.639 -53.233  1.00  0.00     0.266 A 
HETATM    7  O   UNL     1     -45.156  57.296 -53.991  1.00  0.00    -0.269 OA
HETATM    8  N   UNL     1     -44.060  58.933 -52.764  1.00  0.00    -0.323 N 
HETATM    9  C   UNL     1     -41.374  57.544 -50.830  1.00  0.00     0.046 A 
HETATM   10 CL   UNL     1     -40.638  56.016 -50.549  1.00  0.00    -0.084 Cl
HETATM   11  C   UNL     1     -40.874  58.666 -50.158  1.00  0.00     0.025 A 
HETATM   12  C   UNL     1     -41.451  59.935 -50.338  1.00  0.00     0.011 A 
HETATM   13  H   UNL     1     -44.648  59.704 -53.041  1.00  0.00     0.169 HD
ENDROOT
BRANCH   5  14
HETATM   14  O   UNL     1     -43.854  55.770 -51.721  1.00  0.00    -0.371 OA
HETATM   15  H   UNL     1     -43.784  54.931 -52.208  1.00  0.00     0.212 HD
ENDBRANCH   5  14
BRANCH   5  16
HETATM   16  C   UNL     1     -42.259  56.101 -53.554  1.00  0.00     0.018 A 
HETATM   17  C   UNL     1     -41.623  54.804 -53.526  1.00  0.00     0.002 A 
HETATM   18  C   UNL     1     -40.842  54.691 -54.679  1.00  0.00     0.043 A 
HETATM   19  C   UNL     1     -41.639  53.705 -52.639  1.00  0.00     0.014 A 
HETATM   20  C   UNL     1     -40.090  53.551 -54.988  1.00  0.00     0.030 A 
HETATM   21  N   UNL     1     -40.979  55.863 -55.381  1.00  0.00    -0.365 N 
HETATM   22  C   UNL     1     -40.135  52.480 -54.095  1.00  0.00     0.002 A 
HETATM   23  C   UNL     1     -40.900  52.553 -52.935  1.00  0.00     0.001 A 
HETATM   24  H   UNL     1     -40.524  56.060 -56.262  1.00  0.00     0.165 HD
HETATM   25  C   UNL     1     -41.821  56.712 -54.722  1.00  0.00     0.100 A 
ENDBRANCH   5  16
TORSDOF 2
ENDMDL
