MODEL 1
REMARK VINA RESULT:      -9.1      0.000      0.000
REMARK  6 active torsions:
REMARK  status: ('A' for Active; 'I' for Inactive)
REMARK    1  A    between atoms: O_2  and  C_3 
REMARK    2  A    between atoms: C_5  and  O_6 
REMARK    3  A    between atoms: C_9  and  N_10 
REMARK       I    between atoms: N_10  and  C_11 
REMARK    4  A    between atoms: C_11  and  C_12 
REMARK    5  A    between atoms: C_12  and  N_13 
REMARK    6  A    between atoms: C_19  and  C_20 
ROOT
HETATM    1  N   UNL     1     -42.363  59.606 -50.776  1.00  0.00    -0.063 N 
HETATM    2  H   UNL     1     -42.484  59.359 -49.776  1.00  0.00     0.280 HD
HETATM    3  C   UNL     1     -43.349  58.761 -51.548  1.00  0.00     0.240 C 
HETATM    4  C   UNL     1     -42.989  57.291 -51.435  1.00  0.00     0.083 C 
HETATM    5  C   UNL     1     -41.546  57.025 -51.862  1.00  0.00     0.131 A 
HETATM    6  N   UNL     1     -41.238  55.607 -51.552  1.00  0.00    -0.251 NA
HETATM    7  C   UNL     1     -40.932  55.022 -52.681  1.00  0.00     0.132 A 
HETATM    8  C   UNL     1     -41.014  55.982 -53.845  1.00  0.00     0.272 A 
HETATM    9  O   UNL     1     -40.837  55.763 -55.017  1.00  0.00    -0.266 OA
HETATM   10  N   UNL     1     -41.362  57.168 -53.273  1.00  0.00    -0.327 N 
HETATM   11  C   UNL     1     -40.580  57.900 -51.064  1.00  0.00     0.083 C 
HETATM   12  C   UNL     1     -40.932  59.373 -51.171  1.00  0.00     0.240 C 
HETATM   13  H   UNL     1     -41.518  57.971 -53.868  1.00  0.00     0.165 HD
ENDROOT
BRANCH   1  14
HETATM   14  C   UNL     1     -42.731  61.100 -50.828  1.00  0.00     0.337 C 
BRANCH  14  15
HETATM   15  C   UNL     1     -44.042  61.369 -50.085  1.00  0.00     0.248 C 
HETATM   16  N   UNL     1     -43.953  61.230 -48.716  1.00  0.00    -0.326 N 
HETATM   17  H   UNL     1     -43.056  60.991 -48.305  1.00  0.00     0.169 HD
HETATM   18  O   UNL     1     -45.016  61.731 -50.743  1.00  0.00    -0.271 OA
BRANCH  16  19
HETATM   19  C   UNL     1     -44.981  61.440 -47.768  1.00  0.00     0.040 A 
HETATM   20  C   UNL     1     -45.865  60.449 -47.334  1.00  0.00     0.066 A 
HETATM   21  C   UNL     1     -46.853  60.752 -46.390  1.00  0.00     0.073 A 
HETATM   22  C   UNL     1     -46.966  62.054 -45.890  1.00  0.00     0.073 A 
HETATM   23  C   UNL     1     -46.093  63.051 -46.315  1.00  0.00     0.073 A 
HETATM   24  C   UNL     1     -45.098  62.733 -47.242  1.00  0.00     0.066 A 
BRANCH  21  25
HETATM   25  O   UNL     1     -47.768  59.874 -45.877  1.00  0.00    -0.356 OA
HETATM   26  C   UNL     1     -47.287  58.616 -45.424  1.00  0.00     0.210 C 
ENDBRANCH  21  25
BRANCH  23  27
HETATM   27  O   UNL     1     -46.097  64.357 -45.915  1.00  0.00    -0.356 OA
HETATM   28  C   UNL     1     -46.743  64.648 -44.679  1.00  0.00     0.210 C 
ENDBRANCH  23  27
ENDBRANCH  16  19
ENDBRANCH  14  15
ENDBRANCH   1  14
BRANCH   7  29
HETATM   29  C   UNL     1     -40.563  53.597 -52.794  1.00  0.00    -0.002 A 
HETATM   30  C   UNL     1     -40.014  52.957 -51.673  1.00  0.00     0.016 A 
HETATM   31  C   UNL     1     -39.652  51.608 -51.732  1.00  0.00     0.024 A 
HETATM   32  C   UNL     1     -39.832  50.894 -52.914  1.00  0.00     0.034 A 
HETATM   33 CL   UNL     1     -39.388  49.236 -52.990  1.00  0.00    -0.084 Cl
HETATM   34  C   UNL     1     -40.369  51.521 -54.037  1.00  0.00     0.024 A 
HETATM   35  C   UNL     1     -40.733  52.870 -53.978  1.00  0.00     0.016 A 
ENDBRANCH   7  29
TORSDOF 6
ENDMDL
MODEL 2
REMARK VINA RESULT:      -8.9      0.275      2.274
REMARK  6 active torsions:
REMARK  status: ('A' for Active; 'I' for Inactive)
REMARK    1  A    between atoms: O_2  and  C_3 
REMARK    2  A    between atoms: C_5  and  O_6 
REMARK    3  A    between atoms: C_9  and  N_10 
REMARK       I    between atoms: N_10  and  C_11 
REMARK    4  A    between atoms: C_11  and  C_12 
REMARK    5  A    between atoms: C_12  and  N_13 
REMARK    6  A    between atoms: C_19  and  C_20 
ROOT
HETATM    1  N   UNL     1     -42.471  59.673 -50.688  1.00  0.00    -0.063 N 
HETATM    2  H   UNL     1     -42.576  59.428 -49.685  1.00  0.00     0.280 HD
HETATM    3  C   UNL     1     -43.449  58.807 -51.446  1.00  0.00     0.240 C 
HETATM    4  C   UNL     1     -43.062  57.344 -51.330  1.00  0.00     0.083 C 
HETATM    5  C   UNL     1     -41.619  57.102 -51.772  1.00  0.00     0.131 A 
HETATM    6  N   UNL     1     -41.282  55.692 -51.459  1.00  0.00    -0.251 NA
HETATM    7  C   UNL     1     -40.977  55.108 -52.588  1.00  0.00     0.132 A 
HETATM    8  C   UNL     1     -41.089  56.061 -53.756  1.00  0.00     0.272 A 
HETATM    9  O   UNL     1     -40.920  55.839 -54.929  1.00  0.00    -0.266 OA
HETATM   10  N   UNL     1     -41.452  57.243 -53.185  1.00  0.00    -0.327 N 
HETATM   11  C   UNL     1     -40.660  57.998 -50.987  1.00  0.00     0.083 C 
HETATM   12  C   UNL     1     -41.039  59.464 -51.097  1.00  0.00     0.240 C 
HETATM   13  H   UNL     1     -41.629  58.041 -53.782  1.00  0.00     0.165 HD
ENDROOT
BRANCH   1  14
HETATM   14  C   UNL     1     -42.866  61.160 -50.741  1.00  0.00     0.337 C 
BRANCH  14  15
HETATM   15  C   UNL     1     -44.189  61.404 -50.011  1.00  0.00     0.248 C 
HETATM   16  N   UNL     1     -44.058  61.569 -48.648  1.00  0.00    -0.326 N 
HETATM   17  H   UNL     1     -43.130  61.542 -48.239  1.00  0.00     0.169 HD
HETATM   18  O   UNL     1     -45.214  61.488 -50.685  1.00  0.00    -0.271 OA
BRANCH  16  19
HETATM   19  C   UNL     1     -45.088  61.836 -47.718  1.00  0.00     0.040 A 
HETATM   20  C   UNL     1     -45.360  63.099 -47.185  1.00  0.00     0.066 A 
HETATM   21  C   UNL     1     -46.404  63.265 -46.268  1.00  0.00     0.073 A 
HETATM   22  C   UNL     1     -47.168  62.162 -45.871  1.00  0.00     0.073 A 
HETATM   23  C   UNL     1     -46.907  60.899 -46.393  1.00  0.00     0.073 A 
HETATM   24  C   UNL     1     -45.876  60.747 -47.323  1.00  0.00     0.066 A 
BRANCH  21  25
HETATM   25  O   UNL     1     -46.778  64.445 -45.684  1.00  0.00    -0.356 OA
HETATM   26  C   UNL     1     -46.725  64.519 -44.265  1.00  0.00     0.210 C 
ENDBRANCH  21  25
BRANCH  23  27
HETATM   27  O   UNL     1     -47.569  59.744 -46.087  1.00  0.00    -0.356 OA
HETATM   28  C   UNL     1     -46.818  58.726 -45.433  1.00  0.00     0.210 C 
ENDBRANCH  23  27
ENDBRANCH  16  19
ENDBRANCH  14  15
ENDBRANCH   1  14
BRANCH   7  29
HETATM   29  C   UNL     1     -40.584  53.689 -52.700  1.00  0.00    -0.002 A 
HETATM   30  C   UNL     1     -40.805  53.027 -53.917  1.00  0.00     0.016 A 
HETATM   31  C   UNL     1     -40.448  51.684 -54.070  1.00  0.00     0.024 A 
HETATM   32  C   UNL     1     -39.872  50.995 -53.005  1.00  0.00     0.034 A 
HETATM   33 CL   UNL     1     -39.431  49.345 -53.190  1.00  0.00    -0.084 Cl
HETATM   34  C   UNL     1     -39.654  51.640 -51.789  1.00  0.00     0.024 A 
HETATM   35  C   UNL     1     -40.010  52.984 -51.635  1.00  0.00     0.016 A 
ENDBRANCH   7  29
TORSDOF 6
ENDMDL
MODEL 3
REMARK VINA RESULT:      -8.6      1.433      2.609
REMARK  6 active torsions:
REMARK  status: ('A' for Active; 'I' for Inactive)
REMARK    1  A    between atoms: O_2  and  C_3 
REMARK    2  A    between atoms: C_5  and  O_6 
REMARK    3  A    between atoms: C_9  and  N_10 
REMARK       I    between atoms: N_10  and  C_11 
REMARK    4  A    between atoms: C_11  and  C_12 
REMARK    5  A    between atoms: C_12  and  N_13 
REMARK    6  A    between atoms: C_19  and  C_20 
ROOT
HETATM    1  N   UNL     1     -42.553  60.053 -52.424  1.00  0.00    -0.063 N 
HETATM    2  H   UNL     1     -41.715  60.409 -52.922  1.00  0.00     0.280 HD
HETATM    3  C   UNL     1     -42.047  59.308 -51.212  1.00  0.00     0.240 C 
HETATM    4  C   UNL     1     -41.261  58.080 -51.635  1.00  0.00     0.083 C 
HETATM    5  C   UNL     1     -42.072  57.180 -52.566  1.00  0.00     0.131 A 
HETATM    6  N   UNL     1     -41.168  56.111 -53.060  1.00  0.00    -0.251 NA
HETATM    7  C   UNL     1     -41.674  54.969 -52.675  1.00  0.00     0.132 A 
HETATM    8  C   UNL     1     -42.948  55.162 -51.886  1.00  0.00     0.272 A 
HETATM    9  O   UNL     1     -43.639  54.330 -51.354  1.00  0.00    -0.266 OA
HETATM   10  N   UNL     1     -43.136  56.511 -51.885  1.00  0.00    -0.327 N 
HETATM   11  C   UNL     1     -42.570  57.969 -53.777  1.00  0.00     0.083 C 
HETATM   12  C   UNL     1     -43.358  59.199 -53.364  1.00  0.00     0.240 C 
HETATM   13  H   UNL     1     -43.921  56.895 -51.375  1.00  0.00     0.165 HD
ENDROOT
BRANCH   1  14
HETATM   14  C   UNL     1     -43.310  61.334 -52.030  1.00  0.00     0.337 C 
BRANCH  14  15
HETATM   15  C   UNL     1     -44.309  61.058 -50.903  1.00  0.00     0.248 C 
HETATM   16  N   UNL     1     -44.019  61.708 -49.722  1.00  0.00    -0.326 N 
HETATM   17  H   UNL     1     -43.209  62.318 -49.684  1.00  0.00     0.169 HD
HETATM   18  O   UNL     1     -45.283  60.351 -51.154  1.00  0.00    -0.271 OA
BRANCH  16  19
HETATM   19  C   UNL     1     -44.766  61.671 -48.522  1.00  0.00     0.040 A 
HETATM   20  C   UNL     1     -44.907  62.753 -47.649  1.00  0.00     0.066 A 
HETATM   21  C   UNL     1     -45.669  62.622 -46.483  1.00  0.00     0.073 A 
HETATM   22  C   UNL     1     -46.279  61.399 -46.181  1.00  0.00     0.073 A 
HETATM   23  C   UNL     1     -46.145  60.314 -47.041  1.00  0.00     0.073 A 
HETATM   24  C   UNL     1     -45.400  60.461 -48.212  1.00  0.00     0.066 A 
BRANCH  21  25
HETATM   25  O   UNL     1     -45.893  63.604 -45.556  1.00  0.00    -0.356 OA
HETATM   26  C   UNL     1     -47.244  63.903 -45.233  1.00  0.00     0.210 C 
ENDBRANCH  21  25
BRANCH  23  27
HETATM   27  O   UNL     1     -46.680  59.069 -46.863  1.00  0.00    -0.356 OA
HETATM   28  C   UNL     1     -47.119  58.740 -45.548  1.00  0.00     0.210 C 
ENDBRANCH  23  27
ENDBRANCH  16  19
ENDBRANCH  14  15
ENDBRANCH   1  14
BRANCH   7  29
HETATM   29  C   UNL     1     -41.062  53.658 -52.971  1.00  0.00    -0.002 A 
HETATM   30  C   UNL     1     -40.301  53.034 -51.971  1.00  0.00     0.016 A 
HETATM   31  C   UNL     1     -39.704  51.792 -52.204  1.00  0.00     0.024 A 
HETATM   32  C   UNL     1     -39.861  51.170 -53.440  1.00  0.00     0.034 A 
HETATM   33 CL   UNL     1     -39.128  49.642 -53.730  1.00  0.00    -0.084 Cl
HETATM   34  C   UNL     1     -40.608  51.783 -54.444  1.00  0.00     0.024 A 
HETATM   35  C   UNL     1     -41.207  53.025 -54.211  1.00  0.00     0.016 A 
ENDBRANCH   7  29
TORSDOF 6
ENDMDL
MODEL 4
REMARK VINA RESULT:      -8.5      4.027     10.449
REMARK  6 active torsions:
REMARK  status: ('A' for Active; 'I' for Inactive)
REMARK    1  A    between atoms: O_2  and  C_3 
REMARK    2  A    between atoms: C_5  and  O_6 
REMARK    3  A    between atoms: C_9  and  N_10 
REMARK       I    between atoms: N_10  and  C_11 
REMARK    4  A    between atoms: C_11  and  C_12 
REMARK    5  A    between atoms: C_12  and  N_13 
REMARK    6  A    between atoms: C_19  and  C_20 
ROOT
HETATM    1  N   UNL     1     -44.612  57.110 -53.513  1.00  0.00    -0.063 N 
HETATM    2  H   UNL     1     -45.531  56.628 -53.484  1.00  0.00     0.280 HD
HETATM    3  C   UNL     1     -43.975  56.900 -52.160  1.00  0.00     0.240 C 
HETATM    4  C   UNL     1     -44.779  57.600 -51.080  1.00  0.00     0.083 C 
HETATM    5  C   UNL     1     -44.984  59.081 -51.395  1.00  0.00     0.131 A 
HETATM    6  N   UNL     1     -45.920  59.632 -50.384  1.00  0.00    -0.251 NA
HETATM    7  C   UNL     1     -45.286  60.583 -49.749  1.00  0.00     0.132 A 
HETATM    8  C   UNL     1     -43.875  60.752 -50.264  1.00  0.00     0.272 A 
HETATM    9  O   UNL     1     -43.016  61.504 -49.875  1.00  0.00    -0.266 OA
HETATM   10  N   UNL     1     -43.776  59.836 -51.266  1.00  0.00    -0.327 N 
HETATM   11  C   UNL     1     -45.626  59.254 -52.772  1.00  0.00     0.083 C 
HETATM   12  C   UNL     1     -44.828  58.557 -53.859  1.00  0.00     0.240 C 
HETATM   13  H   UNL     1     -42.892  59.731 -51.748  1.00  0.00     0.165 HD
ENDROOT
BRANCH   1  14
HETATM   14  C   UNL     1     -43.849  56.368 -54.625  1.00  0.00     0.337 C 
BRANCH  14  15
HETATM   15  C   UNL     1     -42.539  55.780 -54.093  1.00  0.00     0.248 C 
HETATM   16  N   UNL     1     -42.649  54.486 -53.631  1.00  0.00    -0.326 N 
HETATM   17  H   UNL     1     -43.548  54.019 -53.690  1.00  0.00     0.169 HD
HETATM   18  O   UNL     1     -41.522  56.466 -54.176  1.00  0.00    -0.271 OA
BRANCH  16  19
HETATM   19  C   UNL     1     -41.614  53.674 -53.111  1.00  0.00     0.040 A 
HETATM   20  C   UNL     1     -40.956  52.678 -53.836  1.00  0.00     0.066 A 
HETATM   21  C   UNL     1     -39.941  51.924 -53.236  1.00  0.00     0.073 A 
HETATM   22  C   UNL     1     -39.595  52.158 -51.900  1.00  0.00     0.073 A 
HETATM   23  C   UNL     1     -40.244  53.146 -51.166  1.00  0.00     0.073 A 
HETATM   24  C   UNL     1     -41.241  53.906 -51.781  1.00  0.00     0.066 A 
BRANCH  21  25
HETATM   25  O   UNL     1     -39.215  50.932 -53.837  1.00  0.00    -0.356 OA
HETATM   26  C   UNL     1     -39.937  49.866 -54.440  1.00  0.00     0.210 C 
ENDBRANCH  21  25
BRANCH  23  27
HETATM   27  O   UNL     1     -40.009  53.470 -49.860  1.00  0.00    -0.356 OA
HETATM   28  C   UNL     1     -41.053  54.148 -49.168  1.00  0.00     0.210 C 
ENDBRANCH  23  27
ENDBRANCH  16  19
ENDBRANCH  14  15
ENDBRANCH   1  14
BRANCH   7  29
HETATM   29  C   UNL     1     -45.881  61.381 -48.658  1.00  0.00    -0.002 A 
HETATM   30  C   UNL     1     -45.664  60.970 -47.334  1.00  0.00     0.016 A 
HETATM   31  C   UNL     1     -46.206  61.694 -46.268  1.00  0.00     0.024 A 
HETATM   32  C   UNL     1     -46.972  62.830 -46.521  1.00  0.00     0.034 A 
HETATM   33 CL   UNL     1     -47.639  63.722 -45.213  1.00  0.00    -0.084 Cl
HETATM   34  C   UNL     1     -47.201  63.243 -47.832  1.00  0.00     0.024 A 
HETATM   35  C   UNL     1     -46.658  62.520 -48.899  1.00  0.00     0.016 A 
ENDBRANCH   7  29
TORSDOF 6
ENDMDL
MODEL 5
REMARK VINA RESULT:      -8.1      5.773      9.134
REMARK  6 active torsions:
REMARK  status: ('A' for Active; 'I' for Inactive)
REMARK    1  A    between atoms: O_2  and  C_3 
REMARK    2  A    between atoms: C_5  and  O_6 
REMARK    3  A    between atoms: C_9  and  N_10 
REMARK       I    between atoms: N_10  and  C_11 
REMARK    4  A    between atoms: C_11  and  C_12 
REMARK    5  A    between atoms: C_12  and  N_13 
REMARK    6  A    between atoms: C_19  and  C_20 
ROOT
HETATM    1  N   UNL     1     -42.092  59.659 -54.991  1.00  0.00    -0.063 N 
HETATM    2  H   UNL     1     -41.262  59.780 -55.601  1.00  0.00     0.280 HD
HETATM    3  C   UNL     1     -41.566  59.360 -53.607  1.00  0.00     0.240 C 
HETATM    4  C   UNL     1     -40.840  58.027 -53.593  1.00  0.00     0.083 C 
HETATM    5  C   UNL     1     -41.717  56.897 -54.131  1.00  0.00     0.131 A 
HETATM    6  N   UNL     1     -40.871  55.683 -54.243  1.00  0.00    -0.251 NA
HETATM    7  C   UNL     1     -41.401  54.771 -53.470  1.00  0.00     0.132 A 
HETATM    8  C   UNL     1     -42.636  55.285 -52.768  1.00  0.00     0.272 A 
HETATM    9  O   UNL     1     -43.335  54.723 -51.962  1.00  0.00    -0.266 OA
HETATM   10  N   UNL     1     -42.778  56.557 -53.234  1.00  0.00    -0.327 N 
HETATM   11  C   UNL     1     -42.234  57.238 -55.529  1.00  0.00     0.083 C 
HETATM   12  C   UNL     1     -42.962  58.570 -55.553  1.00  0.00     0.240 C 
HETATM   13  H   UNL     1     -43.528  57.131 -52.872  1.00  0.00     0.165 HD
ENDROOT
BRANCH   1  14
HETATM   14  C   UNL     1     -42.789  61.031 -55.051  1.00  0.00     0.337 C 
BRANCH  14  15
HETATM   15  C   UNL     1     -42.716  61.623 -56.461  1.00  0.00     0.248 C 
HETATM   16  N   UNL     1     -41.571  61.289 -57.153  1.00  0.00    -0.326 N 
HETATM   17  H   UNL     1     -40.891  60.681 -56.710  1.00  0.00     0.169 HD
HETATM   18  O   UNL     1     -43.677  62.275 -56.864  1.00  0.00    -0.271 OA
BRANCH  16  19
HETATM   19  C   UNL     1     -41.236  61.659 -58.476  1.00  0.00     0.040 A 
HETATM   20  C   UNL     1     -41.843  61.133 -59.619  1.00  0.00     0.066 A 
HETATM   21  C   UNL     1     -41.443  61.562 -60.889  1.00  0.00     0.073 A 
HETATM   22  C   UNL     1     -40.421  62.509 -61.017  1.00  0.00     0.073 A 
HETATM   23  C   UNL     1     -39.807  63.040 -59.887  1.00  0.00     0.073 A 
HETATM   24  C   UNL     1     -40.227  62.620 -58.624  1.00  0.00     0.066 A 
BRANCH  21  25
HETATM   25  O   UNL     1     -41.963  61.135 -62.081  1.00  0.00    -0.356 OA
HETATM   26  C   UNL     1     -43.345  60.802 -62.110  1.00  0.00     0.210 C 
ENDBRANCH  21  25
BRANCH  23  27
HETATM   27  O   UNL     1     -38.798  63.961 -59.872  1.00  0.00    -0.356 OA
HETATM   28  C   UNL     1     -38.286  64.375 -61.134  1.00  0.00     0.210 C 
ENDBRANCH  23  27
ENDBRANCH  16  19
ENDBRANCH  14  15
ENDBRANCH   1  14
BRANCH   7  29
HETATM   29  C   UNL     1     -40.847  53.412 -53.304  1.00  0.00    -0.002 A 
HETATM   30  C   UNL     1     -40.275  53.070 -52.070  1.00  0.00     0.016 A 
HETATM   31  C   UNL     1     -39.740  51.795 -51.865  1.00  0.00     0.024 A 
HETATM   32  C   UNL     1     -39.769  50.858 -52.895  1.00  0.00     0.034 A 
HETATM   33 CL   UNL     1     -39.112  49.289 -52.646  1.00  0.00    -0.084 Cl
HETATM   34  C   UNL     1     -40.328  51.189 -54.128  1.00  0.00     0.024 A 
HETATM   35  C   UNL     1     -40.866  52.464 -54.333  1.00  0.00     0.016 A 
ENDBRANCH   7  29
TORSDOF 6
ENDMDL
MODEL 6
REMARK VINA RESULT:      -8.1      1.462      2.016
REMARK  6 active torsions:
REMARK  status: ('A' for Active; 'I' for Inactive)
REMARK    1  A    between atoms: O_2  and  C_3 
REMARK    2  A    between atoms: C_5  and  O_6 
REMARK    3  A    between atoms: C_9  and  N_10 
REMARK       I    between atoms: N_10  and  C_11 
REMARK    4  A    between atoms: C_11  and  C_12 
REMARK    5  A    between atoms: C_12  and  N_13 
REMARK    6  A    between atoms: C_19  and  C_20 
ROOT
HETATM    1  N   UNL     1     -43.037  60.253 -52.710  1.00  0.00    -0.063 N 
HETATM    2  H   UNL     1     -42.902  60.382 -53.731  1.00  0.00     0.280 HD
HETATM    3  C   UNL     1     -41.672  59.963 -52.131  1.00  0.00     0.240 C 
HETATM    4  C   UNL     1     -41.146  58.638 -52.652  1.00  0.00     0.083 C 
HETATM    5  C   UNL     1     -42.132  57.498 -52.400  1.00  0.00     0.131 A 
HETATM    6  N   UNL     1     -41.614  56.293 -53.093  1.00  0.00    -0.251 NA
HETATM    7  C   UNL     1     -41.417  55.377 -52.181  1.00  0.00     0.132 A 
HETATM    8  C   UNL     1     -41.772  55.880 -50.802  1.00  0.00     0.272 A 
HETATM    9  O   UNL     1     -41.672  55.312 -49.743  1.00  0.00    -0.266 OA
HETATM   10  N   UNL     1     -42.218  57.149 -51.016  1.00  0.00    -0.327 N 
HETATM   11  C   UNL     1     -43.500  57.829 -52.996  1.00  0.00     0.083 C 
HETATM   12  C   UNL     1     -44.035  59.153 -52.480  1.00  0.00     0.240 C 
HETATM   13  H   UNL     1     -42.483  57.715 -50.221  1.00  0.00     0.165 HD
ENDROOT
BRANCH   1  14
HETATM   14  C   UNL     1     -43.576  61.617 -52.242  1.00  0.00     0.337 C 
BRANCH  14  15
HETATM   15  C   UNL     1     -44.618  61.446 -51.133  1.00  0.00     0.248 C 
HETATM   16  N   UNL     1     -44.099  61.520 -49.857  1.00  0.00    -0.326 N 
HETATM   17  H   UNL     1     -43.107  61.698 -49.741  1.00  0.00     0.169 HD
HETATM   18  O   UNL     1     -45.796  61.319 -51.461  1.00  0.00    -0.271 OA
BRANCH  16  19
HETATM   19  C   UNL     1     -44.813  61.428 -48.640  1.00  0.00     0.040 A 
HETATM   20  C   UNL     1     -45.540  60.306 -48.236  1.00  0.00     0.066 A 
HETATM   21  C   UNL     1     -46.215  60.308 -47.011  1.00  0.00     0.073 A 
HETATM   22  C   UNL     1     -46.176  61.444 -46.193  1.00  0.00     0.073 A 
HETATM   23  C   UNL     1     -45.457  62.569 -46.585  1.00  0.00     0.073 A 
HETATM   24  C   UNL     1     -44.770  62.549 -47.800  1.00  0.00     0.066 A 
BRANCH  21  25
HETATM   25  O   UNL     1     -46.949  59.274 -46.497  1.00  0.00    -0.356 OA
HETATM   26  C   UNL     1     -46.609  58.812 -45.196  1.00  0.00     0.210 C 
ENDBRANCH  21  25
BRANCH  23  27
HETATM   27  O   UNL     1     -45.343  63.739 -45.889  1.00  0.00    -0.356 OA
HETATM   28  C   UNL     1     -46.333  63.998 -44.899  1.00  0.00     0.210 C 
ENDBRANCH  23  27
ENDBRANCH  16  19
ENDBRANCH  14  15
ENDBRANCH   1  14
BRANCH   7  29
HETATM   29  C   UNL     1     -40.900  54.025 -52.473  1.00  0.00    -0.002 A 
HETATM   30  C   UNL     1     -41.095  53.497 -53.758  1.00  0.00     0.016 A 
HETATM   31  C   UNL     1     -40.622  52.222 -54.081  1.00  0.00     0.024 A 
HETATM   32  C   UNL     1     -39.955  51.467 -53.120  1.00  0.00     0.034 A 
HETATM   33 CL   UNL     1     -39.372  49.899 -53.514  1.00  0.00    -0.084 Cl
HETATM   34  C   UNL     1     -39.761  51.977 -51.838  1.00  0.00     0.024 A 
HETATM   35  C   UNL     1     -40.233  53.254 -51.513  1.00  0.00     0.016 A 
ENDBRANCH   7  29
TORSDOF 6
ENDMDL
MODEL 7
REMARK VINA RESULT:      -7.8      2.095      3.000
REMARK  6 active torsions:
REMARK  status: ('A' for Active; 'I' for Inactive)
REMARK    1  A    between atoms: O_2  and  C_3 
REMARK    2  A    between atoms: C_5  and  O_6 
REMARK    3  A    between atoms: C_9  and  N_10 
REMARK       I    between atoms: N_10  and  C_11 
REMARK    4  A    between atoms: C_11  and  C_12 
REMARK    5  A    between atoms: C_12  and  N_13 
REMARK    6  A    between atoms: C_19  and  C_20 
ROOT
HETATM    1  N   UNL     1     -42.024  60.132 -53.877  1.00  0.00    -0.063 N 
HETATM    2  H   UNL     1     -41.173  60.344 -54.432  1.00  0.00     0.280 HD
HETATM    3  C   UNL     1     -41.546  59.602 -52.546  1.00  0.00     0.240 C 
HETATM    4  C   UNL     1     -40.829  58.277 -52.730  1.00  0.00     0.083 C 
HETATM    5  C   UNL     1     -41.693  57.262 -53.477  1.00  0.00     0.131 A 
HETATM    6  N   UNL     1     -40.850  56.074 -53.761  1.00  0.00    -0.251 NA
HETATM    7  C   UNL     1     -41.411  55.052 -53.169  1.00  0.00     0.132 A 
HETATM    8  C   UNL     1     -42.667  55.457 -52.431  1.00  0.00     0.272 A 
HETATM    9  O   UNL     1     -43.395  54.776 -51.754  1.00  0.00    -0.266 OA
HETATM   10  N   UNL     1     -42.785  56.790 -52.684  1.00  0.00    -0.327 N 
HETATM   11  C   UNL     1     -42.160  57.836 -54.815  1.00  0.00     0.083 C 
HETATM   12  C   UNL     1     -42.880  59.161 -54.641  1.00  0.00     0.240 C 
HETATM   13  H   UNL     1     -43.544  57.303 -52.256  1.00  0.00     0.165 HD
ENDROOT
BRANCH   1  14
HETATM   14  C   UNL     1     -42.711  61.503 -53.731  1.00  0.00     0.337 C 
BRANCH  14  15
HETATM   15  C   UNL     1     -43.797  61.461 -52.653  1.00  0.00     0.248 C 
HETATM   16  N   UNL     1     -43.574  62.318 -51.596  1.00  0.00    -0.326 N 
HETATM   17  H   UNL     1     -42.751  62.911 -51.611  1.00  0.00     0.169 HD
HETATM   18  O   UNL     1     -44.771  60.736 -52.843  1.00  0.00    -0.271 OA
BRANCH  16  19
HETATM   19  C   UNL     1     -44.408  62.522 -50.473  1.00  0.00     0.040 A 
HETATM   20  C   UNL     1     -45.454  63.448 -50.426  1.00  0.00     0.066 A 
HETATM   21  C   UNL     1     -46.227  63.578 -49.267  1.00  0.00     0.073 A 
HETATM   22  C   UNL     1     -45.943  62.791 -48.146  1.00  0.00     0.073 A 
HETATM   23  C   UNL     1     -44.904  61.867 -48.178  1.00  0.00     0.073 A 
HETATM   24  C   UNL     1     -44.151  61.730 -49.347  1.00  0.00     0.066 A 
BRANCH  21  25
HETATM   25  O   UNL     1     -47.280  64.435 -49.098  1.00  0.00    -0.356 OA
HETATM   26  C   UNL     1     -48.245  64.099 -48.110  1.00  0.00     0.210 C 
ENDBRANCH  21  25
BRANCH  23  27
HETATM   27  O   UNL     1     -44.519  61.045 -47.157  1.00  0.00    -0.356 OA
HETATM   28  C   UNL     1     -45.514  60.700 -46.199  1.00  0.00     0.210 C 
ENDBRANCH  23  27
ENDBRANCH  16  19
ENDBRANCH  14  15
ENDBRANCH   1  14
BRANCH   7  29
HETATM   29  C   UNL     1     -40.870  53.679 -53.213  1.00  0.00    -0.002 A 
HETATM   30  C   UNL     1     -40.304  53.145 -52.045  1.00  0.00     0.016 A 
HETATM   31  C   UNL     1     -39.782  51.849 -52.038  1.00  0.00     0.024 A 
HETATM   32  C   UNL     1     -39.818  51.082 -53.200  1.00  0.00     0.034 A 
HETATM   33 CL   UNL     1     -39.176  49.487 -53.194  1.00  0.00    -0.084 Cl
HETATM   34  C   UNL     1     -40.370  51.603 -54.368  1.00  0.00     0.024 A 
HETATM   35  C   UNL     1     -40.896  52.900 -54.375  1.00  0.00     0.016 A 
ENDBRANCH   7  29
TORSDOF 6
ENDMDL
MODEL 8
REMARK VINA RESULT:      -7.8      5.378      8.536
REMARK  6 active torsions:
REMARK  status: ('A' for Active; 'I' for Inactive)
REMARK    1  A    between atoms: O_2  and  C_3 
REMARK    2  A    between atoms: C_5  and  O_6 
REMARK    3  A    between atoms: C_9  and  N_10 
REMARK       I    between atoms: N_10  and  C_11 
REMARK    4  A    between atoms: C_11  and  C_12 
REMARK    5  A    between atoms: C_12  and  N_13 
REMARK    6  A    between atoms: C_19  and  C_20 
ROOT
HETATM    1  N   UNL     1     -42.572  59.664 -53.409  1.00  0.00    -0.063 N 
HETATM    2  H   UNL     1     -42.704  59.887 -52.404  1.00  0.00     0.280 HD
HETATM    3  C   UNL     1     -43.512  58.524 -53.722  1.00  0.00     0.240 C 
HETATM    4  C   UNL     1     -43.104  57.276 -52.960  1.00  0.00     0.083 C 
HETATM    5  C   UNL     1     -41.644  56.905 -53.220  1.00  0.00     0.131 A 
HETATM    6  N   UNL     1     -41.293  55.791 -52.306  1.00  0.00    -0.251 NA
HETATM    7  C   UNL     1     -40.944  54.775 -53.052  1.00  0.00     0.132 A 
HETATM    8  C   UNL     1     -41.036  55.107 -54.523  1.00  0.00     0.272 A 
HETATM    9  O   UNL     1     -40.828  54.393 -55.472  1.00  0.00    -0.266 OA
HETATM   10  N   UNL     1     -41.437  56.409 -54.545  1.00  0.00    -0.327 N 
HETATM   11  C   UNL     1     -40.725  58.084 -52.897  1.00  0.00     0.083 C 
HETATM   12  C   UNL     1     -41.126  59.337 -53.654  1.00  0.00     0.240 C 
HETATM   13  H   UNL     1     -41.609  56.853 -55.437  1.00  0.00     0.165 HD
ENDROOT
BRANCH   1  14
HETATM   14  C   UNL     1     -42.991  60.961 -54.126  1.00  0.00     0.337 C 
BRANCH  14  15
HETATM   15  C   UNL     1     -43.270  60.704 -55.609  1.00  0.00     0.248 C 
HETATM   16  N   UNL     1     -42.158  60.331 -56.334  1.00  0.00    -0.326 N 
HETATM   17  H   UNL     1     -41.270  60.234 -55.854  1.00  0.00     0.169 HD
HETATM   18  O   UNL     1     -44.432  60.791 -56.002  1.00  0.00    -0.271 OA
BRANCH  16  19
HETATM   19  C   UNL     1     -42.107  60.002 -57.709  1.00  0.00     0.040 A 
HETATM   20  C   UNL     1     -41.827  60.916 -58.727  1.00  0.00     0.066 A 
HETATM   21  C   UNL     1     -41.798  60.495 -60.061  1.00  0.00     0.073 A 
HETATM   22  C   UNL     1     -42.066  59.159 -60.379  1.00  0.00     0.073 A 
HETATM   23  C   UNL     1     -42.348  58.239 -59.374  1.00  0.00     0.073 A 
HETATM   24  C   UNL     1     -42.355  58.664 -58.044  1.00  0.00     0.066 A 
BRANCH  21  25
HETATM   25  O   UNL     1     -41.527  61.285 -61.146  1.00  0.00    -0.356 OA
HETATM   26  C   UNL     1     -41.184  62.642 -60.898  1.00  0.00     0.210 C 
ENDBRANCH  21  25
BRANCH  23  27
HETATM   27  O   UNL     1     -42.632  56.914 -59.546  1.00  0.00    -0.356 OA
HETATM   28  C   UNL     1     -42.974  56.172 -58.379  1.00  0.00     0.210 C 
ENDBRANCH  23  27
ENDBRANCH  16  19
ENDBRANCH  14  15
ENDBRANCH   1  14
BRANCH   7  29
HETATM   29  C   UNL     1     -40.523  53.466 -52.513  1.00  0.00    -0.002 A 
HETATM   30  C   UNL     1     -40.571  53.268 -51.125  1.00  0.00     0.016 A 
HETATM   31  C   UNL     1     -40.185  52.045 -50.569  1.00  0.00     0.024 A 
HETATM   32  C   UNL     1     -39.745  51.016 -51.398  1.00  0.00     0.034 A 
HETATM   33 CL   UNL     1     -39.269  49.511 -50.718  1.00  0.00    -0.084 Cl
HETATM   34  C   UNL     1     -39.686  51.203 -52.777  1.00  0.00     0.024 A 
HETATM   35  C   UNL     1     -40.073  52.426 -53.335  1.00  0.00     0.016 A 
ENDBRANCH   7  29
TORSDOF 6
ENDMDL
MODEL 9
REMARK VINA RESULT:      -7.5      8.091     11.921
REMARK  6 active torsions:
REMARK  status: ('A' for Active; 'I' for Inactive)
REMARK    1  A    between atoms: O_2  and  C_3 
REMARK    2  A    between atoms: C_5  and  O_6 
REMARK    3  A    between atoms: C_9  and  N_10 
REMARK       I    between atoms: N_10  and  C_11 
REMARK    4  A    between atoms: C_11  and  C_12 
REMARK    5  A    between atoms: C_12  and  N_13 
REMARK    6  A    between atoms: C_19  and  C_20 
ROOT
HETATM    1  N   UNL     1     -43.718  56.724 -57.684  1.00  0.00    -0.063 N 
HETATM    2  H   UNL     1     -44.218  55.874 -57.363  1.00  0.00     0.280 HD
HETATM    3  C   UNL     1     -44.566  57.904 -57.269  1.00  0.00     0.240 C 
HETATM    4  C   UNL     1     -45.889  57.893 -58.011  1.00  0.00     0.083 C 
HETATM    5  C   UNL     1     -45.691  57.833 -59.525  1.00  0.00     0.131 A 
HETATM    6  N   UNL     1     -47.025  57.649 -60.148  1.00  0.00    -0.251 NA
HETATM    7  C   UNL     1     -47.231  58.677 -60.929  1.00  0.00     0.132 A 
HETATM    8  C   UNL     1     -46.070  59.643 -60.897  1.00  0.00     0.272 A 
HETATM    9  O   UNL     1     -45.953  60.702 -61.461  1.00  0.00    -0.266 OA
HETATM   10  N   UNL     1     -45.174  59.057 -60.054  1.00  0.00    -0.327 N 
HETATM   11  C   UNL     1     -44.826  56.631 -59.906  1.00  0.00     0.083 C 
HETATM   12  C   UNL     1     -43.499  56.633 -59.169  1.00  0.00     0.240 C 
HETATM   13  H   UNL     1     -44.314  59.544 -59.839  1.00  0.00     0.165 HD
ENDROOT
BRANCH   1  14
HETATM   14  C   UNL     1     -42.389  56.677 -56.910  1.00  0.00     0.337 C 
BRANCH  14  15
HETATM   15  C   UNL     1     -42.315  55.434 -56.020  1.00  0.00     0.248 C 
HETATM   16  N   UNL     1     -41.181  55.367 -55.238  1.00  0.00    -0.326 N 
HETATM   17  H   UNL     1     -40.508  56.124 -55.285  1.00  0.00     0.169 HD
HETATM   18  O   UNL     1     -43.268  54.657 -56.032  1.00  0.00    -0.271 OA
BRANCH  16  19
HETATM   19  C   UNL     1     -40.848  54.361 -54.301  1.00  0.00     0.040 A 
HETATM   20  C   UNL     1     -40.203  53.165 -54.627  1.00  0.00     0.066 A 
HETATM   21  C   UNL     1     -39.915  52.227 -53.629  1.00  0.00     0.073 A 
HETATM   22  C   UNL     1     -40.287  52.480 -52.304  1.00  0.00     0.073 A 
HETATM   23  C   UNL     1     -40.931  53.666 -51.967  1.00  0.00     0.073 A 
HETATM   24  C   UNL     1     -41.197  54.604 -52.967  1.00  0.00     0.066 A 
BRANCH  21  25
HETATM   25  O   UNL     1     -39.280  51.029 -53.813  1.00  0.00    -0.356 OA
HETATM   26  C   UNL     1     -40.013  49.991 -54.449  1.00  0.00     0.210 C 
ENDBRANCH  21  25
BRANCH  23  27
HETATM   27  O   UNL     1     -41.352  54.033 -50.720  1.00  0.00    -0.356 OA
HETATM   28  C   UNL     1     -40.678  55.129 -50.110  1.00  0.00     0.210 C 
ENDBRANCH  23  27
ENDBRANCH  16  19
ENDBRANCH  14  15
ENDBRANCH   1  14
BRANCH   7  29
HETATM   29  C   UNL     1     -48.457  58.867 -61.731  1.00  0.00    -0.002 A 
HETATM   30  C   UNL     1     -49.375  59.848 -61.327  1.00  0.00     0.016 A 
HETATM   31  C   UNL     1     -50.548  60.065 -62.056  1.00  0.00     0.024 A 
HETATM   32  C   UNL     1     -50.811  59.298 -63.189  1.00  0.00     0.034 A 
HETATM   33 CL   UNL     1     -52.252  59.563 -64.087  1.00  0.00    -0.084 Cl
HETATM   34  C   UNL     1     -49.910  58.316 -63.596  1.00  0.00     0.024 A 
HETATM   35  C   UNL     1     -48.735  58.099 -62.868  1.00  0.00     0.016 A 
ENDBRANCH   7  29
TORSDOF 6
ENDMDL
MODEL 10
REMARK VINA RESULT:      -7.5      5.299      8.363
REMARK  6 active torsions:
REMARK  status: ('A' for Active; 'I' for Inactive)
REMARK    1  A    between atoms: O_2  and  C_3 
REMARK    2  A    between atoms: C_5  and  O_6 
REMARK    3  A    between atoms: C_9  and  N_10 
REMARK       I    between atoms: N_10  and  C_11 
REMARK    4  A    between atoms: C_11  and  C_12 
REMARK    5  A    between atoms: C_12  and  N_13 
REMARK    6  A    between atoms: C_19  and  C_20 
ROOT
HETATM    1  N   UNL     1     -42.641  59.945 -53.454  1.00  0.00    -0.063 N 
HETATM    2  H   UNL     1     -42.518  60.233 -52.464  1.00  0.00     0.280 HD
HETATM    3  C   UNL     1     -43.672  58.841 -53.454  1.00  0.00     0.240 C 
HETATM    4  C   UNL     1     -43.140  57.619 -52.727  1.00  0.00     0.083 C 
HETATM    5  C   UNL     1     -41.801  57.156 -53.300  1.00  0.00     0.131 A 
HETATM    6  N   UNL     1     -41.283  56.079 -52.420  1.00  0.00    -0.251 NA
HETATM    7  C   UNL     1     -41.163  55.004 -53.156  1.00  0.00     0.132 A 
HETATM    8  C   UNL     1     -41.594  55.255 -54.582  1.00  0.00     0.272 A 
HETATM    9  O   UNL     1     -41.648  54.476 -55.501  1.00  0.00    -0.266 OA
HETATM   10  N   UNL     1     -41.938  56.572 -54.598  1.00  0.00    -0.327 N 
HETATM   11  C   UNL     1     -40.787  58.299 -53.287  1.00  0.00     0.083 C 
HETATM   12  C   UNL     1     -41.309  59.526 -54.012  1.00  0.00     0.240 C 
HETATM   13  H   UNL     1     -42.303  56.973 -55.453  1.00  0.00     0.165 HD
ENDROOT
BRANCH   1  14
HETATM   14  C   UNL     1     -43.169  61.219 -54.138  1.00  0.00     0.337 C 
BRANCH  14  15
HETATM   15  C   UNL     1     -43.346  61.001 -55.643  1.00  0.00     0.248 C 
HETATM   16  N   UNL     1     -42.216  61.269 -56.388  1.00  0.00    -0.326 N 
HETATM   17  H   UNL     1     -41.371  61.560 -55.908  1.00  0.00     0.169 HD
HETATM   18  O   UNL     1     -44.424  60.563 -56.041  1.00  0.00    -0.271 OA
BRANCH  16  19
HETATM   19  C   UNL     1     -42.065  61.134 -57.787  1.00  0.00     0.040 A 
HETATM   20  C   UNL     1     -42.001  59.910 -58.457  1.00  0.00     0.066 A 
HETATM   21  C   UNL     1     -41.850  59.876 -59.848  1.00  0.00     0.073 A 
HETATM   22  C   UNL     1     -41.746  61.071 -60.569  1.00  0.00     0.073 A 
HETATM   23  C   UNL     1     -41.805  62.297 -59.913  1.00  0.00     0.073 A 
HETATM   24  C   UNL     1     -41.977  62.320 -58.527  1.00  0.00     0.066 A 
BRANCH  21  25
HETATM   25  O   UNL     1     -41.786  58.749 -60.621  1.00  0.00    -0.356 OA
HETATM   26  C   UNL     1     -42.219  57.528 -60.035  1.00  0.00     0.210 C 
ENDBRANCH  21  25
BRANCH  23  27
HETATM   27  O   UNL     1     -41.710  63.530 -60.492  1.00  0.00    -0.356 OA
HETATM   28  C   UNL     1     -40.431  64.157 -60.466  1.00  0.00     0.210 C 
ENDBRANCH  23  27
ENDBRANCH  16  19
ENDBRANCH  14  15
ENDBRANCH   1  14
BRANCH   7  29
HETATM   29  C   UNL     1     -40.677  53.708 -52.643  1.00  0.00    -0.002 A 
HETATM   30  C   UNL     1     -40.703  53.484 -51.258  1.00  0.00     0.016 A 
HETATM   31  C   UNL     1     -40.254  52.271 -50.726  1.00  0.00     0.024 A 
HETATM   32  C   UNL     1     -39.772  51.279 -51.576  1.00  0.00     0.034 A 
HETATM   33 CL   UNL     1     -39.220  49.787 -50.925  1.00  0.00    -0.084 Cl
HETATM   34  C   UNL     1     -39.734  51.492 -52.952  1.00  0.00     0.024 A 
HETATM   35  C   UNL     1     -40.184  52.705 -53.486  1.00  0.00     0.016 A 
ENDBRANCH   7  29
TORSDOF 6
ENDMDL
