MODEL 1
REMARK VINA RESULT:      -8.7      0.000      0.000
REMARK  3 active torsions:
REMARK  status: ('A' for Active; 'I' for Inactive)
REMARK    1  A    between atoms: C_5  and  C_6 
REMARK    2  A    between atoms: C_6  and  N_7 
REMARK    3  A    between atoms: C_11  and  C_12 
ROOT
HETATM    1  N   UNL     1     -41.827  55.606 -56.003  1.00  0.00    -0.066 N 
HETATM    2  H   UNL     1     -41.330  55.108 -56.751  1.00  0.00     0.280 HD
HETATM    3  C   UNL     1     -40.853  55.811 -54.863  1.00  0.00     0.236 C 
HETATM    4  C   UNL     1     -40.336  54.457 -54.403  1.00  0.00     0.037 C 
HETATM    5  C   UNL     1     -41.468  53.530 -53.935  1.00  0.00     0.024 C 
HETATM    6  C   UNL     1     -42.518  53.407 -55.050  1.00  0.00     0.037 C 
HETATM    7  C   UNL     1     -42.998  54.750 -55.589  1.00  0.00     0.236 C 
ENDROOT
BRANCH   1   8
HETATM    8  C   UNL     1     -42.297  56.917 -56.602  1.00  0.00     0.293 C 
BRANCH   8   9
HETATM    9  C   UNL     1     -43.212  56.742 -57.748  1.00  0.00     0.061 A 
HETATM   10  N   UNL     1     -44.495  57.269 -57.814  1.00  0.00    -0.307 N 
HETATM   11  C   UNL     1     -45.020  56.878 -59.046  1.00  0.00     0.139 A 
HETATM   12  C   UNL     1     -45.208  58.041 -56.899  1.00  0.00     0.099 A 
HETATM   13  C   UNL     1     -46.352  57.298 -59.387  1.00  0.00    -0.016 A 
HETATM   14  N   UNL     1     -44.161  56.140 -59.717  1.00  0.00    -0.240 NA
HETATM   15  C   UNL     1     -47.006  56.923 -60.692  1.00  0.00     0.052 C 
HETATM   16  C   UNL     1     -47.026  58.050 -58.484  1.00  0.00     0.012 A 
HETATM   17  C   UNL     1     -46.454  58.436 -57.206  1.00  0.00     0.018 A 
HETATM   18  C   UNL     1     -43.065  56.023 -58.919  1.00  0.00     0.146 A 
ENDBRANCH   8   9
ENDBRANCH   1   8
BRANCH   5  19
HETATM   19  C   UNL     1     -42.020  53.936 -52.585  1.00  0.00    -0.024 A 
HETATM   20  C   UNL     1     -41.260  54.004 -51.362  1.00  0.00     0.018 A 
HETATM   21  C   UNL     1     -42.123  54.426 -50.358  1.00  0.00     0.138 A 
HETATM   22  C   UNL     1     -39.929  53.753 -50.983  1.00  0.00     0.017 A 
HETATM   23  N   UNL     1     -41.839  54.651 -49.065  1.00  0.00    -0.242 NA
HETATM   24  N   UNL     1     -43.366  54.566 -50.900  1.00  0.00    -0.350 N 
HETATM   25  C   UNL     1     -40.547  54.402 -48.757  1.00  0.00     0.119 A 
HETATM   26  C   UNL     1     -39.578  53.962 -49.647  1.00  0.00     0.020 A 
HETATM   27  H   UNL     1     -44.179  54.825 -50.360  1.00  0.00     0.166 HD
HETATM   28  C   UNL     1     -43.324  54.265 -52.241  1.00  0.00     0.098 A 
ENDBRANCH   5  19
TORSDOF 3
ENDMDL
MODEL 2
REMARK VINA RESULT:      -8.4      3.945      5.433
REMARK  3 active torsions:
REMARK  status: ('A' for Active; 'I' for Inactive)
REMARK    1  A    between atoms: C_5  and  C_6 
REMARK    2  A    between atoms: C_6  and  N_7 
REMARK    3  A    between atoms: C_11  and  C_12 
ROOT
HETATM    1  N   UNL     1     -43.046  56.214 -53.926  1.00  0.00    -0.066 N 
HETATM    2  H   UNL     1     -43.065  56.657 -54.852  1.00  0.00     0.280 HD
HETATM    3  C   UNL     1     -41.659  56.407 -53.353  1.00  0.00     0.236 C 
HETATM    4  C   UNL     1     -40.640  55.794 -54.302  1.00  0.00     0.037 C 
HETATM    5  C   UNL     1     -40.886  54.294 -54.528  1.00  0.00     0.024 C 
HETATM    6  C   UNL     1     -42.331  54.081 -55.005  1.00  0.00     0.037 C 
HETATM    7  C   UNL     1     -43.372  54.754 -54.117  1.00  0.00     0.236 C 
ENDROOT
BRANCH   1   8
HETATM    8  C   UNL     1     -44.112  56.906 -53.100  1.00  0.00     0.293 C 
BRANCH   8   9
HETATM    9  C   UNL     1     -44.180  58.362 -53.334  1.00  0.00     0.061 A 
HETATM   10  N   UNL     1     -43.668  59.319 -52.468  1.00  0.00    -0.307 N 
HETATM   11  C   UNL     1     -43.936  60.560 -53.045  1.00  0.00     0.139 A 
HETATM   12  C   UNL     1     -43.007  59.181 -51.248  1.00  0.00     0.099 A 
HETATM   13  C   UNL     1     -43.503  61.745 -52.357  1.00  0.00    -0.016 A 
HETATM   14  N   UNL     1     -44.587  60.425 -54.182  1.00  0.00    -0.240 NA
HETATM   15  C   UNL     1     -43.749  63.129 -52.901  1.00  0.00     0.052 C 
HETATM   16  C   UNL     1     -42.860  61.587 -51.176  1.00  0.00     0.012 A 
HETATM   17  C   UNL     1     -42.601  60.281 -50.595  1.00  0.00     0.018 A 
HETATM   18  C   UNL     1     -44.770  59.087 -54.351  1.00  0.00     0.146 A 
ENDBRANCH   8   9
ENDBRANCH   1   8
BRANCH   5  19
HETATM   19  C   UNL     1     -40.482  53.460 -53.331  1.00  0.00    -0.024 A 
HETATM   20  C   UNL     1     -40.192  52.049 -53.359  1.00  0.00     0.018 A 
HETATM   21  C   UNL     1     -39.854  51.667 -52.067  1.00  0.00     0.138 A 
HETATM   22  C   UNL     1     -40.179  51.038 -54.338  1.00  0.00     0.017 A 
HETATM   23  N   UNL     1     -39.487  50.449 -51.634  1.00  0.00    -0.242 NA
HETATM   24  N   UNL     1     -39.973  52.757 -51.259  1.00  0.00    -0.350 N 
HETATM   25  C   UNL     1     -39.483  49.519 -52.615  1.00  0.00     0.119 A 
HETATM   26  C   UNL     1     -39.813  49.750 -53.943  1.00  0.00     0.020 A 
HETATM   27  H   UNL     1     -39.820  52.726 -50.261  1.00  0.00     0.166 HD
HETATM   28  C   UNL     1     -40.361  53.846 -52.003  1.00  0.00     0.098 A 
ENDBRANCH   5  19
TORSDOF 3
ENDMDL
MODEL 3
REMARK VINA RESULT:      -8.3      2.767      4.767
REMARK  3 active torsions:
REMARK  status: ('A' for Active; 'I' for Inactive)
REMARK    1  A    between atoms: C_5  and  C_6 
REMARK    2  A    between atoms: C_6  and  N_7 
REMARK    3  A    between atoms: C_11  and  C_12 
ROOT
HETATM    1  N   UNL     1     -43.034  56.190 -50.825  1.00  0.00    -0.066 N 
HETATM    2  H   UNL     1     -43.056  56.576 -49.874  1.00  0.00     0.280 HD
HETATM    3  C   UNL     1     -43.264  54.698 -50.720  1.00  0.00     0.236 C 
HETATM    4  C   UNL     1     -42.189  54.091 -49.832  1.00  0.00     0.037 C 
HETATM    5  C   UNL     1     -40.774  54.344 -50.375  1.00  0.00     0.024 C 
HETATM    6  C   UNL     1     -40.574  55.852 -50.589  1.00  0.00     0.037 C 
HETATM    7  C   UNL     1     -41.681  56.506 -51.410  1.00  0.00     0.236 C 
ENDROOT
BRANCH   1   8
HETATM    8  C   UNL     1     -44.136  56.890 -51.595  1.00  0.00     0.293 C 
BRANCH   8   9
HETATM    9  C   UNL     1     -43.723  57.324 -52.945  1.00  0.00     0.061 A 
HETATM   10  N   UNL     1     -43.508  56.463 -54.013  1.00  0.00    -0.307 N 
HETATM   11  C   UNL     1     -43.132  57.261 -55.094  1.00  0.00     0.139 A 
HETATM   12  C   UNL     1     -43.614  55.076 -54.098  1.00  0.00     0.099 A 
HETATM   13  C   UNL     1     -42.852  56.623 -56.352  1.00  0.00    -0.016 A 
HETATM   14  N   UNL     1     -43.086  58.532 -54.754  1.00  0.00    -0.240 NA
HETATM   15  C   UNL     1     -42.437  57.400 -57.575  1.00  0.00     0.052 C 
HETATM   16  C   UNL     1     -42.964  55.275 -56.412  1.00  0.00     0.012 A 
HETATM   17  C   UNL     1     -43.351  54.469 -55.267  1.00  0.00     0.018 A 
HETATM   18  C   UNL     1     -43.413  58.578 -53.434  1.00  0.00     0.146 A 
ENDBRANCH   8   9
ENDBRANCH   1   8
BRANCH   5  19
HETATM   19  C   UNL     1     -40.462  53.485 -51.581  1.00  0.00    -0.024 A 
HETATM   20  C   UNL     1     -40.150  52.078 -51.542  1.00  0.00     0.018 A 
HETATM   21  C   UNL     1     -39.939  51.661 -52.850  1.00  0.00     0.138 A 
HETATM   22  C   UNL     1     -40.017  51.098 -50.540  1.00  0.00     0.017 A 
HETATM   23  N   UNL     1     -39.647  50.424 -53.287  1.00  0.00    -0.242 NA
HETATM   24  N   UNL     1     -40.058  52.747 -53.664  1.00  0.00    -0.350 N 
HETATM   25  C   UNL     1     -39.539  49.523 -52.286  1.00  0.00     0.119 A 
HETATM   26  C   UNL     1     -39.706  49.796 -50.935  1.00  0.00     0.020 A 
HETATM   27  H   UNL     1     -39.907  52.709 -54.663  1.00  0.00     0.166 HD
HETATM   28  C   UNL     1     -40.363  53.858 -52.914  1.00  0.00     0.098 A 
ENDBRANCH   5  19
TORSDOF 3
ENDMDL
MODEL 4
REMARK VINA RESULT:      -8.2      2.014      3.094
REMARK  3 active torsions:
REMARK  status: ('A' for Active; 'I' for Inactive)
REMARK    1  A    between atoms: C_5  and  C_6 
REMARK    2  A    between atoms: C_6  and  N_7 
REMARK    3  A    between atoms: C_11  and  C_12 
ROOT
HETATM    1  N   UNL     1     -42.861  57.261 -55.347  1.00  0.00    -0.066 N 
HETATM    2  H   UNL     1     -43.513  57.879 -54.850  1.00  0.00     0.280 HD
HETATM    3  C   UNL     1     -43.454  55.869 -55.343  1.00  0.00     0.236 C 
HETATM    4  C   UNL     1     -43.675  55.428 -53.904  1.00  0.00     0.037 C 
HETATM    5  C   UNL     1     -42.371  55.421 -53.091  1.00  0.00     0.024 C 
HETATM    6  C   UNL     1     -41.706  56.803 -53.184  1.00  0.00     0.037 C 
HETATM    7  C   UNL     1     -41.544  57.308 -54.614  1.00  0.00     0.236 C 
ENDROOT
BRANCH   1   8
HETATM    8  C   UNL     1     -42.723  57.824 -56.748  1.00  0.00     0.293 C 
BRANCH   8   9
HETATM    9  C   UNL     1     -43.970  57.747 -57.535  1.00  0.00     0.061 A 
HETATM   10  N   UNL     1     -44.209  56.815 -58.536  1.00  0.00    -0.307 N 
HETATM   11  C   UNL     1     -45.487  57.080 -59.028  1.00  0.00     0.139 A 
HETATM   12  C   UNL     1     -43.409  55.785 -59.028  1.00  0.00     0.099 A 
HETATM   13  C   UNL     1     -46.003  56.249 -60.081  1.00  0.00    -0.016 A 
HETATM   14  N   UNL     1     -46.028  58.112 -58.414  1.00  0.00    -0.240 NA
HETATM   15  C   UNL     1     -47.370  56.460 -60.679  1.00  0.00     0.052 C 
HETATM   16  C   UNL     1     -45.209  55.253 -60.542  1.00  0.00     0.012 A 
HETATM   17  C   UNL     1     -43.879  55.004 -60.014  1.00  0.00     0.018 A 
HETATM   18  C   UNL     1     -45.096  58.548 -57.523  1.00  0.00     0.146 A 
ENDBRANCH   8   9
ENDBRANCH   1   8
BRANCH   5  19
HETATM   19  C   UNL     1     -41.474  54.258 -53.458  1.00  0.00    -0.024 A 
HETATM   20  C   UNL     1     -40.905  53.319 -52.524  1.00  0.00     0.018 A 
HETATM   21  C   UNL     1     -40.158  52.405 -53.256  1.00  0.00     0.138 A 
HETATM   22  C   UNL     1     -40.933  53.136 -51.130  1.00  0.00     0.017 A 
HETATM   23  N   UNL     1     -39.473  51.343 -52.800  1.00  0.00    -0.242 NA
HETATM   24  N   UNL     1     -40.207  52.771 -54.567  1.00  0.00    -0.350 N 
HETATM   25  C   UNL     1     -39.540  51.209 -51.457  1.00  0.00     0.119 A 
HETATM   26  C   UNL     1     -40.231  52.053 -50.598  1.00  0.00     0.020 A 
HETATM   27  H   UNL     1     -39.706  52.284 -55.297  1.00  0.00     0.166 HD
HETATM   28  C   UNL     1     -40.989  53.894 -54.707  1.00  0.00     0.098 A 
ENDBRANCH   5  19
TORSDOF 3
ENDMDL
MODEL 5
REMARK VINA RESULT:      -8.2      4.004      5.477
REMARK  3 active torsions:
REMARK  status: ('A' for Active; 'I' for Inactive)
REMARK    1  A    between atoms: C_5  and  C_6 
REMARK    2  A    between atoms: C_6  and  N_7 
REMARK    3  A    between atoms: C_11  and  C_12 
ROOT
HETATM    1  N   UNL     1     -41.892  57.494 -50.303  1.00  0.00    -0.066 N 
HETATM    2  H   UNL     1     -42.354  57.612 -49.393  1.00  0.00     0.280 HD
HETATM    3  C   UNL     1     -42.964  57.176 -51.322  1.00  0.00     0.236 C 
HETATM    4  C   UNL     1     -43.705  55.920 -50.889  1.00  0.00     0.037 C 
HETATM    5  C   UNL     1     -42.768  54.710 -50.751  1.00  0.00     0.024 C 
HETATM    6  C   UNL     1     -41.614  55.066 -49.801  1.00  0.00     0.037 C 
HETATM    7  C   UNL     1     -40.902  56.365 -50.164  1.00  0.00     0.236 C 
ENDROOT
BRANCH   1   8
HETATM    8  C   UNL     1     -41.187  58.803 -50.597  1.00  0.00     0.293 C 
BRANCH   8   9
HETATM    9  C   UNL     1     -41.352  59.256 -51.993  1.00  0.00     0.061 A 
HETATM   10  N   UNL     1     -42.311  60.167 -52.413  1.00  0.00    -0.307 N 
HETATM   11  C   UNL     1     -42.136  60.322 -53.788  1.00  0.00     0.139 A 
HETATM   12  C   UNL     1     -43.296  60.845 -51.696  1.00  0.00     0.099 A 
HETATM   13  C   UNL     1     -43.002  61.227 -54.492  1.00  0.00    -0.016 A 
HETATM   14  N   UNL     1     -41.158  59.560 -54.231  1.00  0.00    -0.240 NA
HETATM   15  C   UNL     1     -42.891  61.458 -55.977  1.00  0.00     0.052 C 
HETATM   16  C   UNL     1     -43.949  61.878 -53.775  1.00  0.00     0.012 A 
HETATM   17  C   UNL     1     -44.112  61.691 -52.344  1.00  0.00     0.018 A 
HETATM   18  C   UNL     1     -40.693  58.879 -53.148  1.00  0.00     0.146 A 
ENDBRANCH   8   9
ENDBRANCH   1   8
BRANCH   5  19
HETATM   19  C   UNL     1     -42.338  54.163 -52.095  1.00  0.00    -0.024 A 
HETATM   20  C   UNL     1     -41.254  53.237 -52.308  1.00  0.00     0.018 A 
HETATM   21  C   UNL     1     -41.191  52.976 -53.672  1.00  0.00     0.138 A 
HETATM   22  C   UNL     1     -40.305  52.586 -51.499  1.00  0.00     0.017 A 
HETATM   23  N   UNL     1     -40.349  52.152 -54.318  1.00  0.00    -0.242 NA
HETATM   24  N   UNL     1     -42.143  53.729 -54.291  1.00  0.00    -0.350 N 
HETATM   25  C   UNL     1     -39.466  51.547 -53.493  1.00  0.00     0.119 A 
HETATM   26  C   UNL     1     -39.398  51.724 -52.118  1.00  0.00     0.020 A 
HETATM   27  H   UNL     1     -42.271  53.745 -55.293  1.00  0.00     0.166 HD
HETATM   28  C   UNL     1     -42.838  54.459 -53.356  1.00  0.00     0.098 A 
ENDBRANCH   5  19
TORSDOF 3
ENDMDL
MODEL 6
REMARK VINA RESULT:      -8.2      2.529      8.158
REMARK  3 active torsions:
REMARK  status: ('A' for Active; 'I' for Inactive)
REMARK    1  A    between atoms: C_5  and  C_6 
REMARK    2  A    between atoms: C_6  and  N_7 
REMARK    3  A    between atoms: C_11  and  C_12 
ROOT
HETATM    1  N   UNL     1     -42.150  56.553 -53.118  1.00  0.00    -0.066 N 
HETATM    2  H   UNL     1     -42.558  57.191 -52.425  1.00  0.00     0.280 HD
HETATM    3  C   UNL     1     -41.422  57.393 -54.144  1.00  0.00     0.236 C 
HETATM    4  C   UNL     1     -42.405  58.369 -54.774  1.00  0.00     0.037 C 
HETATM    5  C   UNL     1     -43.581  57.651 -55.455  1.00  0.00     0.024 C 
HETATM    6  C   UNL     1     -44.256  56.711 -54.445  1.00  0.00     0.037 C 
HETATM    7  C   UNL     1     -43.283  55.774 -53.737  1.00  0.00     0.236 C 
ENDROOT
BRANCH   1   8
HETATM    8  C   UNL     1     -41.214  55.637 -52.355  1.00  0.00     0.293 C 
BRANCH   8   9
HETATM    9  C   UNL     1     -40.823  54.433 -53.116  1.00  0.00     0.061 A 
HETATM   10  N   UNL     1     -40.445  53.229 -52.537  1.00  0.00    -0.307 N 
HETATM   11  C   UNL     1     -40.155  52.358 -53.588  1.00  0.00     0.139 A 
HETATM   12  C   UNL     1     -40.341  52.857 -51.198  1.00  0.00     0.099 A 
HETATM   13  C   UNL     1     -39.740  51.018 -53.274  1.00  0.00    -0.016 A 
HETATM   14  N   UNL     1     -40.310  52.951 -54.753  1.00  0.00    -0.240 NA
HETATM   15  C   UNL     1     -39.402  50.008 -54.340  1.00  0.00     0.052 C 
HETATM   16  C   UNL     1     -39.648  50.679 -51.966  1.00  0.00     0.012 A 
HETATM   17  C   UNL     1     -39.951  51.609 -50.892  1.00  0.00     0.018 A 
HETATM   18  C   UNL     1     -40.686  54.229 -54.475  1.00  0.00     0.146 A 
ENDBRANCH   8   9
ENDBRANCH   1   8
BRANCH   5  19
HETATM   19  C   UNL     1     -43.176  56.998 -56.759  1.00  0.00    -0.024 A 
HETATM   20  C   UNL     1     -42.809  57.702 -57.962  1.00  0.00     0.018 A 
HETATM   21  C   UNL     1     -42.496  56.748 -58.923  1.00  0.00     0.138 A 
HETATM   22  C   UNL     1     -42.707  59.048 -58.357  1.00  0.00     0.017 A 
HETATM   23  N   UNL     1     -42.079  56.951 -60.184  1.00  0.00    -0.242 NA
HETATM   24  N   UNL     1     -42.701  55.516 -58.379  1.00  0.00    -0.350 N 
HETATM   25  C   UNL     1     -41.992  58.260 -60.507  1.00  0.00     0.119 A 
HETATM   26  C   UNL     1     -42.287  59.319 -59.660  1.00  0.00     0.020 A 
HETATM   27  H   UNL     1     -42.581  54.656 -58.895  1.00  0.00     0.166 HD
HETATM   28  C   UNL     1     -43.122  55.648 -57.076  1.00  0.00     0.098 A 
ENDBRANCH   5  19
TORSDOF 3
ENDMDL
MODEL 7
REMARK VINA RESULT:      -8.1      2.836      4.580
REMARK  3 active torsions:
REMARK  status: ('A' for Active; 'I' for Inactive)
REMARK    1  A    between atoms: C_5  and  C_6 
REMARK    2  A    between atoms: C_6  and  N_7 
REMARK    3  A    between atoms: C_11  and  C_12 
ROOT
HETATM    1  N   UNL     1     -43.036  57.694 -50.882  1.00  0.00    -0.066 N 
HETATM    2  H   UNL     1     -43.195  57.831 -49.877  1.00  0.00     0.280 HD
HETATM    3  C   UNL     1     -43.957  56.586 -51.345  1.00  0.00     0.236 C 
HETATM    4  C   UNL     1     -43.662  55.328 -50.542  1.00  0.00     0.037 C 
HETATM    5  C   UNL     1     -42.205  54.867 -50.696  1.00  0.00     0.024 C 
HETATM    6  C   UNL     1     -41.264  56.026 -50.334  1.00  0.00     0.037 C 
HETATM    7  C   UNL     1     -41.585  57.326 -51.065  1.00  0.00     0.236 C 
ENDROOT
BRANCH   1   8
HETATM    8  C   UNL     1     -43.349  59.019 -51.549  1.00  0.00     0.293 C 
BRANCH   8   9
HETATM    9  C   UNL     1     -42.792  59.135 -52.912  1.00  0.00     0.061 A 
HETATM   10  N   UNL     1     -43.476  58.790 -54.070  1.00  0.00    -0.307 N 
HETATM   11  C   UNL     1     -42.608  59.043 -55.132  1.00  0.00     0.139 A 
HETATM   12  C   UNL     1     -44.763  58.286 -54.249  1.00  0.00     0.099 A 
HETATM   13  C   UNL     1     -43.067  58.781 -56.469  1.00  0.00    -0.016 A 
HETATM   14  N   UNL     1     -41.449  59.495 -54.702  1.00  0.00    -0.240 NA
HETATM   15  C   UNL     1     -42.202  59.020 -57.680  1.00  0.00     0.052 C 
HETATM   16  C   UNL     1     -44.322  58.295 -56.620  1.00  0.00     0.012 A 
HETATM   17  C   UNL     1     -45.201  58.035 -55.493  1.00  0.00     0.018 A 
HETATM   18  C   UNL     1     -41.539  59.523 -53.345  1.00  0.00     0.146 A 
ENDBRANCH   8   9
ENDBRANCH   1   8
BRANCH   5  19
HETATM   19  C   UNL     1     -41.944  54.236 -52.047  1.00  0.00    -0.024 A 
HETATM   20  C   UNL     1     -40.975  53.202 -52.309  1.00  0.00     0.018 A 
HETATM   21  C   UNL     1     -41.053  52.891 -53.661  1.00  0.00     0.138 A 
HETATM   22  C   UNL     1     -40.027  52.487 -51.553  1.00  0.00     0.017 A 
HETATM   23  N   UNL     1     -40.351  51.967 -54.338  1.00  0.00    -0.242 NA
HETATM   24  N   UNL     1     -41.978  53.712 -54.232  1.00  0.00    -0.350 N 
HETATM   25  C   UNL     1     -39.463  51.305 -53.564  1.00  0.00     0.119 A 
HETATM   26  C   UNL     1     -39.262  51.520 -52.207  1.00  0.00     0.020 A 
HETATM   27  H   UNL     1     -42.187  53.708 -55.220  1.00  0.00     0.166 HD
HETATM   28  C   UNL     1     -42.518  54.538 -53.274  1.00  0.00     0.098 A 
ENDBRANCH   5  19
TORSDOF 3
ENDMDL
MODEL 8
REMARK VINA RESULT:      -7.9      2.340      2.757
REMARK  3 active torsions:
REMARK  status: ('A' for Active; 'I' for Inactive)
REMARK    1  A    between atoms: C_5  and  C_6 
REMARK    2  A    between atoms: C_6  and  N_7 
REMARK    3  A    between atoms: C_11  and  C_12 
ROOT
HETATM    1  N   UNL     1     -42.112  56.316 -55.590  1.00  0.00    -0.066 N 
HETATM    2  H   UNL     1     -41.656  55.954 -56.436  1.00  0.00     0.280 HD
HETATM    3  C   UNL     1     -41.076  56.348 -54.488  1.00  0.00     0.236 C 
HETATM    4  C   UNL     1     -40.524  54.946 -54.284  1.00  0.00     0.037 C 
HETATM    5  C   UNL     1     -41.623  53.937 -53.911  1.00  0.00     0.024 C 
HETATM    6  C   UNL     1     -42.734  53.981 -54.971  1.00  0.00     0.037 C 
HETATM    7  C   UNL     1     -43.252  55.387 -55.257  1.00  0.00     0.236 C 
ENDROOT
BRANCH   1   8
HETATM    8  C   UNL     1     -42.623  57.699 -55.941  1.00  0.00     0.293 C 
BRANCH   8   9
HETATM    9  C   UNL     1     -42.518  58.015 -57.380  1.00  0.00     0.061 A 
HETATM   10  N   UNL     1     -42.185  59.264 -57.885  1.00  0.00    -0.307 N 
HETATM   11  C   UNL     1     -42.196  59.145 -59.275  1.00  0.00     0.139 A 
HETATM   12  C   UNL     1     -41.883  60.458 -57.232  1.00  0.00     0.099 A 
HETATM   13  C   UNL     1     -41.874  60.302 -60.065  1.00  0.00    -0.016 A 
HETATM   14  N   UNL     1     -42.530  57.926 -59.645  1.00  0.00    -0.240 NA
HETATM   15  C   UNL     1     -41.863  60.272 -61.572  1.00  0.00     0.052 C 
HETATM   16  C   UNL     1     -41.582  61.450 -59.409  1.00  0.00     0.012 A 
HETATM   17  C   UNL     1     -41.584  61.546 -57.960  1.00  0.00     0.018 A 
HETATM   18  C   UNL     1     -42.761  57.237 -58.495  1.00  0.00     0.146 A 
ENDBRANCH   8   9
ENDBRANCH   1   8
BRANCH   5  19
HETATM   19  C   UNL     1     -42.099  54.111 -52.485  1.00  0.00    -0.024 A 
HETATM   20  C   UNL     1     -41.254  54.087 -51.317  1.00  0.00     0.018 A 
HETATM   21  C   UNL     1     -42.067  54.292 -50.210  1.00  0.00     0.138 A 
HETATM   22  C   UNL     1     -39.881  53.910 -51.065  1.00  0.00     0.017 A 
HETATM   23  N   UNL     1     -41.702  54.371 -48.919  1.00  0.00    -0.242 NA
HETATM   24  N   UNL     1     -43.355  54.389 -50.644  1.00  0.00    -0.350 N 
HETATM   25  C   UNL     1     -40.374  54.203 -48.735  1.00  0.00     0.119 A 
HETATM   26  C   UNL     1     -39.445  53.973 -49.740  1.00  0.00     0.020 A 
HETATM   27  H   UNL     1     -44.142  54.499 -50.020  1.00  0.00     0.166 HD
HETATM   28  C   UNL     1     -43.394  54.271 -52.013  1.00  0.00     0.098 A 
ENDBRANCH   5  19
TORSDOF 3
ENDMDL
MODEL 9
REMARK VINA RESULT:      -7.9      2.562      3.725
REMARK  3 active torsions:
REMARK  status: ('A' for Active; 'I' for Inactive)
REMARK    1  A    between atoms: C_5  and  C_6 
REMARK    2  A    between atoms: C_6  and  N_7 
REMARK    3  A    between atoms: C_11  and  C_12 
ROOT
HETATM    1  N   UNL     1     -43.348  56.719 -53.912  1.00  0.00    -0.066 N 
HETATM    2  H   UNL     1     -43.483  57.483 -53.239  1.00  0.00     0.280 HD
HETATM    3  C   UNL     1     -43.591  55.417 -53.180  1.00  0.00     0.236 C 
HETATM    4  C   UNL     1     -42.629  55.320 -52.006  1.00  0.00     0.037 C 
HETATM    5  C   UNL     1     -41.160  55.381 -52.451  1.00  0.00     0.024 C 
HETATM    6  C   UNL     1     -40.934  56.648 -53.289  1.00  0.00     0.037 C 
HETATM    7  C   UNL     1     -41.935  56.814 -54.428  1.00  0.00     0.236 C 
ENDROOT
BRANCH   1   8
HETATM    8  C   UNL     1     -44.351  56.950 -55.025  1.00  0.00     0.293 C 
BRANCH   8   9
HETATM    9  C   UNL     1     -43.849  57.844 -56.088  1.00  0.00     0.061 A 
HETATM   10  N   UNL     1     -43.410  57.413 -57.332  1.00  0.00    -0.307 N 
HETATM   11  C   UNL     1     -43.021  58.554 -58.033  1.00  0.00     0.139 A 
HETATM   12  C   UNL     1     -43.329  56.130 -57.873  1.00  0.00     0.099 A 
HETATM   13  C   UNL     1     -42.525  58.400 -59.374  1.00  0.00    -0.016 A 
HETATM   14  N   UNL     1     -43.174  59.637 -57.300  1.00  0.00    -0.240 NA
HETATM   15  C   UNL     1     -42.078  59.574 -60.208  1.00  0.00     0.052 C 
HETATM   16  C   UNL     1     -42.458  57.146 -59.879  1.00  0.00     0.012 A 
HETATM   17  C   UNL     1     -42.864  55.974 -59.123  1.00  0.00     0.018 A 
HETATM   18  C   UNL     1     -43.648  59.211 -56.098  1.00  0.00     0.146 A 
ENDBRANCH   8   9
ENDBRANCH   1   8
BRANCH   5  19
HETATM   19  C   UNL     1     -40.708  54.095 -53.109  1.00  0.00    -0.024 A 
HETATM   20  C   UNL     1     -40.345  52.887 -52.412  1.00  0.00     0.018 A 
HETATM   21  C   UNL     1     -40.001  51.940 -53.369  1.00  0.00     0.138 A 
HETATM   22  C   UNL     1     -40.262  52.480 -51.067  1.00  0.00     0.017 A 
HETATM   23  N   UNL     1     -39.623  50.666 -53.174  1.00  0.00    -0.242 NA
HETATM   24  N   UNL     1     -40.091  52.527 -54.595  1.00  0.00    -0.350 N 
HETATM   25  C   UNL     1     -39.568  50.326 -51.867  1.00  0.00     0.119 A 
HETATM   26  C   UNL     1     -39.865  51.168 -50.803  1.00  0.00     0.020 A 
HETATM   27  H   UNL     1     -39.851  52.053 -55.455  1.00  0.00     0.166 HD
HETATM   28  C   UNL     1     -40.506  53.831 -54.457  1.00  0.00     0.098 A 
ENDBRANCH   5  19
TORSDOF 3
ENDMDL
MODEL 10
REMARK VINA RESULT:      -7.8      3.081      3.811
REMARK  3 active torsions:
REMARK  status: ('A' for Active; 'I' for Inactive)
REMARK    1  A    between atoms: C_5  and  C_6 
REMARK    2  A    between atoms: C_6  and  N_7 
REMARK    3  A    between atoms: C_11  and  C_12 
ROOT
HETATM    1  N   UNL     1     -42.874  57.045 -56.022  1.00  0.00    -0.066 N 
HETATM    2  H   UNL     1     -43.650  56.950 -56.688  1.00  0.00     0.280 HD
HETATM    3  C   UNL     1     -42.042  55.784 -56.107  1.00  0.00     0.236 C 
HETATM    4  C   UNL     1     -42.923  54.585 -55.791  1.00  0.00     0.037 C 
HETATM    5  C   UNL     1     -43.553  54.678 -54.393  1.00  0.00     0.024 C 
HETATM    6  C   UNL     1     -44.308  56.010 -54.263  1.00  0.00     0.037 C 
HETATM    7  C   UNL     1     -43.474  57.226 -54.650  1.00  0.00     0.236 C 
ENDROOT
BRANCH   1   8
HETATM    8  C   UNL     1     -42.098  58.277 -56.444  1.00  0.00     0.293 C 
BRANCH   8   9
HETATM    9  C   UNL     1     -42.265  58.613 -57.872  1.00  0.00     0.061 A 
HETATM   10  N   UNL     1     -41.834  59.798 -58.453  1.00  0.00    -0.307 N 
HETATM   11  C   UNL     1     -42.180  59.726 -59.802  1.00  0.00     0.139 A 
HETATM   12  C   UNL     1     -41.184  60.899 -57.898  1.00  0.00     0.099 A 
HETATM   13  C   UNL     1     -41.841  60.831 -60.657  1.00  0.00    -0.016 A 
HETATM   14  N   UNL     1     -42.802  58.598 -60.074  1.00  0.00    -0.240 NA
HETATM   15  C   UNL     1     -42.176  60.846 -62.127  1.00  0.00     0.052 C 
HETATM   16  C   UNL     1     -41.207  61.888 -60.097  1.00  0.00     0.012 A 
HETATM   17  C   UNL     1     -40.866  61.938 -58.686  1.00  0.00     0.018 A 
HETATM   18  C   UNL     1     -42.888  57.925 -58.894  1.00  0.00     0.146 A 
ENDBRANCH   8   9
ENDBRANCH   1   8
BRANCH   5  19
HETATM   19  C   UNL     1     -42.548  54.408 -53.293  1.00  0.00    -0.024 A 
HETATM   20  C   UNL     1     -41.547  53.371 -53.318  1.00  0.00     0.018 A 
HETATM   21  C   UNL     1     -40.824  53.462 -52.135  1.00  0.00     0.138 A 
HETATM   22  C   UNL     1     -41.167  52.352 -54.211  1.00  0.00     0.017 A 
HETATM   23  N   UNL     1     -39.781  52.711 -51.744  1.00  0.00    -0.242 NA
HETATM   24  N   UNL     1     -41.365  54.461 -51.384  1.00  0.00    -0.350 N 
HETATM   25  C   UNL     1     -39.453  51.754 -52.641  1.00  0.00     0.119 A 
HETATM   26  C   UNL     1     -40.094  51.534 -53.852  1.00  0.00     0.020 A 
HETATM   27  H   UNL     1     -41.038  54.696 -50.458  1.00  0.00     0.166 HD
HETATM   28  C   UNL     1     -42.413  55.036 -52.063  1.00  0.00     0.098 A 
ENDBRANCH   5  19
TORSDOF 3
ENDMDL
