MODEL 1
REMARK VINA RESULT:      -7.3      0.000      0.000
REMARK  9 active torsions:
REMARK  status: ('A' for Active; 'I' for Inactive)
REMARK    1  A    between atoms: C_2  and  C_3 
REMARK    2  A    between atoms: C_7  and  C_8 
REMARK    3  A    between atoms: C_8  and  C_9 
REMARK       I    between atoms: C_9  and  N_10 
REMARK    4  A    between atoms: N_10  and  C_11 
REMARK    5  A    between atoms: C_11  and  C_12 
REMARK    6  A    between atoms: C_12  and  N_13 
REMARK    7  A    between atoms: C_21  and  C_22 
REMARK    8  A    between atoms: C_32  and  C_33 
REMARK    9  A    between atoms: C_33  and  O_34 
ROOT
HETATM    1  C   UNL     1     -43.160  55.271 -51.663  1.00  0.00     0.051 C 
HETATM    2  N   UNL     1     -43.683  54.517 -52.713  1.00  0.00    -0.228 NA
HETATM    3  C   UNL     1     -43.022  54.563 -53.822  1.00  0.00     0.170 C 
HETATM    4  N   UNL     1     -41.664  55.300 -53.945  1.00  0.00    -0.318 N 
HETATM    5  C   UNL     1     -41.682  56.010 -55.020  1.00  0.00     0.011 C 
HETATM    6  C   UNL     1     -40.894  55.203 -52.679  1.00  0.00     0.166 C 
HETATM    7  S   UNL     1     -43.666  54.187 -55.380  1.00  0.00    -0.086 SA
HETATM    8  C   UNL     1     -42.577  55.464 -56.122  1.00  0.00     0.135 C 
HETATM    9  C   UNL     1     -41.855  55.633 -51.618  1.00  0.00     0.069 C 
ENDROOT
BRANCH   5  10
HETATM   10  C   UNL     1     -41.165  57.427 -55.005  1.00  0.00     0.156 C 
BRANCH  10  11
HETATM   11  C   UNL     1     -42.364  58.370 -55.059  1.00  0.00     0.223 C 
HETATM   12  N   UNL     1     -43.249  58.350 -54.021  1.00  0.00    -0.359 N 
HETATM   13  H   UNL     1     -43.140  57.651 -53.289  1.00  0.00     0.162 HD
HETATM   14  O   UNL     1     -42.527  59.120 -56.021  1.00  0.00    -0.273 OA
BRANCH  12  15
HETATM   15  C   UNL     1     -44.575  58.990 -54.105  1.00  0.00     0.150 C 
BRANCH  15  16
HETATM   16  C   UNL     1     -44.682  60.413 -53.500  1.00  0.00     0.254 C 
BRANCH  16  17
HETATM   17  N   UNL     1     -44.453  60.432 -51.997  1.00  0.00    -0.070 N 
HETATM   18  H   UNL     1     -44.246  59.453 -51.725  1.00  0.00     0.279 HD
HETATM   19  C   UNL     1     -43.240  61.234 -51.578  1.00  0.00     0.235 C 
HETATM   20  C   UNL     1     -42.982  61.004 -50.093  1.00  0.00     0.028 C 
HETATM   21  C   UNL     1     -44.200  61.354 -49.245  1.00  0.00     0.003 C 
HETATM   22  C   UNL     1     -45.447  60.632 -49.740  1.00  0.00     0.028 C 
HETATM   23  C   UNL     1     -45.682  60.857 -51.228  1.00  0.00     0.235 C 
ENDBRANCH  16  17
ENDBRANCH  15  16
ENDBRANCH  12  15
ENDBRANCH  10  11
ENDBRANCH   5  10
BRANCH   6  24
HETATM   24  C   UNL     1     -40.317  53.767 -52.613  1.00  0.00    -0.024 C 
HETATM   25  C   UNL     1     -39.974  53.039 -51.447  1.00  0.00    -0.053 C 
HETATM   26  C   UNL     1     -39.845  53.599 -50.053  1.00  0.00     0.049 C 
HETATM   27  C   UNL     1     -39.735  51.650 -51.548  1.00  0.00     0.014 C 
HETATM   28  C   UNL     1     -39.768  50.972 -52.767  1.00  0.00    -0.061 C 
HETATM   29  C   UNL     1     -39.535  49.490 -52.823  1.00  0.00     0.048 C 
HETATM   30  C   UNL     1     -39.953  51.709 -53.929  1.00  0.00     0.007 C 
HETATM   31  C   UNL     1     -40.209  53.080 -53.854  1.00  0.00     0.011 C 
ENDBRANCH   6  24
BRANCH   9  32
HETATM   32  C   UNL     1     -41.376  56.718 -50.740  1.00  0.00     0.293 C 
HETATM   33  O   UNL     1     -41.110  56.524 -49.565  1.00  0.00    -0.259 OA
BRANCH  32  34
HETATM   34  O   UNL     1     -41.465  57.896 -51.383  1.00  0.00    -0.323 OA
HETATM   35  C   UNL     1     -40.297  58.730 -51.361  1.00  0.00     0.213 C 
ENDBRANCH  32  34
ENDBRANCH   9  32
BRANCH   1  36
HETATM   36  C   UNL     1     -44.183  55.680 -50.620  1.00  0.00     0.056 C 
HETATM   37  C   UNL     1     -44.831  57.017 -50.951  1.00  0.00     0.011 C 
ENDBRANCH   1  36
TORSDOF 9
ENDMDL
MODEL 2
REMARK VINA RESULT:      -7.2      1.578      3.006
REMARK  9 active torsions:
REMARK  status: ('A' for Active; 'I' for Inactive)
REMARK    1  A    between atoms: C_2  and  C_3 
REMARK    2  A    between atoms: C_7  and  C_8 
REMARK    3  A    between atoms: C_8  and  C_9 
REMARK       I    between atoms: C_9  and  N_10 
REMARK    4  A    between atoms: N_10  and  C_11 
REMARK    5  A    between atoms: C_11  and  C_12 
REMARK    6  A    between atoms: C_12  and  N_13 
REMARK    7  A    between atoms: C_21  and  C_22 
REMARK    8  A    between atoms: C_32  and  C_33 
REMARK    9  A    between atoms: C_33  and  O_34 
ROOT
HETATM    1  C   UNL     1     -43.191  55.429 -51.635  1.00  0.00     0.051 C 
HETATM    2  N   UNL     1     -43.637  55.025 -52.892  1.00  0.00    -0.228 NA
HETATM    3  C   UNL     1     -42.853  55.297 -53.883  1.00  0.00     0.170 C 
HETATM    4  N   UNL     1     -41.446  55.915 -53.676  1.00  0.00    -0.318 N 
HETATM    5  C   UNL     1     -41.297  56.878 -54.519  1.00  0.00     0.011 C 
HETATM    6  C   UNL     1     -40.833  55.422 -52.417  1.00  0.00     0.166 C 
HETATM    7  S   UNL     1     -43.338  55.400 -55.537  1.00  0.00    -0.086 SA
HETATM    8  C   UNL     1     -42.093  56.721 -55.805  1.00  0.00     0.135 C 
HETATM    9  C   UNL     1     -41.879  55.647 -51.374  1.00  0.00     0.069 C 
ENDROOT
BRANCH   5  10
HETATM   10  C   UNL     1     -40.696  58.190 -54.077  1.00  0.00     0.156 C 
BRANCH  10  11
HETATM   11  C   UNL     1     -41.811  59.231 -54.036  1.00  0.00     0.223 C 
HETATM   12  N   UNL     1     -42.781  59.105 -53.084  1.00  0.00    -0.359 N 
HETATM   13  H   UNL     1     -42.788  58.278 -52.491  1.00  0.00     0.162 HD
HETATM   14  O   UNL     1     -41.834  60.155 -54.850  1.00  0.00    -0.273 OA
BRANCH  12  15
HETATM   15  C   UNL     1     -44.041  59.867 -53.139  1.00  0.00     0.150 C 
BRANCH  15  16
HETATM   16  C   UNL     1     -45.177  59.240 -53.988  1.00  0.00     0.254 C 
BRANCH  16  17
HETATM   17  N   UNL     1     -44.907  59.318 -55.482  1.00  0.00    -0.070 N 
HETATM   18  H   UNL     1     -43.904  59.090 -55.606  1.00  0.00     0.279 HD
HETATM   19  C   UNL     1     -45.660  58.284 -56.291  1.00  0.00     0.235 C 
HETATM   20  C   UNL     1     -45.150  58.311 -57.728  1.00  0.00     0.028 C 
HETATM   21  C   UNL     1     -45.275  59.698 -58.347  1.00  0.00     0.003 C 
HETATM   22  C   UNL     1     -44.613  60.758 -57.474  1.00  0.00     0.028 C 
HETATM   23  C   UNL     1     -45.119  60.707 -56.038  1.00  0.00     0.235 C 
ENDBRANCH  16  17
ENDBRANCH  15  16
ENDBRANCH  12  15
ENDBRANCH  10  11
ENDBRANCH   5  10
BRANCH   6  24
HETATM   24  C   UNL     1     -40.359  53.972 -52.685  1.00  0.00    -0.024 C 
HETATM   25  C   UNL     1     -40.082  52.974 -51.720  1.00  0.00    -0.053 C 
HETATM   26  C   UNL     1     -39.931  53.187 -50.235  1.00  0.00     0.049 C 
HETATM   27  C   UNL     1     -39.939  51.631 -52.139  1.00  0.00     0.014 C 
HETATM   28  C   UNL     1     -40.005  51.255 -53.481  1.00  0.00    -0.061 C 
HETATM   29  C   UNL     1     -39.876  49.812 -53.876  1.00  0.00     0.048 C 
HETATM   30  C   UNL     1     -40.124  52.250 -54.441  1.00  0.00     0.007 C 
HETATM   31  C   UNL     1     -40.284  53.582 -54.052  1.00  0.00     0.011 C 
ENDBRANCH   6  24
BRANCH   9  32
HETATM   32  C   UNL     1     -41.436  56.418 -50.196  1.00  0.00     0.293 C 
HETATM   33  O   UNL     1     -41.217  55.883 -49.122  1.00  0.00    -0.259 OA
BRANCH  32  34
HETATM   34  O   UNL     1     -41.498  57.734 -50.465  1.00  0.00    -0.323 OA
HETATM   35  C   UNL     1     -40.251  58.445 -50.489  1.00  0.00     0.213 C 
ENDBRANCH  32  34
ENDBRANCH   9  32
BRANCH   1  36
HETATM   36  C   UNL     1     -44.297  55.645 -50.620  1.00  0.00     0.056 C 
HETATM   37  C   UNL     1     -44.953  57.009 -50.773  1.00  0.00     0.011 C 
ENDBRANCH   1  36
TORSDOF 9
ENDMDL
MODEL 3
REMARK VINA RESULT:      -7.1      2.661      5.097
REMARK  9 active torsions:
REMARK  status: ('A' for Active; 'I' for Inactive)
REMARK    1  A    between atoms: C_2  and  C_3 
REMARK    2  A    between atoms: C_7  and  C_8 
REMARK    3  A    between atoms: C_8  and  C_9 
REMARK       I    between atoms: C_9  and  N_10 
REMARK    4  A    between atoms: N_10  and  C_11 
REMARK    5  A    between atoms: C_11  and  C_12 
REMARK    6  A    between atoms: C_12  and  N_13 
REMARK    7  A    between atoms: C_21  and  C_22 
REMARK    8  A    between atoms: C_32  and  C_33 
REMARK    9  A    between atoms: C_33  and  O_34 
ROOT
HETATM    1  C   UNL     1     -42.230  58.661 -55.410  1.00  0.00     0.051 C 
HETATM    2  N   UNL     1     -41.358  58.950 -54.361  1.00  0.00    -0.228 NA
HETATM    3  C   UNL     1     -41.750  58.584 -53.186  1.00  0.00     0.170 C 
HETATM    4  N   UNL     1     -43.045  57.760 -52.966  1.00  0.00    -0.318 N 
HETATM    5  C   UNL     1     -43.701  58.286 -51.989  1.00  0.00     0.011 C 
HETATM    6  C   UNL     1     -43.276  56.829 -54.099  1.00  0.00     0.166 C 
HETATM    7  S   UNL     1     -41.172  59.239 -51.695  1.00  0.00    -0.086 SA
HETATM    8  C   UNL     1     -42.838  59.003 -50.963  1.00  0.00     0.135 C 
HETATM    9  C   UNL     1     -43.163  57.682 -55.320  1.00  0.00     0.069 C 
ENDROOT
BRANCH   5  10
HETATM   10  C   UNL     1     -45.193  58.484 -52.094  1.00  0.00     0.156 C 
BRANCH  10  11
HETATM   11  C   UNL     1     -45.631  59.395 -50.950  1.00  0.00     0.223 C 
HETATM   12  N   UNL     1     -45.743  60.732 -51.195  1.00  0.00    -0.359 N 
HETATM   13  H   UNL     1     -45.446  61.098 -52.098  1.00  0.00     0.162 HD
HETATM   14  O   UNL     1     -45.868  58.929 -49.836  1.00  0.00    -0.273 OA
BRANCH  12  15
HETATM   15  C   UNL     1     -45.867  61.723 -50.111  1.00  0.00     0.150 C 
BRANCH  15  16
HETATM   16  C   UNL     1     -44.537  62.213 -49.483  1.00  0.00     0.254 C 
BRANCH  16  17
HETATM   17  N   UNL     1     -44.656  62.491 -47.993  1.00  0.00    -0.070 N 
HETATM   18  H   UNL     1     -43.690  62.636 -47.649  1.00  0.00     0.279 HD
HETATM   19  C   UNL     1     -45.397  63.771 -47.672  1.00  0.00     0.235 C 
HETATM   20  C   UNL     1     -45.265  64.060 -46.181  1.00  0.00     0.028 C 
HETATM   21  C   UNL     1     -45.770  62.898 -45.332  1.00  0.00     0.003 C 
HETATM   22  C   UNL     1     -45.106  61.587 -45.734  1.00  0.00     0.028 C 
HETATM   23  C   UNL     1     -45.230  61.321 -47.228  1.00  0.00     0.235 C 
ENDBRANCH  16  17
ENDBRANCH  15  16
ENDBRANCH  12  15
ENDBRANCH  10  11
ENDBRANCH   5  10
BRANCH   6  24
HETATM   24  C   UNL     1     -42.281  55.655 -53.925  1.00  0.00    -0.024 C 
HETATM   25  C   UNL     1     -42.271  54.692 -52.886  1.00  0.00    -0.053 C 
HETATM   26  C   UNL     1     -43.050  54.765 -51.598  1.00  0.00     0.049 C 
HETATM   27  C   UNL     1     -41.481  53.529 -53.032  1.00  0.00     0.014 C 
HETATM   28  C   UNL     1     -40.662  53.315 -54.141  1.00  0.00    -0.061 C 
HETATM   29  C   UNL     1     -39.862  52.051 -54.266  1.00  0.00     0.048 C 
HETATM   30  C   UNL     1     -40.554  54.325 -55.088  1.00  0.00     0.007 C 
HETATM   31  C   UNL     1     -41.337  55.476 -54.975  1.00  0.00     0.011 C 
ENDBRANCH   6  24
BRANCH   9  32
HETATM   32  C   UNL     1     -44.313  57.614 -56.243  1.00  0.00     0.293 C 
HETATM   33  O   UNL     1     -45.413  58.038 -55.931  1.00  0.00    -0.259 OA
BRANCH  32  34
HETATM   34  O   UNL     1     -43.985  56.887 -57.326  1.00  0.00    -0.323 OA
HETATM   35  C   UNL     1     -44.582  57.281 -58.570  1.00  0.00     0.213 C 
ENDBRANCH  32  34
ENDBRANCH   9  32
BRANCH   1  36
HETATM   36  C   UNL     1     -42.070  59.562 -56.620  1.00  0.00     0.056 C 
HETATM   37  C   UNL     1     -42.780  60.896 -56.434  1.00  0.00     0.011 C 
ENDBRANCH   1  36
TORSDOF 9
ENDMDL
MODEL 4
REMARK VINA RESULT:      -7.0      2.259      4.559
REMARK  9 active torsions:
REMARK  status: ('A' for Active; 'I' for Inactive)
REMARK    1  A    between atoms: C_2  and  C_3 
REMARK    2  A    between atoms: C_7  and  C_8 
REMARK    3  A    between atoms: C_8  and  C_9 
REMARK       I    between atoms: C_9  and  N_10 
REMARK    4  A    between atoms: N_10  and  C_11 
REMARK    5  A    between atoms: C_11  and  C_12 
REMARK    6  A    between atoms: C_12  and  N_13 
REMARK    7  A    between atoms: C_21  and  C_22 
REMARK    8  A    between atoms: C_32  and  C_33 
REMARK    9  A    between atoms: C_33  and  O_34 
ROOT
HETATM    1  C   UNL     1     -43.178  55.331 -51.740  1.00  0.00     0.051 C 
HETATM    2  N   UNL     1     -43.731  54.565 -52.766  1.00  0.00    -0.228 NA
HETATM    3  C   UNL     1     -43.111  54.611 -53.899  1.00  0.00     0.170 C 
HETATM    4  N   UNL     1     -41.766  55.361 -54.075  1.00  0.00    -0.318 N 
HETATM    5  C   UNL     1     -41.830  56.064 -55.153  1.00  0.00     0.011 C 
HETATM    6  C   UNL     1     -40.950  55.281 -52.837  1.00  0.00     0.166 C 
HETATM    7  S   UNL     1     -43.807  54.219 -55.430  1.00  0.00    -0.086 SA
HETATM    8  C   UNL     1     -42.759  55.502 -56.219  1.00  0.00     0.135 C 
HETATM    9  C   UNL     1     -41.876  55.707 -51.744  1.00  0.00     0.069 C 
ENDROOT
BRANCH   5  10
HETATM   10  C   UNL     1     -41.328  57.487 -55.165  1.00  0.00     0.156 C 
BRANCH  10  11
HETATM   11  C   UNL     1     -42.382  58.356 -55.846  1.00  0.00     0.223 C 
HETATM   12  N   UNL     1     -42.185  58.712 -57.148  1.00  0.00    -0.359 N 
HETATM   13  H   UNL     1     -41.306  58.470 -57.600  1.00  0.00     0.162 HD
HETATM   14  O   UNL     1     -43.379  58.729 -55.226  1.00  0.00    -0.273 OA
BRANCH  12  15
HETATM   15  C   UNL     1     -42.973  59.773 -57.801  1.00  0.00     0.150 C 
BRANCH  15  16
HETATM   16  C   UNL     1     -43.566  59.422 -59.190  1.00  0.00     0.254 C 
BRANCH  16  17
HETATM   17  N   UNL     1     -43.958  57.958 -59.309  1.00  0.00    -0.070 N 
HETATM   18  H   UNL     1     -44.033  57.601 -58.339  1.00  0.00     0.279 HD
HETATM   19  C   UNL     1     -45.322  57.743 -59.926  1.00  0.00     0.235 C 
HETATM   20  C   UNL     1     -45.701  56.272 -59.794  1.00  0.00     0.028 C 
HETATM   21  C   UNL     1     -44.655  55.359 -60.425  1.00  0.00     0.003 C 
HETATM   22  C   UNL     1     -43.261  55.655 -59.885  1.00  0.00     0.028 C 
HETATM   23  C   UNL     1     -42.905  57.130 -60.007  1.00  0.00     0.235 C 
ENDBRANCH  16  17
ENDBRANCH  15  16
ENDBRANCH  12  15
ENDBRANCH  10  11
ENDBRANCH   5  10
BRANCH   6  24
HETATM   24  C   UNL     1     -40.356  53.851 -52.783  1.00  0.00    -0.024 C 
HETATM   25  C   UNL     1     -39.957  53.136 -51.627  1.00  0.00    -0.053 C 
HETATM   26  C   UNL     1     -39.776  53.709 -50.245  1.00  0.00     0.049 C 
HETATM   27  C   UNL     1     -39.708  51.748 -51.727  1.00  0.00     0.014 C 
HETATM   28  C   UNL     1     -39.784  51.060 -52.938  1.00  0.00    -0.061 C 
HETATM   29  C   UNL     1     -39.539  49.580 -52.991  1.00  0.00     0.048 C 
HETATM   30  C   UNL     1     -40.026  51.785 -54.097  1.00  0.00     0.007 C 
HETATM   31  C   UNL     1     -40.292  53.154 -54.023  1.00  0.00     0.011 C 
ENDBRANCH   6  24
BRANCH   9  32
HETATM   32  C   UNL     1     -41.378  56.803 -50.890  1.00  0.00     0.293 C 
HETATM   33  O   UNL     1     -41.157  56.641 -49.702  1.00  0.00    -0.259 OA
BRANCH  32  34
HETATM   34  O   UNL     1     -41.395  57.958 -51.578  1.00  0.00    -0.323 OA
HETATM   35  C   UNL     1     -40.274  58.835 -51.389  1.00  0.00     0.213 C 
ENDBRANCH  32  34
ENDBRANCH   9  32
BRANCH   1  36
HETATM   36  C   UNL     1     -44.167  55.736 -50.663  1.00  0.00     0.056 C 
HETATM   37  C   UNL     1     -44.789  57.097 -50.943  1.00  0.00     0.011 C 
ENDBRANCH   1  36
TORSDOF 9
ENDMDL
MODEL 5
REMARK VINA RESULT:      -7.0      1.371      2.410
REMARK  9 active torsions:
REMARK  status: ('A' for Active; 'I' for Inactive)
REMARK    1  A    between atoms: C_2  and  C_3 
REMARK    2  A    between atoms: C_7  and  C_8 
REMARK    3  A    between atoms: C_8  and  C_9 
REMARK       I    between atoms: C_9  and  N_10 
REMARK    4  A    between atoms: N_10  and  C_11 
REMARK    5  A    between atoms: C_11  and  C_12 
REMARK    6  A    between atoms: C_12  and  N_13 
REMARK    7  A    between atoms: C_21  and  C_22 
REMARK    8  A    between atoms: C_32  and  C_33 
REMARK    9  A    between atoms: C_33  and  O_34 
ROOT
HETATM    1  C   UNL     1     -43.114  54.624 -51.569  1.00  0.00     0.051 C 
HETATM    2  N   UNL     1     -43.537  54.430 -52.883  1.00  0.00    -0.228 NA
HETATM    3  C   UNL     1     -42.743  54.873 -53.801  1.00  0.00     0.170 C 
HETATM    4  N   UNL     1     -41.348  55.463 -53.472  1.00  0.00    -0.318 N 
HETATM    5  C   UNL     1     -41.201  56.556 -54.140  1.00  0.00     0.011 C 
HETATM    6  C   UNL     1     -40.746  54.775 -52.303  1.00  0.00     0.166 C 
HETATM    7  S   UNL     1     -43.206  55.244 -55.423  1.00  0.00    -0.086 SA
HETATM    8  C   UNL     1     -41.977  56.606 -55.447  1.00  0.00     0.135 C 
HETATM    9  C   UNL     1     -41.809  54.810 -51.254  1.00  0.00     0.069 C 
ENDROOT
BRANCH   5  10
HETATM   10  C   UNL     1     -40.625  57.782 -53.476  1.00  0.00     0.156 C 
BRANCH  10  11
HETATM   11  C   UNL     1     -41.698  58.376 -52.566  1.00  0.00     0.223 C 
HETATM   12  N   UNL     1     -41.310  59.250 -51.594  1.00  0.00    -0.359 N 
HETATM   13  H   UNL     1     -40.317  59.413 -51.441  1.00  0.00     0.162 HD
HETATM   14  O   UNL     1     -42.880  58.062 -52.707  1.00  0.00    -0.273 OA
BRANCH  12  15
HETATM   15  C   UNL     1     -42.203  59.647 -50.490  1.00  0.00     0.150 C 
BRANCH  15  16
HETATM   16  C   UNL     1     -43.002  60.959 -50.700  1.00  0.00     0.254 C 
BRANCH  16  17
HETATM   17  N   UNL     1     -44.180  60.785 -51.645  1.00  0.00    -0.070 N 
HETATM   18  H   UNL     1     -44.275  59.765 -51.803  1.00  0.00     0.279 HD
HETATM   19  C   UNL     1     -45.502  61.228 -51.056  1.00  0.00     0.235 C 
HETATM   20  C   UNL     1     -46.629  60.808 -51.994  1.00  0.00     0.028 C 
HETATM   21  C   UNL     1     -46.433  61.365 -53.399  1.00  0.00     0.003 C 
HETATM   22  C   UNL     1     -45.055  61.015 -53.949  1.00  0.00     0.028 C 
HETATM   23  C   UNL     1     -43.941  61.424 -52.994  1.00  0.00     0.235 C 
ENDBRANCH  16  17
ENDBRANCH  15  16
ENDBRANCH  12  15
ENDBRANCH  10  11
ENDBRANCH   5  10
BRANCH   6  24
HETATM   24  C   UNL     1     -40.248  53.396 -52.801  1.00  0.00    -0.024 C 
HETATM   25  C   UNL     1     -40.055  52.227 -52.024  1.00  0.00    -0.053 C 
HETATM   26  C   UNL     1     -40.036  52.152 -50.518  1.00  0.00     0.049 C 
HETATM   27  C   UNL     1     -39.874  50.987 -52.678  1.00  0.00     0.014 C 
HETATM   28  C   UNL     1     -39.820  50.875 -54.067  1.00  0.00    -0.061 C 
HETATM   29  C   UNL     1     -39.655  49.532 -54.718  1.00  0.00     0.048 C 
HETATM   30  C   UNL     1     -39.856  52.037 -54.826  1.00  0.00     0.007 C 
HETATM   31  C   UNL     1     -40.052  53.272 -54.205  1.00  0.00     0.011 C 
ENDBRANCH   6  24
BRANCH   9  32
HETATM   32  C   UNL     1     -41.394  55.380 -49.957  1.00  0.00     0.293 C 
HETATM   33  O   UNL     1     -40.814  56.450 -49.882  1.00  0.00    -0.259 OA
BRANCH  32  34
HETATM   34  O   UNL     1     -41.595  54.478 -48.979  1.00  0.00    -0.323 OA
HETATM   35  C   UNL     1     -40.534  54.316 -48.026  1.00  0.00     0.213 C 
ENDBRANCH  32  34
ENDBRANCH   9  32
BRANCH   1  36
HETATM   36  C   UNL     1     -44.238  54.654 -50.550  1.00  0.00     0.056 C 
HETATM   37  C   UNL     1     -44.839  56.045 -50.406  1.00  0.00     0.011 C 
ENDBRANCH   1  36
TORSDOF 9
ENDMDL
MODEL 6
REMARK VINA RESULT:      -7.0      3.139      5.825
REMARK  9 active torsions:
REMARK  status: ('A' for Active; 'I' for Inactive)
REMARK    1  A    between atoms: C_2  and  C_3 
REMARK    2  A    between atoms: C_7  and  C_8 
REMARK    3  A    between atoms: C_8  and  C_9 
REMARK       I    between atoms: C_9  and  N_10 
REMARK    4  A    between atoms: N_10  and  C_11 
REMARK    5  A    between atoms: C_11  and  C_12 
REMARK    6  A    between atoms: C_12  and  N_13 
REMARK    7  A    between atoms: C_21  and  C_22 
REMARK    8  A    between atoms: C_32  and  C_33 
REMARK    9  A    between atoms: C_33  and  O_34 
ROOT
HETATM    1  C   UNL     1     -42.146  58.575 -55.624  1.00  0.00     0.051 C 
HETATM    2  N   UNL     1     -41.290  58.907 -54.575  1.00  0.00    -0.228 NA
HETATM    3  C   UNL     1     -41.714  58.614 -53.389  1.00  0.00     0.170 C 
HETATM    4  N   UNL     1     -43.027  57.824 -53.153  1.00  0.00    -0.318 N 
HETATM    5  C   UNL     1     -43.694  58.414 -52.222  1.00  0.00     0.011 C 
HETATM    6  C   UNL     1     -43.250  56.835 -54.238  1.00  0.00     0.166 C 
HETATM    7  S   UNL     1     -41.157  59.341 -51.925  1.00  0.00    -0.086 SA
HETATM    8  C   UNL     1     -42.841  59.173 -51.217  1.00  0.00     0.135 C 
HETATM    9  C   UNL     1     -43.097  57.617 -55.501  1.00  0.00     0.069 C 
ENDROOT
BRANCH   5  10
HETATM   10  C   UNL     1     -45.180  58.629 -52.370  1.00  0.00     0.156 C 
BRANCH  10  11
HETATM   11  C   UNL     1     -45.397  59.956 -53.092  1.00  0.00     0.223 C 
HETATM   12  N   UNL     1     -45.657  59.930 -54.431  1.00  0.00    -0.359 N 
HETATM   13  H   UNL     1     -45.610  59.043 -54.927  1.00  0.00     0.162 HD
HETATM   14  O   UNL     1     -45.328  61.020 -52.477  1.00  0.00    -0.273 OA
BRANCH  12  15
HETATM   15  C   UNL     1     -45.588  61.140 -55.270  1.00  0.00     0.150 C 
BRANCH  15  16
HETATM   16  C   UNL     1     -46.576  61.196 -56.463  1.00  0.00     0.254 C 
BRANCH  16  17
HETATM   17  N   UNL     1     -46.213  60.224 -57.574  1.00  0.00    -0.070 N 
HETATM   18  H   UNL     1     -45.674  59.462 -57.124  1.00  0.00     0.279 HD
HETATM   19  C   UNL     1     -47.410  59.553 -58.210  1.00  0.00     0.235 C 
HETATM   20  C   UNL     1     -46.924  58.451 -59.145  1.00  0.00     0.028 C 
HETATM   21  C   UNL     1     -45.962  58.987 -60.199  1.00  0.00     0.003 C 
HETATM   22  C   UNL     1     -44.814  59.761 -59.562  1.00  0.00     0.028 C 
HETATM   23  C   UNL     1     -45.316  60.846 -58.619  1.00  0.00     0.235 C 
ENDBRANCH  16  17
ENDBRANCH  15  16
ENDBRANCH  12  15
ENDBRANCH  10  11
ENDBRANCH   5  10
BRANCH   6  24
HETATM   24  C   UNL     1     -42.279  55.657 -53.978  1.00  0.00    -0.024 C 
HETATM   25  C   UNL     1     -42.355  54.703 -52.933  1.00  0.00    -0.053 C 
HETATM   26  C   UNL     1     -43.232  54.791 -51.709  1.00  0.00     0.049 C 
HETATM   27  C   UNL     1     -41.564  53.534 -53.007  1.00  0.00     0.014 C 
HETATM   28  C   UNL     1     -40.662  53.306 -54.047  1.00  0.00    -0.061 C 
HETATM   29  C   UNL     1     -39.864  52.036 -54.099  1.00  0.00     0.048 C 
HETATM   30  C   UNL     1     -40.475  54.307 -54.991  1.00  0.00     0.007 C 
HETATM   31  C   UNL     1     -41.257  55.464 -54.949  1.00  0.00     0.011 C 
ENDBRANCH   6  24
BRANCH   9  32
HETATM   32  C   UNL     1     -44.228  57.516 -56.444  1.00  0.00     0.293 C 
HETATM   33  O   UNL     1     -45.384  57.636 -56.075  1.00  0.00    -0.259 OA
BRANCH  32  34
HETATM   34  O   UNL     1     -43.782  57.113 -57.647  1.00  0.00    -0.323 OA
HETATM   35  C   UNL     1     -43.359  55.745 -57.751  1.00  0.00     0.213 C 
ENDBRANCH  32  34
ENDBRANCH   9  32
BRANCH   1  36
HETATM   36  C   UNL     1     -41.945  59.405 -56.878  1.00  0.00     0.056 C 
HETATM   37  C   UNL     1     -42.165  60.888 -56.621  1.00  0.00     0.011 C 
ENDBRANCH   1  36
TORSDOF 9
ENDMDL
MODEL 7
REMARK VINA RESULT:      -6.9      3.297      5.506
REMARK  9 active torsions:
REMARK  status: ('A' for Active; 'I' for Inactive)
REMARK    1  A    between atoms: C_2  and  C_3 
REMARK    2  A    between atoms: C_7  and  C_8 
REMARK    3  A    between atoms: C_8  and  C_9 
REMARK       I    between atoms: C_9  and  N_10 
REMARK    4  A    between atoms: N_10  and  C_11 
REMARK    5  A    between atoms: C_11  and  C_12 
REMARK    6  A    between atoms: C_12  and  N_13 
REMARK    7  A    between atoms: C_21  and  C_22 
REMARK    8  A    between atoms: C_32  and  C_33 
REMARK    9  A    between atoms: C_33  and  O_34 
ROOT
HETATM    1  C   UNL     1     -42.208  58.843 -55.423  1.00  0.00     0.051 C 
HETATM    2  N   UNL     1     -41.360  59.148 -54.359  1.00  0.00    -0.228 NA
HETATM    3  C   UNL     1     -41.787  58.813 -53.186  1.00  0.00     0.170 C 
HETATM    4  N   UNL     1     -43.095  58.006 -52.982  1.00  0.00    -0.318 N 
HETATM    5  C   UNL     1     -43.771  58.560 -52.035  1.00  0.00     0.011 C 
HETATM    6  C   UNL     1     -43.305  57.051 -54.099  1.00  0.00     0.166 C 
HETATM    7  S   UNL     1     -41.242  59.496 -51.696  1.00  0.00    -0.086 SA
HETATM    8  C   UNL     1     -42.928  59.292 -51.002  1.00  0.00     0.135 C 
HETATM    9  C   UNL     1     -43.152  57.874 -55.336  1.00  0.00     0.069 C 
ENDROOT
BRANCH   5  10
HETATM   10  C   UNL     1     -45.258  58.768 -52.183  1.00  0.00     0.156 C 
BRANCH  10  11
HETATM   11  C   UNL     1     -45.494  60.221 -52.587  1.00  0.00     0.223 C 
HETATM   12  N   UNL     1     -46.431  60.939 -51.902  1.00  0.00    -0.359 N 
HETATM   13  H   UNL     1     -47.007  60.467 -51.208  1.00  0.00     0.162 HD
HETATM   14  O   UNL     1     -44.859  60.723 -53.514  1.00  0.00    -0.273 OA
BRANCH  12  15
HETATM   15  C   UNL     1     -46.943  62.232 -52.391  1.00  0.00     0.150 C 
BRANCH  15  16
HETATM   16  C   UNL     1     -48.072  62.159 -53.451  1.00  0.00     0.254 C 
BRANCH  16  17
HETATM   17  N   UNL     1     -49.461  62.174 -52.833  1.00  0.00    -0.070 N 
HETATM   18  H   UNL     1     -49.461  61.435 -52.107  1.00  0.00     0.279 HD
HETATM   19  C   UNL     1     -49.787  63.459 -52.103  1.00  0.00     0.235 C 
HETATM   20  C   UNL     1     -51.098  63.281 -51.346  1.00  0.00     0.028 C 
HETATM   21  C   UNL     1     -52.235  62.864 -52.272  1.00  0.00     0.003 C 
HETATM   22  C   UNL     1     -51.862  61.635 -53.091  1.00  0.00     0.028 C 
HETATM   23  C   UNL     1     -50.543  61.821 -53.828  1.00  0.00     0.235 C 
ENDBRANCH  16  17
ENDBRANCH  15  16
ENDBRANCH  12  15
ENDBRANCH  10  11
ENDBRANCH   5  10
BRANCH   6  24
HETATM   24  C   UNL     1     -42.326  55.872 -53.872  1.00  0.00    -0.024 C 
HETATM   25  C   UNL     1     -42.356  54.930 -52.815  1.00  0.00    -0.053 C 
HETATM   26  C   UNL     1     -43.172  55.034 -51.552  1.00  0.00     0.049 C 
HETATM   27  C   UNL     1     -41.572  53.758 -52.914  1.00  0.00     0.014 C 
HETATM   28  C   UNL     1     -40.722  53.515 -53.993  1.00  0.00    -0.061 C 
HETATM   29  C   UNL     1     -39.930  52.242 -54.070  1.00  0.00     0.048 C 
HETATM   30  C   UNL     1     -40.577  54.505 -54.956  1.00  0.00     0.007 C 
HETATM   31  C   UNL     1     -41.352  55.665 -54.889  1.00  0.00     0.011 C 
ENDBRANCH   6  24
BRANCH   9  32
HETATM   32  C   UNL     1     -44.278  57.795 -56.287  1.00  0.00     0.293 C 
HETATM   33  O   UNL     1     -45.341  58.355 -56.072  1.00  0.00    -0.259 OA
BRANCH  32  34
HETATM   34  O   UNL     1     -43.993  56.909 -57.256  1.00  0.00    -0.323 OA
HETATM   35  C   UNL     1     -44.256  57.324 -58.605  1.00  0.00     0.213 C 
ENDBRANCH  32  34
ENDBRANCH   9  32
BRANCH   1  36
HETATM   36  C   UNL     1     -42.008  59.715 -56.648  1.00  0.00     0.056 C 
HETATM   37  C   UNL     1     -42.675  61.074 -56.496  1.00  0.00     0.011 C 
ENDBRANCH   1  36
TORSDOF 9
ENDMDL
MODEL 8
REMARK VINA RESULT:      -6.8      2.909      5.140
REMARK  9 active torsions:
REMARK  status: ('A' for Active; 'I' for Inactive)
REMARK    1  A    between atoms: C_2  and  C_3 
REMARK    2  A    between atoms: C_7  and  C_8 
REMARK    3  A    between atoms: C_8  and  C_9 
REMARK       I    between atoms: C_9  and  N_10 
REMARK    4  A    between atoms: N_10  and  C_11 
REMARK    5  A    between atoms: C_11  and  C_12 
REMARK    6  A    between atoms: C_12  and  N_13 
REMARK    7  A    between atoms: C_21  and  C_22 
REMARK    8  A    between atoms: C_32  and  C_33 
REMARK    9  A    between atoms: C_33  and  O_34 
ROOT
HETATM    1  C   UNL     1     -43.572  57.642 -51.911  1.00  0.00     0.051 C 
HETATM    2  N   UNL     1     -44.282  57.011 -52.932  1.00  0.00    -0.228 NA
HETATM    3  C   UNL     1     -43.769  57.101 -54.114  1.00  0.00     0.170 C 
HETATM    4  N   UNL     1     -42.385  57.753 -54.366  1.00  0.00    -0.318 N 
HETATM    5  C   UNL     1     -42.486  58.547 -55.376  1.00  0.00     0.011 C 
HETATM    6  C   UNL     1     -41.468  57.504 -53.225  1.00  0.00     0.166 C 
HETATM    7  S   UNL     1     -44.635  56.896 -55.594  1.00  0.00    -0.086 SA
HETATM    8  C   UNL     1     -43.555  58.152 -56.384  1.00  0.00     0.135 C 
HETATM    9  C   UNL     1     -42.247  57.910 -52.017  1.00  0.00     0.069 C 
ENDROOT
BRANCH   5  10
HETATM   10  C   UNL     1     -41.864  59.920 -55.331  1.00  0.00     0.156 C 
BRANCH  10  11
HETATM   11  C   UNL     1     -42.156  60.617 -56.657  1.00  0.00     0.223 C 
HETATM   12  N   UNL     1     -41.461  60.221 -57.763  1.00  0.00    -0.359 N 
HETATM   13  H   UNL     1     -40.709  59.543 -57.659  1.00  0.00     0.162 HD
HETATM   14  O   UNL     1     -42.992  61.518 -56.719  1.00  0.00    -0.273 OA
BRANCH  12  15
HETATM   15  C   UNL     1     -41.447  61.010 -59.008  1.00  0.00     0.150 C 
BRANCH  15  16
HETATM   16  C   UNL     1     -42.022  60.307 -60.264  1.00  0.00     0.254 C 
BRANCH  16  17
HETATM   17  N   UNL     1     -42.725  59.000 -59.937  1.00  0.00    -0.070 N 
HETATM   18  H   UNL     1     -42.844  58.987 -58.907  1.00  0.00     0.279 HD
HETATM   19  C   UNL     1     -44.123  58.903 -60.507  1.00  0.00     0.235 C 
HETATM   20  C   UNL     1     -44.807  57.664 -59.939  1.00  0.00     0.028 C 
HETATM   21  C   UNL     1     -44.005  56.397 -60.216  1.00  0.00     0.003 C 
HETATM   22  C   UNL     1     -42.563  56.538 -59.743  1.00  0.00     0.028 C 
HETATM   23  C   UNL     1     -41.900  57.788 -60.304  1.00  0.00     0.235 C 
ENDBRANCH  16  17
ENDBRANCH  15  16
ENDBRANCH  12  15
ENDBRANCH  10  11
ENDBRANCH   5  10
BRANCH   6  24
HETATM   24  C   UNL     1     -41.000  56.031 -53.339  1.00  0.00    -0.024 C 
HETATM   25  C   UNL     1     -41.094  55.027 -52.344  1.00  0.00    -0.053 C 
HETATM   26  C   UNL     1     -41.420  55.244 -50.888  1.00  0.00     0.049 C 
HETATM   27  C   UNL     1     -40.887  53.677 -52.707  1.00  0.00     0.014 C 
HETATM   28  C   UNL     1     -40.534  53.295 -54.002  1.00  0.00    -0.061 C 
HETATM   29  C   UNL     1     -40.351  51.846 -54.347  1.00  0.00     0.048 C 
HETATM   30  C   UNL     1     -40.292  54.289 -54.941  1.00  0.00     0.007 C 
HETATM   31  C   UNL     1     -40.507  55.630 -54.612  1.00  0.00     0.011 C 
ENDBRANCH   6  24
BRANCH   9  32
HETATM   32  C   UNL     1     -41.577  58.887 -51.136  1.00  0.00     0.293 C 
HETATM   33  O   UNL     1     -42.070  59.976 -50.893  1.00  0.00    -0.259 OA
BRANCH  32  34
HETATM   34  O   UNL     1     -40.340  58.454 -50.835  1.00  0.00    -0.323 OA
HETATM   35  C   UNL     1     -39.332  59.460 -50.657  1.00  0.00     0.213 C 
ENDBRANCH  32  34
ENDBRANCH   9  32
BRANCH   1  36
HETATM   36  C   UNL     1     -44.417  58.034 -50.714  1.00  0.00     0.056 C 
HETATM   37  C   UNL     1     -45.563  58.955 -51.103  1.00  0.00     0.011 C 
ENDBRANCH   1  36
TORSDOF 9
ENDMDL
MODEL 9
REMARK VINA RESULT:      -6.5      4.382      7.206
REMARK  9 active torsions:
REMARK  status: ('A' for Active; 'I' for Inactive)
REMARK    1  A    between atoms: C_2  and  C_3 
REMARK    2  A    between atoms: C_7  and  C_8 
REMARK    3  A    between atoms: C_8  and  C_9 
REMARK       I    between atoms: C_9  and  N_10 
REMARK    4  A    between atoms: N_10  and  C_11 
REMARK    5  A    between atoms: C_11  and  C_12 
REMARK    6  A    between atoms: C_12  and  N_13 
REMARK    7  A    between atoms: C_21  and  C_22 
REMARK    8  A    between atoms: C_32  and  C_33 
REMARK    9  A    between atoms: C_33  and  O_34 
ROOT
HETATM    1  C   UNL     1     -42.304  57.429 -58.539  1.00  0.00     0.051 C 
HETATM    2  N   UNL     1     -41.719  58.381 -57.704  1.00  0.00    -0.228 NA
HETATM    3  C   UNL     1     -42.422  58.740 -56.681  1.00  0.00     0.170 C 
HETATM    4  N   UNL     1     -43.772  58.064 -56.328  1.00  0.00    -0.318 N 
HETATM    5  C   UNL     1     -44.630  58.986 -56.055  1.00  0.00     0.011 C 
HETATM    6  C   UNL     1     -43.751  56.624 -56.687  1.00  0.00     0.166 C 
HETATM    7  S   UNL     1     -42.217  60.212 -55.800  1.00  0.00    -0.086 SA
HETATM    8  C   UNL     1     -44.026  60.266 -55.497  1.00  0.00     0.135 C 
HETATM    9  C   UNL     1     -43.279  56.594 -58.105  1.00  0.00     0.069 C 
ENDROOT
BRANCH   5  10
HETATM   10  C   UNL     1     -46.031  58.910 -56.610  1.00  0.00     0.156 C 
BRANCH  10  11
HETATM   11  C   UNL     1     -46.133  59.892 -57.774  1.00  0.00     0.223 C 
HETATM   12  N   UNL     1     -45.210  59.808 -58.775  1.00  0.00    -0.359 N 
HETATM   13  H   UNL     1     -44.430  59.161 -58.677  1.00  0.00     0.162 HD
HETATM   14  O   UNL     1     -47.024  60.741 -57.799  1.00  0.00    -0.273 OA
BRANCH  12  15
HETATM   15  C   UNL     1     -45.037  60.874 -59.778  1.00  0.00     0.150 C 
BRANCH  15  16
HETATM   16  C   UNL     1     -44.257  62.129 -59.307  1.00  0.00     0.254 C 
BRANCH  16  17
HETATM   17  N   UNL     1     -42.767  62.037 -59.591  1.00  0.00    -0.070 N 
HETATM   18  H   UNL     1     -42.551  61.027 -59.672  1.00  0.00     0.279 HD
HETATM   19  C   UNL     1     -42.362  62.644 -60.917  1.00  0.00     0.235 C 
HETATM   20  C   UNL     1     -40.903  62.302 -61.195  1.00  0.00     0.028 C 
HETATM   21  C   UNL     1     -39.988  62.769 -60.069  1.00  0.00     0.003 C 
HETATM   22  C   UNL     1     -40.462  62.250 -58.717  1.00  0.00     0.028 C 
HETATM   23  C   UNL     1     -41.926  62.583 -58.461  1.00  0.00     0.235 C 
ENDBRANCH  16  17
ENDBRANCH  15  16
ENDBRANCH  12  15
ENDBRANCH  10  11
ENDBRANCH   5  10
BRANCH   6  24
HETATM   24  C   UNL     1     -42.899  55.905 -55.612  1.00  0.00    -0.024 C 
HETATM   25  C   UNL     1     -43.137  55.875 -54.216  1.00  0.00    -0.053 C 
HETATM   26  C   UNL     1     -44.103  56.749 -53.458  1.00  0.00     0.049 C 
HETATM   27  C   UNL     1     -42.435  54.943 -53.417  1.00  0.00     0.014 C 
HETATM   28  C   UNL     1     -41.469  54.084 -53.943  1.00  0.00    -0.061 C 
HETATM   29  C   UNL     1     -40.770  53.091 -53.061  1.00  0.00     0.048 C 
HETATM   30  C   UNL     1     -41.126  54.216 -55.282  1.00  0.00     0.007 C 
HETATM   31  C   UNL     1     -41.817  55.117 -56.096  1.00  0.00     0.011 C 
ENDBRANCH   6  24
BRANCH   9  32
HETATM   32  C   UNL     1     -44.152  55.861 -59.042  1.00  0.00     0.293 C 
HETATM   33  O   UNL     1     -43.834  54.775 -59.500  1.00  0.00    -0.259 OA
BRANCH  32  34
HETATM   34  O   UNL     1     -45.185  56.641 -59.406  1.00  0.00    -0.323 OA
HETATM   35  C   UNL     1     -45.926  56.228 -60.564  1.00  0.00     0.213 C 
ENDBRANCH  32  34
ENDBRANCH   9  32
BRANCH   1  36
HETATM   36  C   UNL     1     -41.787  57.450 -59.965  1.00  0.00     0.056 C 
HETATM   37  C   UNL     1     -42.081  58.772 -60.658  1.00  0.00     0.011 C 
ENDBRANCH   1  36
TORSDOF 9
ENDMDL
MODEL 10
REMARK VINA RESULT:      -6.5      1.998      2.915
REMARK  9 active torsions:
REMARK  status: ('A' for Active; 'I' for Inactive)
REMARK    1  A    between atoms: C_2  and  C_3 
REMARK    2  A    between atoms: C_7  and  C_8 
REMARK    3  A    between atoms: C_8  and  C_9 
REMARK       I    between atoms: C_9  and  N_10 
REMARK    4  A    between atoms: N_10  and  C_11 
REMARK    5  A    between atoms: C_11  and  C_12 
REMARK    6  A    between atoms: C_12  and  N_13 
REMARK    7  A    between atoms: C_21  and  C_22 
REMARK    8  A    between atoms: C_32  and  C_33 
REMARK    9  A    between atoms: C_33  and  O_34 
ROOT
HETATM    1  C   UNL     1     -43.610  57.883 -51.928  1.00  0.00     0.051 C 
HETATM    2  N   UNL     1     -44.340  57.258 -52.937  1.00  0.00    -0.228 NA
HETATM    3  C   UNL     1     -43.815  57.295 -54.118  1.00  0.00     0.170 C 
HETATM    4  N   UNL     1     -42.403  57.881 -54.375  1.00  0.00    -0.318 N 
HETATM    5  C   UNL     1     -42.464  58.652 -55.406  1.00  0.00     0.011 C 
HETATM    6  C   UNL     1     -41.506  57.623 -53.221  1.00  0.00     0.166 C 
HETATM    7  S   UNL     1     -44.679  57.089 -55.599  1.00  0.00    -0.086 SA
HETATM    8  C   UNL     1     -43.542  58.278 -56.411  1.00  0.00     0.135 C 
HETATM    9  C   UNL     1     -42.275  58.093 -52.029  1.00  0.00     0.069 C 
ENDROOT
BRANCH   5  10
HETATM   10  C   UNL     1     -41.784  59.999 -55.391  1.00  0.00     0.156 C 
BRANCH  10  11
HETATM   11  C   UNL     1     -42.799  61.037 -54.919  1.00  0.00     0.223 C 
HETATM   12  N   UNL     1     -42.787  61.403 -53.605  1.00  0.00    -0.359 N 
HETATM   13  H   UNL     1     -42.170  60.913 -52.959  1.00  0.00     0.162 HD
HETATM   14  O   UNL     1     -43.610  61.521 -55.708  1.00  0.00    -0.273 OA
BRANCH  12  15
HETATM   15  C   UNL     1     -43.892  62.159 -52.988  1.00  0.00     0.150 C 
BRANCH  15  16
HETATM   16  C   UNL     1     -43.515  63.529 -52.369  1.00  0.00     0.254 C 
BRANCH  16  17
HETATM   17  N   UNL     1     -44.084  63.720 -50.973  1.00  0.00    -0.070 N 
HETATM   18  H   UNL     1     -44.798  64.468 -51.052  1.00  0.00     0.279 HD
HETATM   19  C   UNL     1     -44.824  62.509 -50.447  1.00  0.00     0.235 C 
HETATM   20  C   UNL     1     -45.532  62.884 -49.150  1.00  0.00     0.028 C 
HETATM   21  C   UNL     1     -44.560  63.435 -48.113  1.00  0.00     0.003 C 
HETATM   22  C   UNL     1     -43.734  64.584 -48.680  1.00  0.00     0.028 C 
HETATM   23  C   UNL     1     -43.047  64.200 -49.984  1.00  0.00     0.235 C 
ENDBRANCH  16  17
ENDBRANCH  15  16
ENDBRANCH  12  15
ENDBRANCH  10  11
ENDBRANCH   5  10
BRANCH   6  24
HETATM   24  C   UNL     1     -41.100  56.130 -53.293  1.00  0.00    -0.024 C 
HETATM   25  C   UNL     1     -41.301  55.142 -52.298  1.00  0.00    -0.053 C 
HETATM   26  C   UNL     1     -41.704  55.389 -50.867  1.00  0.00     0.049 C 
HETATM   27  C   UNL     1     -41.134  53.779 -52.636  1.00  0.00     0.014 C 
HETATM   28  C   UNL     1     -40.721  53.368 -53.904  1.00  0.00    -0.061 C 
HETATM   29  C   UNL     1     -40.584  51.908 -54.225  1.00  0.00     0.048 C 
HETATM   30  C   UNL     1     -40.377  54.339 -54.834  1.00  0.00     0.007 C 
HETATM   31  C   UNL     1     -40.549  55.692 -54.531  1.00  0.00     0.011 C 
ENDBRANCH   6  24
BRANCH   9  32
HETATM   32  C   UNL     1     -41.570  59.063 -51.169  1.00  0.00     0.293 C 
HETATM   33  O   UNL     1     -41.948  60.217 -51.059  1.00  0.00    -0.259 OA
BRANCH  32  34
HETATM   34  O   UNL     1     -40.424  58.522 -50.720  1.00  0.00    -0.323 OA
HETATM   35  C   UNL     1     -39.246  59.337 -50.819  1.00  0.00     0.213 C 
ENDBRANCH  32  34
ENDBRANCH   9  32
BRANCH   1  36
HETATM   36  C   UNL     1     -44.446  58.342 -50.747  1.00  0.00     0.056 C 
HETATM   37  C   UNL     1     -45.708  59.067 -51.190  1.00  0.00     0.011 C 
ENDBRANCH   1  36
TORSDOF 9
ENDMDL
