MODEL 1
REMARK VINA RESULT:      -9.8      0.000      0.000
REMARK  3 active torsions:
REMARK  status: ('A' for Active; 'I' for Inactive)
REMARK    1  A    between atoms: C_3  and  C_4 
REMARK       I    between atoms: C_4  and  N_5 
REMARK    2  A    between atoms: N_5  and  C_6 
REMARK    3  A    between atoms: C_13  and  C_14 
REMARK       I    between atoms: C_14  and  N_15 
ROOT
HETATM    1  C   UNL     1     -42.357  56.054 -56.653  1.00  0.00     0.035 A 
HETATM    2  C   UNL     1     -43.050  55.478 -57.726  1.00  0.00     0.046 A 
HETATM    3  C   UNL     1     -43.922  56.274 -58.498  1.00  0.00     0.030 A 
HETATM    4  C   UNL     1     -44.087  57.611 -58.161  1.00  0.00     0.063 A 
HETATM    5  N   UNL     1     -44.976  58.108 -59.072  1.00  0.00    -0.277 N 
HETATM    6  H   UNL     1     -45.332  59.055 -59.128  1.00  0.00     0.189 HD
HETATM    7  N   UNL     1     -45.393  57.217 -59.986  1.00  0.00    -0.168 NA
HETATM    8  C   UNL     1     -44.746  56.077 -59.647  1.00  0.00     0.156 A 
HETATM    9  C   UNL     1     -43.421  58.215 -57.092  1.00  0.00     0.034 A 
HETATM   10  C   UNL     1     -42.546  57.410 -56.352  1.00  0.00     0.032 A 
ENDROOT
BRANCH   1  11
HETATM   11  N   UNL     1     -41.422  55.353 -55.870  1.00  0.00    -0.325 N 
HETATM   12  C   UNL     1     -41.364  55.264 -54.490  1.00  0.00     0.252 C 
HETATM   13  O   UNL     1     -42.029  55.911 -53.687  1.00  0.00    -0.270 OA
HETATM   14  H   UNL     1     -40.689  54.845 -56.359  1.00  0.00     0.169 HD
BRANCH  12  15
HETATM   15  C   UNL     1     -40.397  54.180 -54.010  1.00  0.00     0.229 C 
HETATM   16  C   UNL     1     -40.578  53.853 -52.511  1.00  0.00     0.056 C 
HETATM   17  C   UNL     1     -42.001  53.983 -51.970  1.00  0.00     0.018 C 
HETATM   18  C   UNL     1     -40.165  52.423 -52.557  1.00  0.00    -0.018 A 
HETATM   19  C   UNL     1     -40.182  51.979 -53.871  1.00  0.00     0.076 A 
HETATM   20  C   UNL     1     -39.855  51.560 -51.520  1.00  0.00     0.010 A 
HETATM   21  O   UNL     1     -40.527  52.951 -54.774  1.00  0.00    -0.335 OA
HETATM   22  C   UNL     1     -39.905  50.670 -54.203  1.00  0.00     0.037 A 
HETATM   23  C   UNL     1     -39.584  49.789 -53.169  1.00  0.00     0.003 A 
HETATM   24  C   UNL     1     -39.558  50.232 -51.835  1.00  0.00     0.001 A 
ENDBRANCH  12  15
ENDBRANCH   1  11
BRANCH   8  25
HETATM   25  C   UNL     1     -44.917  54.842 -60.426  1.00  0.00     0.270 C 
HETATM   26  N   UNL     1     -45.117  53.724 -59.663  1.00  0.00    -0.365 N 
HETATM   27  H   UNL     1     -45.146  53.823 -58.655  1.00  0.00     0.159 HD
HETATM   28  H   UNL     1     -45.264  52.834 -60.112  1.00  0.00     0.159 HD
HETATM   29  O   UNL     1     -44.900  54.779 -61.651  1.00  0.00    -0.266 OA
ENDBRANCH   8  25
TORSDOF 3
ENDMDL
MODEL 2
REMARK VINA RESULT:      -9.6      4.522      5.845
REMARK  3 active torsions:
REMARK  status: ('A' for Active; 'I' for Inactive)
REMARK    1  A    between atoms: C_3  and  C_4 
REMARK       I    between atoms: C_4  and  N_5 
REMARK    2  A    between atoms: N_5  and  C_6 
REMARK    3  A    between atoms: C_13  and  C_14 
REMARK       I    between atoms: C_14  and  N_15 
ROOT
HETATM    1  C   UNL     1     -41.820  57.748 -52.597  1.00  0.00     0.035 A 
HETATM    2  C   UNL     1     -42.892  58.109 -51.770  1.00  0.00     0.046 A 
HETATM    3  C   UNL     1     -43.438  59.407 -51.865  1.00  0.00     0.030 A 
HETATM    4  C   UNL     1     -42.883  60.304 -52.768  1.00  0.00     0.063 A 
HETATM    5  N   UNL     1     -43.610  61.453 -52.630  1.00  0.00    -0.277 N 
HETATM    6  H   UNL     1     -43.482  62.324 -53.133  1.00  0.00     0.189 HD
HETATM    7  N   UNL     1     -44.603  61.379 -51.729  1.00  0.00    -0.168 NA
HETATM    8  C   UNL     1     -44.512  60.117 -51.249  1.00  0.00     0.156 A 
HETATM    9  C   UNL     1     -41.808  59.982 -53.599  1.00  0.00     0.034 A 
HETATM   10  C   UNL     1     -41.296  58.682 -53.501  1.00  0.00     0.032 A 
ENDROOT
BRANCH   1  11
HETATM   11  N   UNL     1     -41.256  56.460 -52.614  1.00  0.00    -0.325 N 
HETATM   12  C   UNL     1     -41.613  55.386 -53.411  1.00  0.00     0.252 C 
HETATM   13  O   UNL     1     -42.595  55.313 -54.144  1.00  0.00    -0.270 OA
HETATM   14  H   UNL     1     -40.493  56.274 -51.968  1.00  0.00     0.169 HD
BRANCH  12  15
HETATM   15  C   UNL     1     -40.589  54.250 -53.362  1.00  0.00     0.229 C 
HETATM   16  C   UNL     1     -40.495  53.606 -51.960  1.00  0.00     0.056 C 
HETATM   17  C   UNL     1     -41.790  53.580 -51.152  1.00  0.00     0.018 C 
HETATM   18  C   UNL     1     -40.117  52.230 -52.387  1.00  0.00    -0.018 A 
HETATM   19  C   UNL     1     -40.384  52.077 -53.740  1.00  0.00     0.076 A 
HETATM   20  C   UNL     1     -39.633  51.174 -51.635  1.00  0.00     0.010 A 
HETATM   21  O   UNL     1     -40.876  53.210 -54.335  1.00  0.00    -0.335 OA
HETATM   22  C   UNL     1     -40.191  50.876 -54.391  1.00  0.00     0.037 A 
HETATM   23  C   UNL     1     -39.696  49.804 -53.647  1.00  0.00     0.003 A 
HETATM   24  C   UNL     1     -39.418  49.952 -52.277  1.00  0.00     0.001 A 
ENDBRANCH  12  15
ENDBRANCH   1  11
BRANCH   8  25
HETATM   25  C   UNL     1     -45.451  59.618 -50.234  1.00  0.00     0.270 C 
HETATM   26  N   UNL     1     -45.322  60.219 -49.012  1.00  0.00    -0.365 N 
HETATM   27  H   UNL     1     -44.626  60.947 -48.899  1.00  0.00     0.159 HD
HETATM   28  H   UNL     1     -45.938  59.955 -48.258  1.00  0.00     0.159 HD
HETATM   29  O   UNL     1     -46.296  58.750 -50.428  1.00  0.00    -0.266 OA
ENDBRANCH   8  25
TORSDOF 3
ENDMDL
MODEL 3
REMARK VINA RESULT:      -9.5      4.172      5.916
REMARK  3 active torsions:
REMARK  status: ('A' for Active; 'I' for Inactive)
REMARK    1  A    between atoms: C_3  and  C_4 
REMARK       I    between atoms: C_4  and  N_5 
REMARK    2  A    between atoms: N_5  and  C_6 
REMARK    3  A    between atoms: C_13  and  C_14 
REMARK       I    between atoms: C_14  and  N_15 
ROOT
HETATM    1  C   UNL     1     -44.075  57.079 -53.462  1.00  0.00     0.035 A 
HETATM    2  C   UNL     1     -44.339  57.795 -52.287  1.00  0.00     0.046 A 
HETATM    3  C   UNL     1     -45.018  59.030 -52.362  1.00  0.00     0.030 A 
HETATM    4  C   UNL     1     -45.391  59.516 -53.608  1.00  0.00     0.063 A 
HETATM    5  N   UNL     1     -46.013  60.707 -53.361  1.00  0.00    -0.277 N 
HETATM    6  H   UNL     1     -46.414  61.343 -54.041  1.00  0.00     0.189 HD
HETATM    7  N   UNL     1     -46.097  61.033 -52.061  1.00  0.00    -0.168 NA
HETATM    8  C   UNL     1     -45.487  60.003 -51.428  1.00  0.00     0.156 A 
HETATM    9  C   UNL     1     -45.133  58.835 -54.800  1.00  0.00     0.034 A 
HETATM   10  C   UNL     1     -44.477  57.602 -54.698  1.00  0.00     0.032 A 
ENDROOT
BRANCH   1  11
HETATM   11  N   UNL     1     -43.462  55.813 -53.475  1.00  0.00    -0.325 N 
HETATM   12  C   UNL     1     -42.190  55.480 -53.043  1.00  0.00     0.252 C 
HETATM   13  O   UNL     1     -41.302  56.259 -52.711  1.00  0.00    -0.270 OA
HETATM   14  H   UNL     1     -44.002  55.036 -53.846  1.00  0.00     0.169 HD
BRANCH  12  15
HETATM   15  C   UNL     1     -41.983  53.968 -52.936  1.00  0.00     0.229 C 
HETATM   16  C   UNL     1     -41.567  53.336 -54.284  1.00  0.00     0.056 C 
HETATM   17  C   UNL     1     -40.721  54.219 -55.199  1.00  0.00     0.018 C 
HETATM   18  C   UNL     1     -40.754  52.210 -53.745  1.00  0.00    -0.018 A 
HETATM   19  C   UNL     1     -40.450  52.456 -52.414  1.00  0.00     0.076 A 
HETATM   20  C   UNL     1     -40.267  51.086 -54.389  1.00  0.00     0.010 A 
HETATM   21  O   UNL     1     -40.991  53.619 -51.932  1.00  0.00    -0.335 OA
HETATM   22  C   UNL     1     -39.649  51.607 -51.679  1.00  0.00     0.037 A 
HETATM   23  C   UNL     1     -39.156  50.464 -52.313  1.00  0.00     0.003 A 
HETATM   24  C   UNL     1     -39.465  50.205 -53.660  1.00  0.00     0.001 A 
ENDBRANCH  12  15
ENDBRANCH   1  11
BRANCH   8  25
HETATM   25  C   UNL     1     -45.381  59.963 -49.963  1.00  0.00     0.270 C 
HETATM   26  N   UNL     1     -44.401  60.770 -49.453  1.00  0.00    -0.365 N 
HETATM   27  H   UNL     1     -43.847  61.326 -50.094  1.00  0.00     0.159 HD
HETATM   28  H   UNL     1     -44.267  60.823 -48.455  1.00  0.00     0.159 HD
HETATM   29  O   UNL     1     -46.095  59.290 -49.227  1.00  0.00    -0.266 OA
ENDBRANCH   8  25
TORSDOF 3
ENDMDL
MODEL 4
REMARK VINA RESULT:      -9.2      1.823      2.734
REMARK  3 active torsions:
REMARK  status: ('A' for Active; 'I' for Inactive)
REMARK    1  A    between atoms: C_3  and  C_4 
REMARK       I    between atoms: C_4  and  N_5 
REMARK    2  A    between atoms: N_5  and  C_6 
REMARK    3  A    between atoms: C_13  and  C_14 
REMARK       I    between atoms: C_14  and  N_15 
ROOT
HETATM    1  C   UNL     1     -43.048  56.739 -56.257  1.00  0.00     0.035 A 
HETATM    2  C   UNL     1     -43.718  56.300 -57.407  1.00  0.00     0.046 A 
HETATM    3  C   UNL     1     -43.651  57.070 -58.588  1.00  0.00     0.030 A 
HETATM    4  C   UNL     1     -42.935  58.259 -58.574  1.00  0.00     0.063 A 
HETATM    5  N   UNL     1     -43.054  58.769 -59.837  1.00  0.00    -0.277 N 
HETATM    6  H   UNL     1     -42.659  59.633 -60.189  1.00  0.00     0.189 HD
HETATM    7  N   UNL     1     -43.770  58.007 -60.679  1.00  0.00    -0.168 NA
HETATM    8  C   UNL     1     -44.145  56.949 -59.922  1.00  0.00     0.156 A 
HETATM    9  C   UNL     1     -42.265  58.732 -57.444  1.00  0.00     0.034 A 
HETATM   10  C   UNL     1     -42.329  57.941 -56.290  1.00  0.00     0.032 A 
ENDROOT
BRANCH   1  11
HETATM   11  N   UNL     1     -43.009  56.005 -55.058  1.00  0.00    -0.325 N 
HETATM   12  C   UNL     1     -43.108  54.634 -54.897  1.00  0.00     0.252 C 
HETATM   13  O   UNL     1     -43.406  53.815 -55.760  1.00  0.00    -0.270 OA
HETATM   14  H   UNL     1     -42.896  56.528 -54.193  1.00  0.00     0.169 HD
BRANCH  12  15
HETATM   15  C   UNL     1     -42.725  54.179 -53.487  1.00  0.00     0.229 C 
HETATM   16  C   UNL     1     -41.408  53.370 -53.468  1.00  0.00     0.056 C 
HETATM   17  C   UNL     1     -40.368  53.769 -54.514  1.00  0.00     0.018 C 
HETATM   18  C   UNL     1     -40.949  53.749 -52.103  1.00  0.00    -0.018 A 
HETATM   19  C   UNL     1     -41.657  54.860 -51.670  1.00  0.00     0.076 A 
HETATM   20  C   UNL     1     -39.947  53.197 -51.324  1.00  0.00     0.010 A 
HETATM   21  O   UNL     1     -42.600  55.294 -52.564  1.00  0.00    -0.335 OA
HETATM   22  C   UNL     1     -41.391  55.469 -50.460  1.00  0.00     0.037 A 
HETATM   23  C   UNL     1     -40.388  54.919 -49.661  1.00  0.00     0.003 A 
HETATM   24  C   UNL     1     -39.671  53.789 -50.089  1.00  0.00     0.001 A 
ENDBRANCH  12  15
ENDBRANCH   1  11
BRANCH   8  25
HETATM   25  C   UNL     1     -44.944  55.852 -60.487  1.00  0.00     0.270 C 
HETATM   26  N   UNL     1     -46.152  55.669 -59.872  1.00  0.00    -0.365 N 
HETATM   27  H   UNL     1     -46.408  56.285 -59.109  1.00  0.00     0.159 HD
HETATM   28  H   UNL     1     -46.777  54.951 -60.204  1.00  0.00     0.159 HD
HETATM   29  O   UNL     1     -44.600  55.148 -61.430  1.00  0.00    -0.266 OA
ENDBRANCH   8  25
TORSDOF 3
ENDMDL
MODEL 5
REMARK VINA RESULT:      -9.1      2.112      2.913
REMARK  3 active torsions:
REMARK  status: ('A' for Active; 'I' for Inactive)
REMARK    1  A    between atoms: C_3  and  C_4 
REMARK       I    between atoms: C_4  and  N_5 
REMARK    2  A    between atoms: N_5  and  C_6 
REMARK    3  A    between atoms: C_13  and  C_14 
REMARK       I    between atoms: C_14  and  N_15 
ROOT
HETATM    1  C   UNL     1     -43.063  56.374 -57.644  1.00  0.00     0.035 A 
HETATM    2  C   UNL     1     -44.063  57.350 -57.532  1.00  0.00     0.046 A 
HETATM    3  C   UNL     1     -44.800  57.725 -58.676  1.00  0.00     0.030 A 
HETATM    4  C   UNL     1     -44.500  57.128 -59.893  1.00  0.00     0.063 A 
HETATM    5  N   UNL     1     -45.362  57.688 -60.794  1.00  0.00    -0.277 N 
HETATM    6  H   UNL     1     -45.427  57.490 -61.786  1.00  0.00     0.189 HD
HETATM    7  N   UNL     1     -46.212  58.585 -60.268  1.00  0.00    -0.168 NA
HETATM    8  C   UNL     1     -45.879  58.617 -58.956  1.00  0.00     0.156 A 
HETATM    9  C   UNL     1     -43.503  56.161 -60.043  1.00  0.00     0.034 A 
HETATM   10  C   UNL     1     -42.799  55.791 -58.890  1.00  0.00     0.032 A 
ENDROOT
BRANCH   1  11
HETATM   11  N   UNL     1     -42.325  55.895 -56.547  1.00  0.00    -0.325 N 
HETATM   12  C   UNL     1     -42.509  54.713 -55.850  1.00  0.00     0.252 C 
HETATM   13  O   UNL     1     -43.452  53.936 -55.962  1.00  0.00    -0.270 OA
HETATM   14  H   UNL     1     -41.561  56.473 -56.208  1.00  0.00     0.169 HD
BRANCH  12  15
HETATM   15  C   UNL     1     -41.338  54.392 -54.919  1.00  0.00     0.229 C 
HETATM   16  C   UNL     1     -41.626  54.791 -53.454  1.00  0.00     0.056 C 
HETATM   17  C   UNL     1     -43.083  54.682 -53.010  1.00  0.00     0.018 C 
HETATM   18  C   UNL     1     -40.796  53.750 -52.786  1.00  0.00    -0.018 A 
HETATM   19  C   UNL     1     -40.488  52.751 -53.697  1.00  0.00     0.076 A 
HETATM   20  C   UNL     1     -40.392  53.657 -51.466  1.00  0.00     0.010 A 
HETATM   21  O   UNL     1     -40.977  52.984 -54.956  1.00  0.00    -0.335 OA
HETATM   22  C   UNL     1     -39.782  51.623 -53.333  1.00  0.00     0.037 A 
HETATM   23  C   UNL     1     -39.361  51.518 -52.006  1.00  0.00     0.003 A 
HETATM   24  C   UNL     1     -39.664  52.529 -51.078  1.00  0.00     0.001 A 
ENDBRANCH  12  15
ENDBRANCH   1  11
BRANCH   8  25
HETATM   25  C   UNL     1     -46.599  59.478 -58.007  1.00  0.00     0.270 C 
HETATM   26  N   UNL     1     -47.733  58.913 -57.492  1.00  0.00    -0.365 N 
HETATM   27  H   UNL     1     -47.981  57.972 -57.778  1.00  0.00     0.159 HD
HETATM   28  H   UNL     1     -48.282  59.422 -56.817  1.00  0.00     0.159 HD
HETATM   29  O   UNL     1     -46.243  60.603 -57.672  1.00  0.00    -0.266 OA
ENDBRANCH   8  25
TORSDOF 3
ENDMDL
MODEL 6
REMARK VINA RESULT:      -9.0     14.733     18.162
REMARK  3 active torsions:
REMARK  status: ('A' for Active; 'I' for Inactive)
REMARK    1  A    between atoms: C_3  and  C_4 
REMARK       I    between atoms: C_4  and  N_5 
REMARK    2  A    between atoms: N_5  and  C_6 
REMARK    3  A    between atoms: C_13  and  C_14 
REMARK       I    between atoms: C_14  and  N_15 
ROOT
HETATM    1  C   UNL     1     -34.393  40.174 -52.416  1.00  0.00     0.035 A 
HETATM    2  C   UNL     1     -34.510  39.493 -51.197  1.00  0.00     0.046 A 
HETATM    3  C   UNL     1     -33.395  39.411 -50.335  1.00  0.00     0.030 A 
HETATM    4  C   UNL     1     -32.198  39.994 -50.729  1.00  0.00     0.063 A 
HETATM    5  N   UNL     1     -31.323  39.750 -49.708  1.00  0.00    -0.277 N 
HETATM    6  H   UNL     1     -30.350  40.030 -49.654  1.00  0.00     0.189 HD
HETATM    7  N   UNL     1     -31.849  39.075 -48.673  1.00  0.00    -0.168 NA
HETATM    8  C   UNL     1     -33.133  38.860 -49.045  1.00  0.00     0.156 A 
HETATM    9  C   UNL     1     -32.043  40.670 -51.941  1.00  0.00     0.034 A 
HETATM   10  C   UNL     1     -33.168  40.756 -52.770  1.00  0.00     0.032 A 
ENDROOT
BRANCH   1  11
HETATM   11  N   UNL     1     -35.467  40.360 -53.304  1.00  0.00    -0.325 N 
HETATM   12  C   UNL     1     -36.228  41.501 -53.492  1.00  0.00     0.252 C 
HETATM   13  O   UNL     1     -36.207  42.516 -52.803  1.00  0.00    -0.270 OA
HETATM   14  H   UNL     1     -35.734  39.571 -53.887  1.00  0.00     0.169 HD
BRANCH  12  15
HETATM   15  C   UNL     1     -37.105  41.424 -54.744  1.00  0.00     0.229 C 
HETATM   16  C   UNL     1     -36.584  42.331 -55.881  1.00  0.00     0.056 C 
HETATM   17  C   UNL     1     -35.069  42.508 -55.950  1.00  0.00     0.018 C 
HETATM   18  C   UNL     1     -37.068  41.520 -57.033  1.00  0.00    -0.018 A 
HETATM   19  C   UNL     1     -37.390  40.244 -56.596  1.00  0.00     0.076 A 
HETATM   20  C   UNL     1     -37.163  41.857 -58.372  1.00  0.00     0.010 A 
HETATM   21  O   UNL     1     -37.225  40.066 -55.248  1.00  0.00    -0.335 OA
HETATM   22  C   UNL     1     -37.806  39.257 -57.467  1.00  0.00     0.037 A 
HETATM   23  C   UNL     1     -37.912  39.584 -58.820  1.00  0.00     0.003 A 
HETATM   24  C   UNL     1     -37.594  40.877 -59.270  1.00  0.00     0.001 A 
ENDBRANCH  12  15
ENDBRANCH   1  11
BRANCH   8  25
HETATM   25  C   UNL     1     -34.074  38.154 -48.163  1.00  0.00     0.270 C 
HETATM   26  N   UNL     1     -33.523  37.097 -47.492  1.00  0.00    -0.365 N 
HETATM   27  H   UNL     1     -32.541  36.890 -47.633  1.00  0.00     0.159 HD
HETATM   28  H   UNL     1     -34.088  36.565 -46.849  1.00  0.00     0.159 HD
HETATM   29  O   UNL     1     -35.251  38.460 -48.007  1.00  0.00    -0.266 OA
ENDBRANCH   8  25
TORSDOF 3
ENDMDL
MODEL 7
REMARK VINA RESULT:      -8.9      4.772      8.657
REMARK  3 active torsions:
REMARK  status: ('A' for Active; 'I' for Inactive)
REMARK    1  A    between atoms: C_3  and  C_4 
REMARK       I    between atoms: C_4  and  N_5 
REMARK    2  A    between atoms: N_5  and  C_6 
REMARK    3  A    between atoms: C_13  and  C_14 
REMARK       I    between atoms: C_14  and  N_15 
ROOT
HETATM    1  C   UNL     1     -40.967  54.712 -52.756  1.00  0.00     0.035 A 
HETATM    2  C   UNL     1     -40.701  53.545 -52.028  1.00  0.00     0.046 A 
HETATM    3  C   UNL     1     -40.228  52.398 -52.700  1.00  0.00     0.030 A 
HETATM    4  C   UNL     1     -40.058  52.449 -54.077  1.00  0.00     0.063 A 
HETATM    5  N   UNL     1     -39.603  51.210 -54.432  1.00  0.00    -0.277 N 
HETATM    6  H   UNL     1     -39.372  50.886 -55.365  1.00  0.00     0.189 HD
HETATM    7  N   UNL     1     -39.442  50.360 -53.405  1.00  0.00    -0.168 NA
HETATM    8  C   UNL     1     -39.823  51.081 -52.325  1.00  0.00     0.156 A 
HETATM    9  C   UNL     1     -40.325  53.591 -54.836  1.00  0.00     0.034 A 
HETATM   10  C   UNL     1     -40.773  54.723 -54.144  1.00  0.00     0.032 A 
ENDROOT
BRANCH   1  11
HETATM   11  N   UNL     1     -41.379  55.918 -52.161  1.00  0.00    -0.325 N 
HETATM   12  C   UNL     1     -42.556  56.613 -52.376  1.00  0.00     0.252 C 
HETATM   13  O   UNL     1     -43.393  56.386 -53.245  1.00  0.00    -0.270 OA
HETATM   14  H   UNL     1     -40.747  56.349 -51.491  1.00  0.00     0.169 HD
BRANCH  12  15
HETATM   15  C   UNL     1     -42.786  57.715 -51.339  1.00  0.00     0.229 C 
HETATM   16  C   UNL     1     -41.811  58.901 -51.516  1.00  0.00     0.056 C 
HETATM   17  C   UNL     1     -41.381  59.200 -52.951  1.00  0.00     0.018 C 
HETATM   18  C   UNL     1     -42.698  59.980 -51.000  1.00  0.00    -0.018 A 
HETATM   19  C   UNL     1     -44.007  59.525 -50.967  1.00  0.00     0.076 A 
HETATM   20  C   UNL     1     -42.388  61.281 -50.642  1.00  0.00     0.010 A 
HETATM   21  O   UNL     1     -44.147  58.223 -51.370  1.00  0.00    -0.335 OA
HETATM   22  C   UNL     1     -45.055  60.341 -50.591  1.00  0.00     0.037 A 
HETATM   23  C   UNL     1     -44.758  61.654 -50.221  1.00  0.00     0.003 A 
HETATM   24  C   UNL     1     -43.432  62.121 -50.245  1.00  0.00     0.001 A 
ENDBRANCH  12  15
ENDBRANCH   1  11
BRANCH   8  25
HETATM   25  C   UNL     1     -39.777  50.509 -50.972  1.00  0.00     0.270 C 
HETATM   26  N   UNL     1     -39.032  49.365 -50.875  1.00  0.00    -0.365 N 
HETATM   27  H   UNL     1     -38.572  49.014 -51.706  1.00  0.00     0.159 HD
HETATM   28  H   UNL     1     -38.927  48.913 -49.980  1.00  0.00     0.159 HD
HETATM   29  O   UNL     1     -40.333  50.988 -49.989  1.00  0.00    -0.266 OA
ENDBRANCH   8  25
TORSDOF 3
ENDMDL
MODEL 8
REMARK VINA RESULT:      -8.8     14.720     18.041
REMARK  3 active torsions:
REMARK  status: ('A' for Active; 'I' for Inactive)
REMARK    1  A    between atoms: C_3  and  C_4 
REMARK       I    between atoms: C_4  and  N_5 
REMARK    2  A    between atoms: N_5  and  C_6 
REMARK    3  A    between atoms: C_13  and  C_14 
REMARK       I    between atoms: C_14  and  N_15 
ROOT
HETATM    1  C   UNL     1     -36.007  40.021 -51.267  1.00  0.00     0.035 A 
HETATM    2  C   UNL     1     -34.692  40.101 -50.790  1.00  0.00     0.046 A 
HETATM    3  C   UNL     1     -34.306  39.319 -49.681  1.00  0.00     0.030 A 
HETATM    4  C   UNL     1     -35.249  38.500 -49.075  1.00  0.00     0.063 A 
HETATM    5  N   UNL     1     -34.589  37.884 -48.049  1.00  0.00    -0.277 N 
HETATM    6  H   UNL     1     -34.969  37.216 -47.389  1.00  0.00     0.189 HD
HETATM    7  N   UNL     1     -33.292  38.215 -47.943  1.00  0.00    -0.168 NA
HETATM    8  C   UNL     1     -33.100  39.101 -48.948  1.00  0.00     0.156 A 
HETATM    9  C   UNL     1     -36.570  38.404 -49.517  1.00  0.00     0.034 A 
HETATM   10  C   UNL     1     -36.925  39.174 -50.631  1.00  0.00     0.032 A 
ENDROOT
BRANCH   1  11
HETATM   11  N   UNL     1     -36.462  40.714 -52.403  1.00  0.00    -0.325 N 
HETATM   12  C   UNL     1     -36.032  41.941 -52.878  1.00  0.00     0.252 C 
HETATM   13  O   UNL     1     -35.281  42.725 -52.307  1.00  0.00    -0.270 OA
HETATM   14  H   UNL     1     -37.197  40.279 -52.954  1.00  0.00     0.169 HD
BRANCH  12  15
HETATM   15  C   UNL     1     -36.540  42.235 -54.292  1.00  0.00     0.229 C 
HETATM   16  C   UNL     1     -35.405  42.210 -55.340  1.00  0.00     0.056 C 
HETATM   17  C   UNL     1     -34.266  41.230 -55.064  1.00  0.00     0.018 C 
HETATM   18  C   UNL     1     -36.211  41.759 -56.509  1.00  0.00    -0.018 A 
HETATM   19  C   UNL     1     -37.418  41.240 -56.066  1.00  0.00     0.076 A 
HETATM   20  C   UNL     1     -35.885  41.749 -57.854  1.00  0.00     0.010 A 
HETATM   21  O   UNL     1     -37.578  41.307 -54.706  1.00  0.00    -0.335 OA
HETATM   22  C   UNL     1     -38.337  40.686 -56.932  1.00  0.00     0.037 A 
HETATM   23  C   UNL     1     -38.026  40.676 -58.293  1.00  0.00     0.003 A 
HETATM   24  C   UNL     1     -36.808  41.205 -58.752  1.00  0.00     0.001 A 
ENDBRANCH  12  15
ENDBRANCH   1  11
BRANCH   8  25
HETATM   25  C   UNL     1     -31.781  39.701 -49.194  1.00  0.00     0.270 C 
HETATM   26  N   UNL     1     -31.169  40.182 -48.068  1.00  0.00    -0.365 N 
HETATM   27  H   UNL     1     -31.642  40.083 -47.178  1.00  0.00     0.159 HD
HETATM   28  H   UNL     1     -30.251  40.594 -48.137  1.00  0.00     0.159 HD
HETATM   29  O   UNL     1     -31.238  39.775 -50.291  1.00  0.00    -0.266 OA
ENDBRANCH   8  25
TORSDOF 3
ENDMDL
MODEL 9
REMARK VINA RESULT:      -8.8      2.786      8.322
REMARK  3 active torsions:
REMARK  status: ('A' for Active; 'I' for Inactive)
REMARK    1  A    between atoms: C_3  and  C_4 
REMARK       I    between atoms: C_4  and  N_5 
REMARK    2  A    between atoms: N_5  and  C_6 
REMARK    3  A    between atoms: C_13  and  C_14 
REMARK       I    between atoms: C_14  and  N_15 
ROOT
HETATM    1  C   UNL     1     -40.922  54.698 -54.414  1.00  0.00     0.035 A 
HETATM    2  C   UNL     1     -40.604  53.340 -54.554  1.00  0.00     0.046 A 
HETATM    3  C   UNL     1     -40.296  52.575 -53.409  1.00  0.00     0.030 A 
HETATM    4  C   UNL     1     -40.296  53.196 -52.167  1.00  0.00     0.063 A 
HETATM    5  N   UNL     1     -39.963  52.218 -51.273  1.00  0.00    -0.277 N 
HETATM    6  H   UNL     1     -39.865  52.313 -50.268  1.00  0.00     0.189 HD
HETATM    7  N   UNL     1     -39.764  51.008 -51.820  1.00  0.00    -0.168 NA
HETATM    8  C   UNL     1     -39.969  51.211 -53.142  1.00  0.00     0.156 A 
HETATM    9  C   UNL     1     -40.596  54.549 -51.992  1.00  0.00     0.034 A 
HETATM   10  C   UNL     1     -40.919  55.283 -53.140  1.00  0.00     0.032 A 
ENDROOT
BRANCH   1  11
HETATM   11  N   UNL     1     -41.304  55.518 -55.490  1.00  0.00    -0.325 N 
HETATM   12  C   UNL     1     -42.540  56.096 -55.722  1.00  0.00     0.252 C 
HETATM   13  O   UNL     1     -43.579  55.871 -55.110  1.00  0.00    -0.270 OA
HETATM   14  H   UNL     1     -40.601  55.721 -56.196  1.00  0.00     0.169 HD
BRANCH  12  15
HETATM   15  C   UNL     1     -42.496  57.157 -56.824  1.00  0.00     0.229 C 
HETATM   16  C   UNL     1     -42.627  56.542 -58.236  1.00  0.00     0.056 C 
HETATM   17  C   UNL     1     -43.493  55.288 -58.337  1.00  0.00     0.018 C 
HETATM   18  C   UNL     1     -43.295  57.694 -58.904  1.00  0.00    -0.018 A 
HETATM   19  C   UNL     1     -43.798  58.557 -57.943  1.00  0.00     0.076 A 
HETATM   20  C   UNL     1     -43.497  57.936 -60.252  1.00  0.00     0.010 A 
HETATM   21  O   UNL     1     -43.528  58.166 -56.657  1.00  0.00    -0.335 OA
HETATM   22  C   UNL     1     -44.525  59.680 -58.278  1.00  0.00     0.037 A 
HETATM   23  C   UNL     1     -44.732  59.942 -59.634  1.00  0.00     0.003 A 
HETATM   24  C   UNL     1     -44.220  59.075 -60.615  1.00  0.00     0.001 A 
ENDBRANCH  12  15
ENDBRANCH   1  11
BRANCH   8  25
HETATM   25  C   UNL     1     -39.865  50.109 -54.109  1.00  0.00     0.270 C 
HETATM   26  N   UNL     1     -41.034  49.830 -54.764  1.00  0.00    -0.365 N 
HETATM   27  H   UNL     1     -41.853  50.389 -54.557  1.00  0.00     0.159 HD
HETATM   28  H   UNL     1     -41.053  49.102 -55.461  1.00  0.00     0.159 HD
HETATM   29  O   UNL     1     -38.841  49.477 -54.343  1.00  0.00    -0.266 OA
ENDBRANCH   8  25
TORSDOF 3
ENDMDL
MODEL 10
REMARK VINA RESULT:      -8.7      2.915      8.784
REMARK  3 active torsions:
REMARK  status: ('A' for Active; 'I' for Inactive)
REMARK    1  A    between atoms: C_3  and  C_4 
REMARK       I    between atoms: C_4  and  N_5 
REMARK    2  A    between atoms: N_5  and  C_6 
REMARK    3  A    between atoms: C_13  and  C_14 
REMARK       I    between atoms: C_14  and  N_15 
ROOT
HETATM    1  C   UNL     1     -41.003  54.573 -54.484  1.00  0.00     0.035 A 
HETATM    2  C   UNL     1     -41.279  54.736 -53.120  1.00  0.00     0.046 A 
HETATM    3  C   UNL     1     -40.861  53.748 -52.203  1.00  0.00     0.030 A 
HETATM    4  C   UNL     1     -40.202  52.624 -52.681  1.00  0.00     0.063 A 
HETATM    5  N   UNL     1     -39.933  51.864 -51.577  1.00  0.00    -0.277 N 
HETATM    6  H   UNL     1     -39.460  50.968 -51.549  1.00  0.00     0.189 HD
HETATM    7  N   UNL     1     -40.342  52.403 -50.417  1.00  0.00    -0.168 NA
HETATM    8  C   UNL     1     -40.916  53.572 -50.787  1.00  0.00     0.156 A 
HETATM    9  C   UNL     1     -39.921  52.423 -54.034  1.00  0.00     0.034 A 
HETATM   10  C   UNL     1     -40.327  53.426 -54.923  1.00  0.00     0.032 A 
ENDROOT
BRANCH   1  11
HETATM   11  N   UNL     1     -41.325  55.534 -55.459  1.00  0.00    -0.325 N 
HETATM   12  C   UNL     1     -42.551  56.133 -55.689  1.00  0.00     0.252 C 
HETATM   13  O   UNL     1     -43.626  55.820 -55.185  1.00  0.00    -0.270 OA
HETATM   14  H   UNL     1     -40.581  55.837 -56.081  1.00  0.00     0.169 HD
BRANCH  12  15
HETATM   15  C   UNL     1     -42.450  57.338 -56.627  1.00  0.00     0.229 C 
HETATM   16  C   UNL     1     -42.489  56.927 -58.117  1.00  0.00     0.056 C 
HETATM   17  C   UNL     1     -43.334  55.698 -58.446  1.00  0.00     0.018 C 
HETATM   18  C   UNL     1     -43.126  58.160 -58.658  1.00  0.00    -0.018 A 
HETATM   19  C   UNL     1     -43.696  58.879 -57.618  1.00  0.00     0.076 A 
HETATM   20  C   UNL     1     -43.248  58.588 -59.968  1.00  0.00     0.010 A 
HETATM   21  O   UNL     1     -43.501  58.312 -56.386  1.00  0.00    -0.335 OA
HETATM   22  C   UNL     1     -44.412  60.037 -57.838  1.00  0.00     0.037 A 
HETATM   23  C   UNL     1     -44.538  60.486 -59.154  1.00  0.00     0.003 A 
HETATM   24  C   UNL     1     -43.958  59.766 -60.213  1.00  0.00     0.001 A 
ENDBRANCH  12  15
ENDBRANCH   1  11
BRANCH   8  25
HETATM   25  C   UNL     1     -41.486  54.491 -49.791  1.00  0.00     0.270 C 
HETATM   26  N   UNL     1     -40.763  54.575 -48.632  1.00  0.00    -0.365 N 
HETATM   27  H   UNL     1     -39.912  54.030 -48.550  1.00  0.00     0.159 HD
HETATM   28  H   UNL     1     -41.066  55.196 -47.899  1.00  0.00     0.159 HD
HETATM   29  O   UNL     1     -42.508  55.149 -49.949  1.00  0.00    -0.266 OA
ENDBRANCH   8  25
TORSDOF 3
ENDMDL
