MODEL 1
REMARK VINA RESULT:      -8.2      0.000      0.000
REMARK  4 active torsions:
REMARK  status: ('A' for Active; 'I' for Inactive)
REMARK    1  A    between atoms: O_2  and  C_3 
REMARK    2  A    between atoms: C_6  and  C_7 
REMARK    3  A    between atoms: C_12  and  N_13 
REMARK    4  A    between atoms: C_15  and  C_16 
ROOT
HETATM    1  C   UNL     1     -41.408  56.968 -55.169  1.00  0.00     0.135 C 
HETATM    2  N   UNL     1     -42.045  57.610 -54.026  1.00  0.00    -0.214 N 
HETATM    3  C   UNL     1     -42.659  56.869 -53.080  1.00  0.00     0.736 A 
HETATM    4  N   UNL     1     -42.484  55.512 -53.005  1.00  0.00    -0.074 N 
HETATM    5  N   UNL     1     -43.299  54.970 -52.083  1.00  0.00     0.037 NA
HETATM    6  C   UNL     1     -43.852  56.063 -51.564  1.00  0.00     0.753 A 
HETATM    7  N   UNL     1     -43.512  57.240 -52.161  1.00  0.00     0.131 NA
HETATM    8  C   UNL     1     -41.694  54.742 -53.959  1.00  0.00     0.164 C 
HETATM    9  C   UNL     1     -40.724  55.663 -54.723  1.00  0.00     0.063 C 
HETATM   10  H   UNL     1     -42.403  58.548 -54.181  1.00  0.00     0.178 HD
ENDROOT
BRANCH   1  11
HETATM   11  C   UNL     1     -42.338  56.780 -56.361  1.00  0.00    -0.035 A 
HETATM   12  C   UNL     1     -42.580  55.540 -56.967  1.00  0.00     0.012 A 
HETATM   13  C   UNL     1     -43.451  55.434 -58.057  1.00  0.00     0.037 A 
HETATM   14  C   UNL     1     -44.103  56.556 -58.566  1.00  0.00     0.068 A 
HETATM   15  C   UNL     1     -43.866  57.797 -57.981  1.00  0.00     0.037 A 
HETATM   16  C   UNL     1     -42.994  57.906 -56.890  1.00  0.00     0.012 A 
BRANCH  14  17
HETATM   17  O   UNL     1     -44.932  56.308 -59.624  1.00  0.00    -0.356 OA
HETATM   18  C   UNL     1     -44.892  55.000 -60.179  1.00  0.00     0.210 C 
ENDBRANCH  14  17
ENDBRANCH   1  11
BRANCH   8  19
HETATM   19  C   UNL     1     -40.928  53.600 -53.302  1.00  0.00    -0.031 A 
HETATM   20  C   UNL     1     -40.685  52.419 -54.023  1.00  0.00     0.028 A 
HETATM   21  C   UNL     1     -39.962  51.375 -53.443  1.00  0.00     0.011 A 
HETATM   22 BR   UNL     1     -39.647  49.793 -54.429  1.00  0.00    -0.051 Br
HETATM   23  C   UNL     1     -39.468  51.490 -52.145  1.00  0.00     0.019 A 
HETATM   24  C   UNL     1     -39.700  52.657 -51.420  1.00  0.00     0.002 A 
HETATM   25  C   UNL     1     -40.423  53.705 -51.995  1.00  0.00     0.009 A 
ENDBRANCH   8  19
BRANCH   6  26
HETATM   26  N   UNL     1     -44.735  56.084 -50.571  1.00  0.00    -0.229 N 
HETATM   27  H   UNL     1     -44.628  55.379 -49.853  1.00  0.00     0.174 HD
HETATM   28  H   UNL     1     -45.690  56.303 -50.817  1.00  0.00     0.174 HD
ENDBRANCH   6  26
TORSDOF 4
ENDMDL
MODEL 2
REMARK VINA RESULT:      -8.0      3.670      6.611
REMARK  4 active torsions:
REMARK  status: ('A' for Active; 'I' for Inactive)
REMARK    1  A    between atoms: O_2  and  C_3 
REMARK    2  A    between atoms: C_6  and  C_7 
REMARK    3  A    between atoms: C_12  and  N_13 
REMARK    4  A    between atoms: C_15  and  C_16 
ROOT
HETATM    1  C   UNL     1     -42.876  55.049 -51.976  1.00  0.00     0.135 C 
HETATM    2  N   UNL     1     -42.364  55.864 -50.881  1.00  0.00    -0.214 N 
HETATM    3  C   UNL     1     -41.687  57.003 -51.135  1.00  0.00     0.736 A 
HETATM    4  N   UNL     1     -41.681  57.572 -52.381  1.00  0.00    -0.074 N 
HETATM    5  N   UNL     1     -40.829  58.611 -52.434  1.00  0.00     0.037 NA
HETATM    6  C   UNL     1     -40.443  58.683 -51.163  1.00  0.00     0.753 A 
HETATM    7  N   UNL     1     -40.918  57.704 -50.342  1.00  0.00     0.131 NA
HETATM    8  C   UNL     1     -42.333  56.983 -53.545  1.00  0.00     0.164 C 
HETATM    9  C   UNL     1     -43.393  55.955 -53.107  1.00  0.00     0.063 C 
HETATM   10  H   UNL     1     -42.131  55.369 -50.025  1.00  0.00     0.178 HD
ENDROOT
BRANCH   1  11
HETATM   11  C   UNL     1     -41.894  53.989 -52.459  1.00  0.00    -0.035 A 
HETATM   12  C   UNL     1     -41.849  53.517 -53.778  1.00  0.00     0.012 A 
HETATM   13  C   UNL     1     -40.917  52.546 -54.159  1.00  0.00     0.037 A 
HETATM   14  C   UNL     1     -40.008  52.024 -53.241  1.00  0.00     0.068 A 
HETATM   15  C   UNL     1     -40.045  52.475 -51.924  1.00  0.00     0.037 A 
HETATM   16  C   UNL     1     -40.977  53.448 -51.539  1.00  0.00     0.012 A 
BRANCH  14  17
HETATM   17  O   UNL     1     -39.149  51.091 -53.749  1.00  0.00    -0.356 OA
HETATM   18  C   UNL     1     -39.731  49.961 -54.385  1.00  0.00     0.210 C 
ENDBRANCH  14  17
ENDBRANCH   1  11
BRANCH   8  19
HETATM   19  C   UNL     1     -42.959  58.028 -54.461  1.00  0.00    -0.031 A 
HETATM   20  C   UNL     1     -42.311  58.386 -55.655  1.00  0.00     0.028 A 
HETATM   21  C   UNL     1     -42.887  59.322 -56.516  1.00  0.00     0.011 A 
HETATM   22 BR   UNL     1     -41.998  59.792 -58.117  1.00  0.00    -0.051 Br
HETATM   23  C   UNL     1     -44.111  59.911 -56.207  1.00  0.00     0.019 A 
HETATM   24  C   UNL     1     -44.765  59.564 -55.027  1.00  0.00     0.002 A 
HETATM   25  C   UNL     1     -44.195  58.628 -54.162  1.00  0.00     0.009 A 
ENDBRANCH   8  19
BRANCH   6  26
HETATM   26  N   UNL     1     -39.601  59.581 -50.661  1.00  0.00    -0.229 N 
HETATM   27  H   UNL     1     -38.616  59.355 -50.709  1.00  0.00     0.174 HD
HETATM   28  H   UNL     1     -39.892  60.054 -49.817  1.00  0.00     0.174 HD
ENDBRANCH   6  26
TORSDOF 4
ENDMDL
MODEL 3
REMARK VINA RESULT:      -7.9      3.192      6.602
REMARK  4 active torsions:
REMARK  status: ('A' for Active; 'I' for Inactive)
REMARK    1  A    between atoms: O_2  and  C_3 
REMARK    2  A    between atoms: C_6  and  C_7 
REMARK    3  A    between atoms: C_12  and  N_13 
REMARK    4  A    between atoms: C_15  and  C_16 
ROOT
HETATM    1  C   UNL     1     -43.585  54.711 -53.993  1.00  0.00     0.135 C 
HETATM    2  N   UNL     1     -43.808  55.973 -53.298  1.00  0.00    -0.214 N 
HETATM    3  C   UNL     1     -43.227  57.109 -53.738  1.00  0.00     0.736 A 
HETATM    4  N   UNL     1     -42.639  57.182 -54.973  1.00  0.00    -0.074 N 
HETATM    5  N   UNL     1     -42.003  58.355 -55.137  1.00  0.00     0.037 NA
HETATM    6  C   UNL     1     -42.342  58.982 -54.014  1.00  0.00     0.753 A 
HETATM    7  N   UNL     1     -43.063  58.249 -53.119  1.00  0.00     0.131 NA
HETATM    8  C   UNL     1     -42.523  56.049 -55.885  1.00  0.00     0.164 C 
HETATM    9  C   UNL     1     -43.536  54.951 -55.512  1.00  0.00     0.063 C 
HETATM   10  H   UNL     1     -43.999  55.908 -52.302  1.00  0.00     0.178 HD
ENDROOT
BRANCH   1  11
HETATM   11  C   UNL     1     -42.385  53.931 -53.471  1.00  0.00    -0.035 A 
HETATM   12  C   UNL     1     -41.947  53.980 -52.141  1.00  0.00     0.012 A 
HETATM   13  C   UNL     1     -40.840  53.233 -51.724  1.00  0.00     0.037 A 
HETATM   14  C   UNL     1     -40.145  52.420 -52.618  1.00  0.00     0.068 A 
HETATM   15  C   UNL     1     -40.562  52.367 -53.945  1.00  0.00     0.037 A 
HETATM   16  C   UNL     1     -41.670  53.114 -54.365  1.00  0.00     0.012 A 
BRANCH  14  17
HETATM   17  O   UNL     1     -39.091  51.740 -52.076  1.00  0.00    -0.356 OA
HETATM   18  C   UNL     1     -39.391  50.536 -51.380  1.00  0.00     0.210 C 
ENDBRANCH  14  17
ENDBRANCH   1  11
BRANCH   8  19
HETATM   19  C   UNL     1     -42.694  56.451 -57.345  1.00  0.00    -0.031 A 
HETATM   20  C   UNL     1     -43.503  55.674 -58.191  1.00  0.00     0.028 A 
HETATM   21  C   UNL     1     -43.690  56.045 -59.524  1.00  0.00     0.011 A 
HETATM   22 BR   UNL     1     -44.780  54.985 -60.647  1.00  0.00    -0.051 Br
HETATM   23  C   UNL     1     -43.083  57.191 -60.033  1.00  0.00     0.019 A 
HETATM   24  C   UNL     1     -42.280  57.971 -59.204  1.00  0.00     0.002 A 
HETATM   25  C   UNL     1     -42.089  57.606 -57.870  1.00  0.00     0.009 A 
ENDBRANCH   8  19
BRANCH   6  26
HETATM   26  N   UNL     1     -41.987  60.220 -53.683  1.00  0.00    -0.229 N 
HETATM   27  H   UNL     1     -42.333  60.570 -52.799  1.00  0.00     0.174 HD
HETATM   28  H   UNL     1     -41.956  60.899 -54.430  1.00  0.00     0.174 HD
ENDBRANCH   6  26
TORSDOF 4
ENDMDL
MODEL 4
REMARK VINA RESULT:      -7.5      2.454      4.061
REMARK  4 active torsions:
REMARK  status: ('A' for Active; 'I' for Inactive)
REMARK    1  A    between atoms: O_2  and  C_3 
REMARK    2  A    between atoms: C_6  and  C_7 
REMARK    3  A    between atoms: C_12  and  N_13 
REMARK    4  A    between atoms: C_15  and  C_16 
ROOT
HETATM    1  C   UNL     1     -42.792  56.099 -58.690  1.00  0.00     0.135 C 
HETATM    2  N   UNL     1     -42.143  57.389 -58.487  1.00  0.00    -0.214 N 
HETATM    3  C   UNL     1     -42.258  58.034 -57.308  1.00  0.00     0.736 A 
HETATM    4  N   UNL     1     -42.745  57.409 -56.192  1.00  0.00    -0.074 N 
HETATM    5  N   UNL     1     -42.904  58.280 -55.179  1.00  0.00     0.037 NA
HETATM    6  C   UNL     1     -42.389  59.383 -55.716  1.00  0.00     0.753 A 
HETATM    7  N   UNL     1     -42.010  59.286 -57.022  1.00  0.00     0.131 NA
HETATM    8  C   UNL     1     -43.242  56.037 -56.181  1.00  0.00     0.164 C 
HETATM    9  C   UNL     1     -42.710  55.262 -57.401  1.00  0.00     0.063 C 
HETATM   10  H   UNL     1     -42.015  57.961 -59.317  1.00  0.00     0.178 HD
ENDROOT
BRANCH   1  11
HETATM   11  C   UNL     1     -44.208  56.209 -59.243  1.00  0.00    -0.035 A 
HETATM   12  C   UNL     1     -45.082  57.260 -58.933  1.00  0.00     0.012 A 
HETATM   13  C   UNL     1     -46.369  57.305 -59.479  1.00  0.00     0.037 A 
HETATM   14  C   UNL     1     -46.815  56.310 -60.347  1.00  0.00     0.068 A 
HETATM   15  C   UNL     1     -45.963  55.254 -60.658  1.00  0.00     0.037 A 
HETATM   16  C   UNL     1     -44.674  55.206 -60.112  1.00  0.00     0.012 A 
BRANCH  14  17
HETATM   17  O   UNL     1     -48.087  56.483 -60.814  1.00  0.00    -0.356 OA
HETATM   18  C   UNL     1     -48.234  56.733 -62.206  1.00  0.00     0.210 C 
ENDBRANCH  14  17
ENDBRANCH   1  11
BRANCH   8  19
HETATM   19  C   UNL     1     -42.898  55.296 -54.895  1.00  0.00    -0.031 A 
HETATM   20  C   UNL     1     -41.907  54.300 -54.908  1.00  0.00     0.028 A 
HETATM   21  C   UNL     1     -41.563  53.633 -53.731  1.00  0.00     0.011 A 
HETATM   22 BR   UNL     1     -40.229  52.293 -53.771  1.00  0.00    -0.051 Br
HETATM   23  C   UNL     1     -42.191  53.947 -52.528  1.00  0.00     0.019 A 
HETATM   24  C   UNL     1     -43.173  54.934 -52.500  1.00  0.00     0.002 A 
HETATM   25  C   UNL     1     -43.522  55.606 -53.674  1.00  0.00     0.009 A 
ENDBRANCH   8  19
BRANCH   6  26
HETATM   26  N   UNL     1     -42.278  60.559 -55.106  1.00  0.00    -0.229 N 
HETATM   27  H   UNL     1     -42.530  61.376 -55.646  1.00  0.00     0.174 HD
HETATM   28  H   UNL     1     -41.484  60.678 -54.493  1.00  0.00     0.174 HD
ENDBRANCH   6  26
TORSDOF 4
ENDMDL
MODEL 5
REMARK VINA RESULT:      -7.5      1.733      2.273
REMARK  4 active torsions:
REMARK  status: ('A' for Active; 'I' for Inactive)
REMARK    1  A    between atoms: O_2  and  C_3 
REMARK    2  A    between atoms: C_6  and  C_7 
REMARK    3  A    between atoms: C_12  and  N_13 
REMARK    4  A    between atoms: C_15  and  C_16 
ROOT
HETATM    1  C   UNL     1     -42.163  57.357 -56.251  1.00  0.00     0.135 C 
HETATM    2  N   UNL     1     -42.719  58.200 -55.200  1.00  0.00    -0.214 N 
HETATM    3  C   UNL     1     -43.261  57.647 -54.095  1.00  0.00     0.736 A 
HETATM    4  N   UNL     1     -43.077  56.324 -53.790  1.00  0.00    -0.074 N 
HETATM    5  N   UNL     1     -43.823  55.964 -52.730  1.00  0.00     0.037 NA
HETATM    6  C   UNL     1     -44.340  57.138 -52.379  1.00  0.00     0.753 A 
HETATM    7  N   UNL     1     -44.048  58.185 -53.200  1.00  0.00     0.131 NA
HETATM    8  C   UNL     1     -42.354  55.388 -54.643  1.00  0.00     0.164 C 
HETATM    9  C   UNL     1     -41.444  56.147 -55.627  1.00  0.00     0.063 C 
HETATM   10  H   UNL     1     -43.090  59.099 -55.496  1.00  0.00     0.178 HD
ENDROOT
BRANCH   1  11
HETATM   11  C   UNL     1     -43.174  56.966 -57.321  1.00  0.00    -0.035 A 
HETATM   12  C   UNL     1     -44.323  57.716 -57.613  1.00  0.00     0.012 A 
HETATM   13  C   UNL     1     -45.210  57.304 -58.613  1.00  0.00     0.037 A 
HETATM   14  C   UNL     1     -44.976  56.142 -59.347  1.00  0.00     0.068 A 
HETATM   15  C   UNL     1     -43.845  55.382 -59.062  1.00  0.00     0.037 A 
HETATM   16  C   UNL     1     -42.955  55.791 -58.061  1.00  0.00     0.012 A 
BRANCH  14  17
HETATM   17  O   UNL     1     -45.917  55.864 -60.297  1.00  0.00    -0.356 OA
HETATM   18  C   UNL     1     -47.087  56.672 -60.300  1.00  0.00     0.210 C 
ENDBRANCH  14  17
ENDBRANCH   1  11
BRANCH   8  19
HETATM   19  C   UNL     1     -41.540  54.375 -53.847  1.00  0.00    -0.031 A 
HETATM   20  C   UNL     1     -41.176  54.662 -52.520  1.00  0.00     0.028 A 
HETATM   21  C   UNL     1     -40.454  53.731 -51.771  1.00  0.00     0.011 A 
HETATM   22 BR   UNL     1     -39.972  54.137 -49.988  1.00  0.00    -0.051 Br
HETATM   23  C   UNL     1     -40.088  52.506 -52.323  1.00  0.00     0.019 A 
HETATM   24  C   UNL     1     -40.444  52.208 -53.637  1.00  0.00     0.002 A 
HETATM   25  C   UNL     1     -41.167  53.134 -54.392  1.00  0.00     0.009 A 
ENDBRANCH   8  19
BRANCH   6  26
HETATM   26  N   UNL     1     -45.151  57.346 -51.345  1.00  0.00    -0.229 N 
HETATM   27  H   UNL     1     -44.713  57.595 -50.468  1.00  0.00     0.174 HD
HETATM   28  H   UNL     1     -45.951  56.734 -51.266  1.00  0.00     0.174 HD
ENDBRANCH   6  26
TORSDOF 4
ENDMDL
MODEL 6
REMARK VINA RESULT:      -7.2      3.374      6.504
REMARK  4 active torsions:
REMARK  status: ('A' for Active; 'I' for Inactive)
REMARK    1  A    between atoms: O_2  and  C_3 
REMARK    2  A    between atoms: C_6  and  C_7 
REMARK    3  A    between atoms: C_12  and  N_13 
REMARK    4  A    between atoms: C_15  and  C_16 
ROOT
HETATM    1  C   UNL     1     -43.569  55.227 -54.039  1.00  0.00     0.135 C 
HETATM    2  N   UNL     1     -43.954  56.074 -52.916  1.00  0.00    -0.214 N 
HETATM    3  C   UNL     1     -43.341  57.259 -52.712  1.00  0.00     0.736 A 
HETATM    4  N   UNL     1     -42.545  57.829 -53.670  1.00  0.00    -0.074 N 
HETATM    5  N   UNL     1     -41.929  58.927 -53.196  1.00  0.00     0.037 NA
HETATM    6  C   UNL     1     -42.484  59.023 -51.990  1.00  0.00     0.753 A 
HETATM    7  N   UNL     1     -43.328  58.011 -51.643  1.00  0.00     0.131 NA
HETATM    8  C   UNL     1     -42.232  57.198 -54.947  1.00  0.00     0.164 C 
HETATM    9  C   UNL     1     -43.258  56.097 -55.270  1.00  0.00     0.063 C 
HETATM   10  H   UNL     1     -44.317  55.595 -52.097  1.00  0.00     0.178 HD
ENDROOT
BRANCH   1  11
HETATM   11  C   UNL     1     -42.456  54.241 -53.706  1.00  0.00    -0.035 A 
HETATM   12  C   UNL     1     -41.745  53.518 -54.674  1.00  0.00     0.012 A 
HETATM   13  C   UNL     1     -40.730  52.632 -54.302  1.00  0.00     0.037 A 
HETATM   14  C   UNL     1     -40.395  52.445 -52.961  1.00  0.00     0.068 A 
HETATM   15  C   UNL     1     -41.098  53.149 -51.987  1.00  0.00     0.037 A 
HETATM   16  C   UNL     1     -42.116  54.037 -52.356  1.00  0.00     0.012 A 
BRANCH  14  17
HETATM   17  O   UNL     1     -39.379  51.559 -52.741  1.00  0.00    -0.356 OA
HETATM   18  C   UNL     1     -39.422  50.820 -51.527  1.00  0.00     0.210 C 
ENDBRANCH  14  17
ENDBRANCH   1  11
BRANCH   8  19
HETATM   19  C   UNL     1     -42.153  58.198 -56.094  1.00  0.00    -0.031 A 
HETATM   20  C   UNL     1     -42.148  57.737 -57.421  1.00  0.00     0.028 A 
HETATM   21  C   UNL     1     -42.103  58.644 -58.482  1.00  0.00     0.011 A 
HETATM   22 BR   UNL     1     -42.094  58.003 -60.261  1.00  0.00    -0.051 Br
HETATM   23  C   UNL     1     -42.068  60.015 -58.242  1.00  0.00     0.019 A 
HETATM   24  C   UNL     1     -42.075  60.486 -56.931  1.00  0.00     0.002 A 
HETATM   25  C   UNL     1     -42.119  59.585 -55.865  1.00  0.00     0.009 A 
ENDBRANCH   8  19
BRANCH   6  26
HETATM   26  N   UNL     1     -42.233  59.978 -51.099  1.00  0.00    -0.229 N 
HETATM   27  H   UNL     1     -41.272  60.278 -51.014  1.00  0.00     0.174 HD
HETATM   28  H   UNL     1     -42.747  59.934 -50.230  1.00  0.00     0.174 HD
ENDBRANCH   6  26
TORSDOF 4
ENDMDL
MODEL 7
REMARK VINA RESULT:      -7.1      3.642      5.860
REMARK  4 active torsions:
REMARK  status: ('A' for Active; 'I' for Inactive)
REMARK    1  A    between atoms: O_2  and  C_3 
REMARK    2  A    between atoms: C_6  and  C_7 
REMARK    3  A    between atoms: C_12  and  N_13 
REMARK    4  A    between atoms: C_15  and  C_16 
ROOT
HETATM    1  C   UNL     1     -44.716  57.226 -51.603  1.00  0.00     0.135 C 
HETATM    2  N   UNL     1     -44.904  57.155 -53.047  1.00  0.00    -0.214 N 
HETATM    3  C   UNL     1     -43.853  56.934 -53.863  1.00  0.00     0.736 A 
HETATM    4  N   UNL     1     -42.644  56.509 -53.378  1.00  0.00    -0.074 N 
HETATM    5  N   UNL     1     -41.712  56.496 -54.348  1.00  0.00     0.037 NA
HETATM    6  C   UNL     1     -42.450  56.813 -55.408  1.00  0.00     0.753 A 
HETATM    7  N   UNL     1     -43.754  57.117 -55.154  1.00  0.00     0.131 NA
HETATM    8  C   UNL     1     -42.358  56.325 -51.960  1.00  0.00     0.164 C 
HETATM    9  C   UNL     1     -43.667  56.191 -51.159  1.00  0.00     0.063 C 
HETATM   10  H   UNL     1     -45.677  57.696 -53.425  1.00  0.00     0.178 HD
ENDROOT
BRANCH   1  11
HETATM   11  C   UNL     1     -44.422  58.632 -51.094  1.00  0.00    -0.035 A 
HETATM   12  C   UNL     1     -43.178  59.263 -51.231  1.00  0.00     0.012 A 
HETATM   13  C   UNL     1     -42.975  60.559 -50.746  1.00  0.00     0.037 A 
HETATM   14  C   UNL     1     -44.004  61.259 -50.117  1.00  0.00     0.068 A 
HETATM   15  C   UNL     1     -45.243  60.643 -49.963  1.00  0.00     0.037 A 
HETATM   16  C   UNL     1     -45.449  59.345 -50.448  1.00  0.00     0.012 A 
BRANCH  14  17
HETATM   17  O   UNL     1     -43.672  62.517 -49.701  1.00  0.00    -0.356 OA
HETATM   18  C   UNL     1     -42.924  63.318 -50.607  1.00  0.00     0.210 C 
ENDBRANCH  14  17
ENDBRANCH   1  11
BRANCH   8  19
HETATM   19  C   UNL     1     -41.452  55.128 -51.693  1.00  0.00    -0.031 A 
HETATM   20  C   UNL     1     -41.249  54.170 -52.700  1.00  0.00     0.028 A 
HETATM   21  C   UNL     1     -40.401  53.084 -52.478  1.00  0.00     0.011 A 
HETATM   22 BR   UNL     1     -40.143  51.803 -53.845  1.00  0.00    -0.051 Br
HETATM   23  C   UNL     1     -39.740  52.937 -51.261  1.00  0.00     0.019 A 
HETATM   24  C   UNL     1     -39.931  53.881 -50.255  1.00  0.00     0.002 A 
HETATM   25  C   UNL     1     -40.778  54.970 -50.470  1.00  0.00     0.009 A 
ENDBRANCH   8  19
BRANCH   6  26
HETATM   26  N   UNL     1     -42.004  56.912 -56.657  1.00  0.00    -0.229 N 
HETATM   27  H   UNL     1     -41.071  56.565 -56.834  1.00  0.00     0.174 HD
HETATM   28  H   UNL     1     -42.254  57.750 -57.163  1.00  0.00     0.174 HD
ENDBRANCH   6  26
TORSDOF 4
ENDMDL
MODEL 8
REMARK VINA RESULT:      -6.9     15.344     18.022
REMARK  4 active torsions:
REMARK  status: ('A' for Active; 'I' for Inactive)
REMARK    1  A    between atoms: O_2  and  C_3 
REMARK    2  A    between atoms: C_6  and  C_7 
REMARK    3  A    between atoms: C_12  and  N_13 
REMARK    4  A    between atoms: C_15  and  C_16 
ROOT
HETATM    1  C   UNL     1     -35.020  38.138 -52.354  1.00  0.00     0.135 C 
HETATM    2  N   UNL     1     -36.424  38.146 -51.960  1.00  0.00    -0.214 N 
HETATM    3  C   UNL     1     -37.210  39.203 -52.253  1.00  0.00     0.736 A 
HETATM    4  N   UNL     1     -36.814  40.168 -53.141  1.00  0.00    -0.074 N 
HETATM    5  N   UNL     1     -37.688  41.190 -53.166  1.00  0.00     0.037 NA
HETATM    6  C   UNL     1     -38.638  40.726 -52.358  1.00  0.00     0.753 A 
HETATM    7  N   UNL     1     -38.375  39.532 -51.757  1.00  0.00     0.131 NA
HETATM    8  C   UNL     1     -35.508  40.187 -53.790  1.00  0.00     0.164 C 
HETATM    9  C   UNL     1     -34.861  38.791 -53.739  1.00  0.00     0.063 C 
HETATM   10  H   UNL     1     -36.659  37.612 -51.128  1.00  0.00     0.178 HD
ENDROOT
BRANCH   1  11
HETATM   11  C   UNL     1     -34.088  38.727 -51.303  1.00  0.00    -0.035 A 
HETATM   12  C   UNL     1     -34.322  38.643 -49.924  1.00  0.00     0.012 A 
HETATM   13  C   UNL     1     -33.422  39.201 -49.010  1.00  0.00     0.037 A 
HETATM   14  C   UNL     1     -32.269  39.851 -49.444  1.00  0.00     0.068 A 
HETATM   15  C   UNL     1     -32.026  39.952 -50.812  1.00  0.00     0.037 A 
HETATM   16  C   UNL     1     -32.925  39.395 -51.729  1.00  0.00     0.012 A 
BRANCH  14  17
HETATM   17  O   UNL     1     -31.474  40.340 -48.446  1.00  0.00    -0.356 OA
HETATM   18  C   UNL     1     -31.134  39.443 -47.397  1.00  0.00     0.210 C 
ENDBRANCH  14  17
ENDBRANCH   1  11
BRANCH   8  19
HETATM   19  C   UNL     1     -35.574  40.685 -55.229  1.00  0.00    -0.031 A 
HETATM   20  C   UNL     1     -36.321  39.971 -56.180  1.00  0.00     0.028 A 
HETATM   21  C   UNL     1     -36.412  40.431 -57.495  1.00  0.00     0.011 A 
HETATM   22 BR   UNL     1     -37.421  39.454 -58.761  1.00  0.00    -0.051 Br
HETATM   23  C   UNL     1     -35.769  41.604 -57.882  1.00  0.00     0.019 A 
HETATM   24  C   UNL     1     -35.026  42.323 -56.948  1.00  0.00     0.002 A 
HETATM   25  C   UNL     1     -34.931  41.869 -55.631  1.00  0.00     0.009 A 
ENDBRANCH   8  19
BRANCH   6  26
HETATM   26  N   UNL     1     -39.769  41.356 -52.056  1.00  0.00    -0.229 N 
HETATM   27  H   UNL     1     -40.448  41.450 -52.799  1.00  0.00     0.174 HD
HETATM   28  H   UNL     1     -39.694  42.153 -51.439  1.00  0.00     0.174 HD
ENDBRANCH   6  26
TORSDOF 4
ENDMDL
MODEL 9
REMARK VINA RESULT:      -6.9      3.183      4.700
REMARK  4 active torsions:
REMARK  status: ('A' for Active; 'I' for Inactive)
REMARK    1  A    between atoms: O_2  and  C_3 
REMARK    2  A    between atoms: C_6  and  C_7 
REMARK    3  A    between atoms: C_12  and  N_13 
REMARK    4  A    between atoms: C_15  and  C_16 
ROOT
HETATM    1  C   UNL     1     -42.855  56.433 -59.060  1.00  0.00     0.135 C 
HETATM    2  N   UNL     1     -42.115  57.673 -58.862  1.00  0.00    -0.214 N 
HETATM    3  C   UNL     1     -42.190  58.335 -57.688  1.00  0.00     0.736 A 
HETATM    4  N   UNL     1     -42.730  57.754 -56.570  1.00  0.00    -0.074 N 
HETATM    5  N   UNL     1     -42.831  58.642 -55.565  1.00  0.00     0.037 NA
HETATM    6  C   UNL     1     -42.234  59.701 -56.106  1.00  0.00     0.753 A 
HETATM    7  N   UNL     1     -41.854  59.567 -57.408  1.00  0.00     0.131 NA
HETATM    8  C   UNL     1     -43.324  56.422 -56.554  1.00  0.00     0.164 C 
HETATM    9  C   UNL     1     -42.842  55.602 -57.765  1.00  0.00     0.063 C 
HETATM   10  H   UNL     1     -41.941  58.229 -59.694  1.00  0.00     0.178 HD
ENDROOT
BRANCH   1  11
HETATM   11  C   UNL     1     -44.255  56.641 -59.623  1.00  0.00    -0.035 A 
HETATM   12  C   UNL     1     -45.120  55.591 -59.959  1.00  0.00     0.012 A 
HETATM   13  C   UNL     1     -46.397  55.850 -60.468  1.00  0.00     0.037 A 
HETATM   14  C   UNL     1     -46.845  57.157 -60.650  1.00  0.00     0.068 A 
HETATM   15  C   UNL     1     -45.995  58.212 -60.330  1.00  0.00     0.037 A 
HETATM   16  C   UNL     1     -44.716  57.956 -59.821  1.00  0.00     0.012 A 
BRANCH  14  17
HETATM   17  O   UNL     1     -48.114  57.266 -61.144  1.00  0.00    -0.356 OA
HETATM   18  C   UNL     1     -48.352  56.715 -62.433  1.00  0.00     0.210 C 
ENDBRANCH  14  17
ENDBRANCH   1  11
BRANCH   8  19
HETATM   19  C   UNL     1     -43.043  55.668 -55.260  1.00  0.00    -0.031 A 
HETATM   20  C   UNL     1     -43.470  56.205 -54.034  1.00  0.00     0.028 A 
HETATM   21  C   UNL     1     -43.243  55.511 -52.844  1.00  0.00     0.011 A 
HETATM   22 BR   UNL     1     -43.823  56.252 -51.204  1.00  0.00    -0.051 Br
HETATM   23  C   UNL     1     -42.595  54.278 -52.854  1.00  0.00     0.019 A 
HETATM   24  C   UNL     1     -42.169  53.734 -54.063  1.00  0.00     0.002 A 
HETATM   25  C   UNL     1     -42.393  54.422 -55.257  1.00  0.00     0.009 A 
ENDBRANCH   8  19
BRANCH   6  26
HETATM   26  N   UNL     1     -42.042  60.870 -55.504  1.00  0.00    -0.229 N 
HETATM   27  H   UNL     1     -41.217  61.389 -55.774  1.00  0.00     0.174 HD
HETATM   28  H   UNL     1     -42.276  60.919 -54.522  1.00  0.00     0.174 HD
ENDBRANCH   6  26
TORSDOF 4
ENDMDL
MODEL 10
REMARK VINA RESULT:      -6.8      4.969      8.409
REMARK  4 active torsions:
REMARK  status: ('A' for Active; 'I' for Inactive)
REMARK    1  A    between atoms: O_2  and  C_3 
REMARK    2  A    between atoms: C_6  and  C_7 
REMARK    3  A    between atoms: C_12  and  N_13 
REMARK    4  A    between atoms: C_15  and  C_16 
ROOT
HETATM    1  C   UNL     1     -42.417  57.535 -57.158  1.00  0.00     0.135 C 
HETATM    2  N   UNL     1     -42.224  56.916 -58.463  1.00  0.00    -0.214 N 
HETATM    3  C   UNL     1     -43.285  56.608 -59.238  1.00  0.00     0.736 A 
HETATM    4  N   UNL     1     -44.537  57.091 -58.965  1.00  0.00    -0.074 N 
HETATM    5  N   UNL     1     -45.456  56.540 -59.777  1.00  0.00     0.037 NA
HETATM    6  C   UNL     1     -44.678  55.824 -60.585  1.00  0.00     0.753 A 
HETATM    7  N   UNL     1     -43.351  55.814 -60.274  1.00  0.00     0.131 NA
HETATM    8  C   UNL     1     -44.855  57.910 -57.800  1.00  0.00     0.164 C 
HETATM    9  C   UNL     1     -43.577  58.545 -57.222  1.00  0.00     0.063 C 
HETATM   10  H   UNL     1     -41.393  56.340 -58.568  1.00  0.00     0.178 HD
ENDROOT
BRANCH   1  11
HETATM   11  C   UNL     1     -42.560  56.531 -56.021  1.00  0.00    -0.035 A 
HETATM   12  C   UNL     1     -42.487  55.142 -56.199  1.00  0.00     0.012 A 
HETATM   13  C   UNL     1     -42.621  54.273 -55.111  1.00  0.00     0.037 A 
HETATM   14  C   UNL     1     -42.828  54.763 -53.823  1.00  0.00     0.068 A 
HETATM   15  C   UNL     1     -42.913  56.140 -53.630  1.00  0.00     0.037 A 
HETATM   16  C   UNL     1     -42.779  57.012 -54.718  1.00  0.00     0.012 A 
BRANCH  14  17
HETATM   17  O   UNL     1     -42.931  53.806 -52.854  1.00  0.00    -0.356 OA
HETATM   18  C   UNL     1     -43.319  54.242 -51.557  1.00  0.00     0.210 C 
ENDBRANCH  14  17
ENDBRANCH   1  11
BRANCH   8  19
HETATM   19  C   UNL     1     -45.889  58.988 -58.104  1.00  0.00    -0.031 A 
HETATM   20  C   UNL     1     -45.500  60.153 -58.785  1.00  0.00     0.028 A 
HETATM   21  C   UNL     1     -46.442  61.137 -59.094  1.00  0.00     0.011 A 
HETATM   22 BR   UNL     1     -45.898  62.699 -60.009  1.00  0.00    -0.051 Br
HETATM   23  C   UNL     1     -47.778  60.976 -58.736  1.00  0.00     0.019 A 
HETATM   24  C   UNL     1     -48.177  59.824 -58.062  1.00  0.00     0.002 A 
HETATM   25  C   UNL     1     -47.241  58.836 -57.750  1.00  0.00     0.009 A 
ENDBRANCH   8  19
BRANCH   6  26
HETATM   26  N   UNL     1     -45.098  55.089 -61.610  1.00  0.00    -0.229 N 
HETATM   27  H   UNL     1     -46.004  55.322 -61.994  1.00  0.00     0.174 HD
HETATM   28  H   UNL     1     -44.887  54.101 -61.576  1.00  0.00     0.174 HD
ENDBRANCH   6  26
TORSDOF 4
ENDMDL
