MODEL 1
REMARK VINA RESULT:      -9.0      0.000      0.000
REMARK  5 active torsions:
REMARK  status: ('A' for Active; 'I' for Inactive)
REMARK    1  A    between atoms: C_8  and  C_9 
REMARK    2  A    between atoms: C_9  and  C_10 
REMARK       I    between atoms: C_10  and  N_11 
REMARK    3  A    between atoms: N_11  and  N_12 
REMARK       I    between atoms: N_12  and  C_13 
REMARK    4  A    between atoms: C_13  and  C_14 
REMARK    5  A    between atoms: C_16  and  C_17 
ROOT
HETATM    1  C   UNL     1     -42.364  57.488 -56.363  1.00  0.00     0.240 C 
HETATM    2  N   UNL     1     -42.016  56.160 -56.547  1.00  0.00    -0.267 N 
HETATM    3  O   UNL     1     -42.161  58.092 -55.311  1.00  0.00    -0.272 OA
HETATM    4  H   UNL     1     -42.459  55.596 -57.271  1.00  0.00     0.190 HD
ENDROOT
BRANCH   2   5
HETATM    5  N   UNL     1     -41.451  55.461 -55.481  1.00  0.00    -0.263 N 
HETATM    6  C   UNL     1     -42.099  54.339 -55.009  1.00  0.00     0.270 C 
HETATM    7  O   UNL     1     -43.195  53.964 -55.410  1.00  0.00    -0.266 OA
HETATM    8  H   UNL     1     -40.693  55.918 -54.976  1.00  0.00     0.190 HD
BRANCH   6   9
HETATM    9  C   UNL     1     -41.359  53.573 -53.980  1.00  0.00     0.034 A 
HETATM   10  C   UNL     1     -41.397  53.990 -52.641  1.00  0.00     0.029 A 
HETATM   11  C   UNL     1     -40.636  53.329 -51.671  1.00  0.00    -0.023 A 
HETATM   12  C   UNL     1     -39.859  52.226 -52.059  1.00  0.00     0.012 A 
HETATM   13  C   UNL     1     -39.821  51.814 -53.397  1.00  0.00     0.002 A 
HETATM   14  C   UNL     1     -40.558  52.497 -54.362  1.00  0.00     0.017 A 
BRANCH  11  15
HETATM   15  C   UNL     1     -40.642  53.810 -50.298  1.00  0.00    -0.002 A 
HETATM   16  C   UNL     1     -41.018  55.082 -49.914  1.00  0.00     0.153 A 
HETATM   17  O   UNL     1     -40.963  55.219 -48.564  1.00  0.00    -0.334 OA
HETATM   18  C   UNL     1     -40.556  54.026 -48.064  1.00  0.00     0.142 A 
HETATM   19  C   UNL     1     -40.348  53.125 -49.083  1.00  0.00     0.038 A 
ENDBRANCH  11  15
ENDBRANCH   6   9
ENDBRANCH   2   5
BRANCH   1  20
HETATM   20  C   UNL     1     -42.887  58.144 -57.623  1.00  0.00     0.145 C 
BRANCH  20  21
HETATM   21  C   UNL     1     -44.282  57.799 -58.035  1.00  0.00    -0.021 A 
HETATM   22  C   UNL     1     -44.756  56.960 -59.104  1.00  0.00    -0.001 A 
HETATM   23  C   UNL     1     -44.150  56.124 -60.067  1.00  0.00     0.014 A 
HETATM   24  C   UNL     1     -46.148  57.083 -59.141  1.00  0.00     0.042 A 
HETATM   25  C   UNL     1     -44.939  55.464 -61.019  1.00  0.00     0.001 A 
HETATM   26  C   UNL     1     -46.321  55.625 -61.032  1.00  0.00     0.002 A 
HETATM   27  C   UNL     1     -46.952  56.436 -60.089  1.00  0.00     0.030 A 
HETATM   28  N   UNL     1     -46.514  57.923 -58.119  1.00  0.00    -0.365 N 
HETATM   29  H   UNL     1     -47.466  58.190 -57.910  1.00  0.00     0.165 HD
HETATM   30  C   UNL     1     -45.406  58.363 -57.454  1.00  0.00     0.097 A 
ENDBRANCH  20  21
ENDBRANCH   1  20
TORSDOF 5
ENDMDL
MODEL 2
REMARK VINA RESULT:      -8.8      1.395      1.878
REMARK  5 active torsions:
REMARK  status: ('A' for Active; 'I' for Inactive)
REMARK    1  A    between atoms: C_8  and  C_9 
REMARK    2  A    between atoms: C_9  and  C_10 
REMARK       I    between atoms: C_10  and  N_11 
REMARK    3  A    between atoms: N_11  and  N_12 
REMARK       I    between atoms: N_12  and  C_13 
REMARK    4  A    between atoms: C_13  and  C_14 
REMARK    5  A    between atoms: C_16  and  C_17 
ROOT
HETATM    1  C   UNL     1     -44.492  57.682 -54.629  1.00  0.00     0.240 C 
HETATM    2  N   UNL     1     -44.856  56.359 -54.445  1.00  0.00    -0.267 N 
HETATM    3  O   UNL     1     -43.414  58.138 -54.248  1.00  0.00    -0.272 OA
HETATM    4  H   UNL     1     -45.834  56.075 -54.469  1.00  0.00     0.190 HD
ENDROOT
BRANCH   2   5
HETATM    5  N   UNL     1     -43.985  55.513 -53.759  1.00  0.00    -0.263 N 
HETATM    6  C   UNL     1     -43.145  54.698 -54.487  1.00  0.00     0.270 C 
HETATM    7  O   UNL     1     -43.175  54.604 -55.710  1.00  0.00    -0.266 OA
HETATM    8  H   UNL     1     -44.146  55.394 -52.760  1.00  0.00     0.190 HD
BRANCH   6   9
HETATM    9  C   UNL     1     -42.153  53.944 -53.687  1.00  0.00     0.034 A 
HETATM   10  C   UNL     1     -42.024  54.204 -52.315  1.00  0.00     0.029 A 
HETATM   11  C   UNL     1     -41.034  53.562 -51.562  1.00  0.00    -0.023 A 
HETATM   12  C   UNL     1     -40.196  52.636 -52.201  1.00  0.00     0.012 A 
HETATM   13  C   UNL     1     -40.325  52.380 -53.571  1.00  0.00     0.002 A 
HETATM   14  C   UNL     1     -41.293  53.046 -54.320  1.00  0.00     0.017 A 
BRANCH  11  15
HETATM   15  C   UNL     1     -40.876  53.886 -50.152  1.00  0.00    -0.002 A 
HETATM   16  C   UNL     1     -41.346  55.040 -49.556  1.00  0.00     0.153 A 
HETATM   17  O   UNL     1     -41.087  55.038 -48.222  1.00  0.00    -0.334 OA
HETATM   18  C   UNL     1     -40.453  53.871 -47.947  1.00  0.00     0.142 A 
HETATM   19  C   UNL     1     -40.301  53.126 -49.093  1.00  0.00     0.038 A 
ENDBRANCH  11  15
ENDBRANCH   6   9
ENDBRANCH   2   5
BRANCH   1  20
HETATM   20  C   UNL     1     -45.488  58.462 -55.460  1.00  0.00     0.145 C 
BRANCH  20  21
HETATM   21  C   UNL     1     -45.660  58.039 -56.884  1.00  0.00    -0.021 A 
HETATM   22  C   UNL     1     -44.679  57.663 -57.867  1.00  0.00    -0.001 A 
HETATM   23  C   UNL     1     -43.280  57.475 -57.867  1.00  0.00     0.014 A 
HETATM   24  C   UNL     1     -45.353  57.489 -59.079  1.00  0.00     0.042 A 
HETATM   25  C   UNL     1     -42.617  57.139 -59.055  1.00  0.00     0.001 A 
HETATM   26  C   UNL     1     -43.322  56.989 -60.245  1.00  0.00     0.002 A 
HETATM   27  C   UNL     1     -44.707  57.158 -60.277  1.00  0.00     0.030 A 
HETATM   28  N   UNL     1     -46.688  57.705 -58.842  1.00  0.00    -0.365 N 
HETATM   29  H   UNL     1     -47.411  57.645 -59.545  1.00  0.00     0.165 HD
HETATM   30  C   UNL     1     -46.884  58.042 -57.533  1.00  0.00     0.097 A 
ENDBRANCH  20  21
ENDBRANCH   1  20
TORSDOF 5
ENDMDL
MODEL 3
REMARK VINA RESULT:      -8.8      2.573      4.073
REMARK  5 active torsions:
REMARK  status: ('A' for Active; 'I' for Inactive)
REMARK    1  A    between atoms: C_8  and  C_9 
REMARK    2  A    between atoms: C_9  and  C_10 
REMARK       I    between atoms: C_10  and  N_11 
REMARK    3  A    between atoms: N_11  and  N_12 
REMARK       I    between atoms: N_12  and  C_13 
REMARK    4  A    between atoms: C_13  and  C_14 
REMARK    5  A    between atoms: C_16  and  C_17 
ROOT
HETATM    1  C   UNL     1     -41.735  58.875 -54.379  1.00  0.00     0.240 C 
HETATM    2  N   UNL     1     -42.226  57.590 -54.221  1.00  0.00    -0.267 N 
HETATM    3  O   UNL     1     -40.644  59.232 -53.937  1.00  0.00    -0.272 OA
HETATM    4  H   UNL     1     -43.224  57.395 -54.300  1.00  0.00     0.190 HD
ENDROOT
BRANCH   2   5
HETATM    5  N   UNL     1     -41.475  56.669 -53.492  1.00  0.00    -0.263 N 
HETATM    6  C   UNL     1     -42.137  55.745 -52.713  1.00  0.00     0.270 C 
HETATM    7  O   UNL     1     -43.353  55.736 -52.547  1.00  0.00    -0.266 OA
HETATM    8  H   UNL     1     -40.474  56.844 -53.416  1.00  0.00     0.190 HD
BRANCH   6   9
HETATM    9  C   UNL     1     -41.275  54.713 -52.093  1.00  0.00     0.034 A 
HETATM   10  C   UNL     1     -40.954  53.552 -52.810  1.00  0.00     0.029 A 
HETATM   11  C   UNL     1     -40.212  52.529 -52.209  1.00  0.00    -0.023 A 
HETATM   12  C   UNL     1     -39.773  52.702 -50.888  1.00  0.00     0.012 A 
HETATM   13  C   UNL     1     -40.097  53.862 -50.172  1.00  0.00     0.002 A 
HETATM   14  C   UNL     1     -40.862  54.862 -50.768  1.00  0.00     0.017 A 
BRANCH  11  15
HETATM   15  C   UNL     1     -39.938  51.306 -52.948  1.00  0.00    -0.002 A 
HETATM   16  C   UNL     1     -39.578  50.105 -52.371  1.00  0.00     0.153 A 
HETATM   17  O   UNL     1     -39.433  49.137 -53.313  1.00  0.00    -0.334 OA
HETATM   18  C   UNL     1     -39.709  49.710 -54.511  1.00  0.00     0.142 A 
HETATM   19  C   UNL     1     -40.028  51.037 -54.345  1.00  0.00     0.038 A 
ENDBRANCH  11  15
ENDBRANCH   6   9
ENDBRANCH   2   5
BRANCH   1  20
HETATM   20  C   UNL     1     -42.611  59.741 -55.259  1.00  0.00     0.145 C 
BRANCH  20  21
HETATM   21  C   UNL     1     -42.366  59.673 -56.732  1.00  0.00    -0.021 A 
HETATM   22  C   UNL     1     -42.495  58.570 -57.647  1.00  0.00    -0.001 A 
HETATM   23  C   UNL     1     -42.947  57.236 -57.552  1.00  0.00     0.014 A 
HETATM   24  C   UNL     1     -42.015  59.001 -58.887  1.00  0.00     0.042 A 
HETATM   25  C   UNL     1     -42.893  56.395 -58.672  1.00  0.00     0.001 A 
HETATM   26  C   UNL     1     -42.393  56.858 -59.885  1.00  0.00     0.002 A 
HETATM   27  C   UNL     1     -41.948  58.174 -60.015  1.00  0.00     0.030 A 
HETATM   28  N   UNL     1     -41.648  60.318 -58.751  1.00  0.00    -0.365 N 
HETATM   29  H   UNL     1     -41.265  60.885 -59.494  1.00  0.00     0.165 HD
HETATM   30  C   UNL     1     -41.847  60.729 -57.464  1.00  0.00     0.097 A 
ENDBRANCH  20  21
ENDBRANCH   1  20
TORSDOF 5
ENDMDL
MODEL 4
REMARK VINA RESULT:      -8.4      5.616      8.251
REMARK  5 active torsions:
REMARK  status: ('A' for Active; 'I' for Inactive)
REMARK    1  A    between atoms: C_8  and  C_9 
REMARK    2  A    between atoms: C_9  and  C_10 
REMARK       I    between atoms: C_10  and  N_11 
REMARK    3  A    between atoms: N_11  and  N_12 
REMARK       I    between atoms: N_12  and  C_13 
REMARK    4  A    between atoms: C_13  and  C_14 
REMARK    5  A    between atoms: C_16  and  C_17 
ROOT
HETATM    1  C   UNL     1     -44.596  58.721 -51.444  1.00  0.00     0.240 C 
HETATM    2  N   UNL     1     -43.594  57.924 -50.918  1.00  0.00    -0.267 N 
HETATM    3  O   UNL     1     -44.792  58.836 -52.653  1.00  0.00    -0.272 OA
HETATM    4  H   UNL     1     -43.241  58.077 -49.973  1.00  0.00     0.190 HD
ENDROOT
BRANCH   2   5
HETATM    5  N   UNL     1     -42.738  57.256 -51.793  1.00  0.00    -0.263 N 
HETATM    6  C   UNL     1     -42.672  55.880 -51.731  1.00  0.00     0.270 C 
HETATM    7  O   UNL     1     -43.256  55.205 -50.890  1.00  0.00    -0.266 OA
HETATM    8  H   UNL     1     -42.060  57.822 -52.300  1.00  0.00     0.190 HD
BRANCH   6   9
HETATM    9  C   UNL     1     -41.857  55.243 -52.790  1.00  0.00     0.034 A 
HETATM   10  C   UNL     1     -41.452  53.908 -52.647  1.00  0.00     0.029 A 
HETATM   11  C   UNL     1     -40.610  53.316 -53.596  1.00  0.00    -0.023 A 
HETATM   12  C   UNL     1     -40.206  54.076 -54.704  1.00  0.00     0.012 A 
HETATM   13  C   UNL     1     -40.609  55.410 -54.843  1.00  0.00     0.002 A 
HETATM   14  C   UNL     1     -41.422  56.000 -53.878  1.00  0.00     0.017 A 
BRANCH  11  15
HETATM   15  C   UNL     1     -40.153  51.949 -53.402  1.00  0.00    -0.002 A 
HETATM   16  C   UNL     1     -39.649  51.451 -52.217  1.00  0.00     0.153 A 
HETATM   17  O   UNL     1     -39.350  50.131 -52.332  1.00  0.00    -0.334 OA
HETATM   18  C   UNL     1     -39.669  49.765 -53.598  1.00  0.00     0.142 A 
HETATM   19  C   UNL     1     -40.169  50.839 -54.296  1.00  0.00     0.038 A 
ENDBRANCH  11  15
ENDBRANCH   6   9
ENDBRANCH   2   5
BRANCH   1  20
HETATM   20  C   UNL     1     -45.499  59.316 -50.385  1.00  0.00     0.145 C 
BRANCH  20  21
HETATM   21  C   UNL     1     -45.107  60.650 -49.835  1.00  0.00    -0.021 A 
HETATM   22  C   UNL     1     -45.227  61.178 -48.502  1.00  0.00    -0.001 A 
HETATM   23  C   UNL     1     -45.648  60.668 -47.255  1.00  0.00     0.014 A 
HETATM   24  C   UNL     1     -44.837  62.520 -48.552  1.00  0.00     0.042 A 
HETATM   25  C   UNL     1     -45.678  61.502 -46.129  1.00  0.00     0.001 A 
HETATM   26  C   UNL     1     -45.297  62.837 -46.223  1.00  0.00     0.002 A 
HETATM   27  C   UNL     1     -44.865  63.370 -47.438  1.00  0.00     0.030 A 
HETATM   28  N   UNL     1     -44.458  62.791 -49.843  1.00  0.00    -0.365 N 
HETATM   29  H   UNL     1     -44.129  63.690 -50.166  1.00  0.00     0.165 HD
HETATM   30  C   UNL     1     -44.621  61.682 -50.622  1.00  0.00     0.097 A 
ENDBRANCH  20  21
ENDBRANCH   1  20
TORSDOF 5
ENDMDL
MODEL 5
REMARK VINA RESULT:      -8.4      3.096      9.361
REMARK  5 active torsions:
REMARK  status: ('A' for Active; 'I' for Inactive)
REMARK    1  A    between atoms: C_8  and  C_9 
REMARK    2  A    between atoms: C_9  and  C_10 
REMARK       I    between atoms: C_10  and  N_11 
REMARK    3  A    between atoms: N_11  and  N_12 
REMARK       I    between atoms: N_12  and  C_13 
REMARK    4  A    between atoms: C_13  and  C_14 
REMARK    5  A    between atoms: C_16  and  C_17 
ROOT
HETATM    1  C   UNL     1     -42.981  55.487 -55.912  1.00  0.00     0.240 C 
HETATM    2  N   UNL     1     -42.255  55.651 -57.079  1.00  0.00    -0.267 N 
HETATM    3  O   UNL     1     -43.752  56.342 -55.479  1.00  0.00    -0.272 OA
HETATM    4  H   UNL     1     -41.412  55.106 -57.256  1.00  0.00     0.190 HD
ENDROOT
BRANCH   2   5
HETATM    5  N   UNL     1     -42.366  56.854 -57.775  1.00  0.00    -0.263 N 
HETATM    6  C   UNL     1     -42.733  56.818 -59.103  1.00  0.00     0.270 C 
HETATM    7  O   UNL     1     -42.884  55.782 -59.743  1.00  0.00    -0.266 OA
HETATM    8  H   UNL     1     -41.984  57.686 -57.327  1.00  0.00     0.190 HD
BRANCH   6   9
HETATM    9  C   UNL     1     -42.974  58.140 -59.725  1.00  0.00     0.034 A 
HETATM   10  C   UNL     1     -42.037  59.170 -59.552  1.00  0.00     0.029 A 
HETATM   11  C   UNL     1     -42.289  60.450 -60.060  1.00  0.00    -0.023 A 
HETATM   12  C   UNL     1     -43.480  60.671 -60.768  1.00  0.00     0.012 A 
HETATM   13  C   UNL     1     -44.414  59.642 -60.937  1.00  0.00     0.002 A 
HETATM   14  C   UNL     1     -44.170  58.379 -60.402  1.00  0.00     0.017 A 
BRANCH  11  15
HETATM   15  C   UNL     1     -41.334  61.521 -59.822  1.00  0.00    -0.002 A 
HETATM   16  C   UNL     1     -40.819  61.852 -58.584  1.00  0.00     0.153 A 
HETATM   17  O   UNL     1     -39.918  62.863 -58.686  1.00  0.00    -0.334 OA
HETATM   18  C   UNL     1     -39.840  63.188 -60.001  1.00  0.00     0.142 A 
HETATM   19  C   UNL     1     -40.684  62.394 -60.742  1.00  0.00     0.038 A 
ENDBRANCH  11  15
ENDBRANCH   6   9
ENDBRANCH   2   5
BRANCH   1  20
HETATM   20  C   UNL     1     -42.829  54.107 -55.308  1.00  0.00     0.145 C 
BRANCH  20  21
HETATM   21  C   UNL     1     -42.004  53.999 -54.066  1.00  0.00    -0.021 A 
HETATM   22  C   UNL     1     -41.078  52.979 -53.651  1.00  0.00    -0.001 A 
HETATM   23  C   UNL     1     -40.552  51.805 -54.231  1.00  0.00     0.014 A 
HETATM   24  C   UNL     1     -40.678  53.289 -52.347  1.00  0.00     0.042 A 
HETATM   25  C   UNL     1     -39.673  50.993 -53.501  1.00  0.00     0.001 A 
HETATM   26  C   UNL     1     -39.311  51.329 -52.200  1.00  0.00     0.002 A 
HETATM   27  C   UNL     1     -39.805  52.487 -51.600  1.00  0.00     0.030 A 
HETATM   28  N   UNL     1     -41.295  54.464 -51.996  1.00  0.00    -0.365 N 
HETATM   29  H   UNL     1     -41.184  54.924 -51.103  1.00  0.00     0.165 HD
HETATM   30  C   UNL     1     -42.096  54.896 -53.014  1.00  0.00     0.097 A 
ENDBRANCH  20  21
ENDBRANCH   1  20
TORSDOF 5
ENDMDL
MODEL 6
REMARK VINA RESULT:      -8.3      2.515      8.825
REMARK  5 active torsions:
REMARK  status: ('A' for Active; 'I' for Inactive)
REMARK    1  A    between atoms: C_8  and  C_9 
REMARK    2  A    between atoms: C_9  and  C_10 
REMARK       I    between atoms: C_10  and  N_11 
REMARK    3  A    between atoms: N_11  and  N_12 
REMARK       I    between atoms: N_12  and  C_13 
REMARK    4  A    between atoms: C_13  and  C_14 
REMARK    5  A    between atoms: C_16  and  C_17 
ROOT
HETATM    1  C   UNL     1     -43.046  55.978 -53.311  1.00  0.00     0.240 C 
HETATM    2  N   UNL     1     -43.771  55.437 -54.359  1.00  0.00    -0.267 N 
HETATM    3  O   UNL     1     -42.403  57.022 -53.412  1.00  0.00    -0.272 OA
HETATM    4  H   UNL     1     -44.025  54.450 -54.368  1.00  0.00     0.190 HD
ENDROOT
BRANCH   2   5
HETATM    5  N   UNL     1     -43.738  56.076 -55.598  1.00  0.00    -0.263 N 
HETATM    6  C   UNL     1     -42.837  55.637 -56.544  1.00  0.00     0.270 C 
HETATM    7  O   UNL     1     -41.993  54.772 -56.334  1.00  0.00    -0.266 OA
HETATM    8  H   UNL     1     -44.243  56.957 -55.679  1.00  0.00     0.190 HD
BRANCH   6   9
HETATM    9  C   UNL     1     -42.969  56.267 -57.877  1.00  0.00     0.034 A 
HETATM   10  C   UNL     1     -42.434  57.543 -58.100  1.00  0.00     0.029 A 
HETATM   11  C   UNL     1     -42.624  58.188 -59.328  1.00  0.00    -0.023 A 
HETATM   12  C   UNL     1     -43.334  57.520 -60.336  1.00  0.00     0.012 A 
HETATM   13  C   UNL     1     -43.870  56.246 -60.111  1.00  0.00     0.002 A 
HETATM   14  C   UNL     1     -43.702  55.624 -58.875  1.00  0.00     0.017 A 
BRANCH  11  15
HETATM   15  C   UNL     1     -42.112  59.536 -59.521  1.00  0.00    -0.002 A 
HETATM   16  C   UNL     1     -42.002  60.164 -60.747  1.00  0.00     0.153 A 
HETATM   17  O   UNL     1     -41.534  61.431 -60.603  1.00  0.00    -0.334 OA
HETATM   18  C   UNL     1     -41.346  61.632 -59.275  1.00  0.00     0.142 A 
HETATM   19  C   UNL     1     -41.688  60.504 -58.566  1.00  0.00     0.038 A 
ENDBRANCH  11  15
ENDBRANCH   6   9
ENDBRANCH   2   5
BRANCH   1  20
HETATM   20  C   UNL     1     -43.239  55.232 -52.008  1.00  0.00     0.145 C 
BRANCH  20  21
HETATM   21  C   UNL     1     -42.103  54.379 -51.542  1.00  0.00    -0.021 A 
HETATM   22  C   UNL     1     -41.281  53.448 -52.269  1.00  0.00    -0.001 A 
HETATM   23  C   UNL     1     -41.165  53.054 -53.619  1.00  0.00     0.014 A 
HETATM   24  C   UNL     1     -40.453  52.813 -51.338  1.00  0.00     0.042 A 
HETATM   25  C   UNL     1     -40.254  52.052 -53.982  1.00  0.00     0.001 A 
HETATM   26  C   UNL     1     -39.458  51.433 -53.023  1.00  0.00     0.002 A 
HETATM   27  C   UNL     1     -39.541  51.807 -51.681  1.00  0.00     0.030 A 
HETATM   28  N   UNL     1     -40.724  53.358 -50.107  1.00  0.00    -0.365 N 
HETATM   29  H   UNL     1     -40.269  53.085 -49.247  1.00  0.00     0.165 HD
HETATM   30  C   UNL     1     -41.715  54.292 -50.215  1.00  0.00     0.097 A 
ENDBRANCH  20  21
ENDBRANCH   1  20
TORSDOF 5
ENDMDL
MODEL 7
REMARK VINA RESULT:      -8.3      2.460      9.228
REMARK  5 active torsions:
REMARK  status: ('A' for Active; 'I' for Inactive)
REMARK    1  A    between atoms: C_8  and  C_9 
REMARK    2  A    between atoms: C_9  and  C_10 
REMARK       I    between atoms: C_10  and  N_11 
REMARK    3  A    between atoms: N_11  and  N_12 
REMARK       I    between atoms: N_12  and  C_13 
REMARK    4  A    between atoms: C_13  and  C_14 
REMARK    5  A    between atoms: C_16  and  C_17 
ROOT
HETATM    1  C   UNL     1     -43.220  55.922 -53.192  1.00  0.00     0.240 C 
HETATM    2  N   UNL     1     -43.945  55.508 -54.296  1.00  0.00    -0.267 N 
HETATM    3  O   UNL     1     -42.643  57.008 -53.140  1.00  0.00    -0.272 OA
HETATM    4  H   UNL     1     -44.140  54.521 -54.457  1.00  0.00     0.190 HD
ENDROOT
BRANCH   2   5
HETATM    5  N   UNL     1     -43.991  56.335 -55.417  1.00  0.00    -0.263 N 
HETATM    6  C   UNL     1     -43.145  56.066 -56.472  1.00  0.00     0.270 C 
HETATM    7  O   UNL     1     -42.285  55.192 -56.452  1.00  0.00    -0.266 OA
HETATM    8  H   UNL     1     -44.505  57.210 -55.327  1.00  0.00     0.190 HD
BRANCH   6   9
HETATM    9  C   UNL     1     -43.362  56.897 -57.678  1.00  0.00     0.034 A 
HETATM   10  C   UNL     1     -44.584  56.824 -58.363  1.00  0.00     0.029 A 
HETATM   11  C   UNL     1     -44.775  57.537 -59.552  1.00  0.00    -0.023 A 
HETATM   12  C   UNL     1     -43.731  58.346 -60.027  1.00  0.00     0.012 A 
HETATM   13  C   UNL     1     -42.511  58.415 -59.343  1.00  0.00     0.002 A 
HETATM   14  C   UNL     1     -42.319  57.678 -58.176  1.00  0.00     0.017 A 
BRANCH  11  15
HETATM   15  C   UNL     1     -46.027  57.404 -60.280  1.00  0.00    -0.002 A 
HETATM   16  C   UNL     1     -46.824  58.463 -60.668  1.00  0.00     0.153 A 
HETATM   17  O   UNL     1     -47.903  58.028 -61.370  1.00  0.00    -0.334 OA
HETATM   18  C   UNL     1     -47.804  56.677 -61.446  1.00  0.00     0.142 A 
HETATM   19  C   UNL     1     -46.671  56.243 -60.798  1.00  0.00     0.038 A 
ENDBRANCH  11  15
ENDBRANCH   6   9
ENDBRANCH   2   5
BRANCH   1  20
HETATM   20  C   UNL     1     -43.325  54.968 -52.021  1.00  0.00     0.145 C 
BRANCH  20  21
HETATM   21  C   UNL     1     -42.094  54.200 -51.662  1.00  0.00    -0.021 A 
HETATM   22  C   UNL     1     -41.267  53.340 -52.466  1.00  0.00    -0.001 A 
HETATM   23  C   UNL     1     -41.233  52.967 -53.827  1.00  0.00     0.014 A 
HETATM   24  C   UNL     1     -40.320  52.761 -51.615  1.00  0.00     0.042 A 
HETATM   25  C   UNL     1     -40.283  52.040 -54.278  1.00  0.00     0.001 A 
HETATM   26  C   UNL     1     -39.367  51.475 -53.396  1.00  0.00     0.002 A 
HETATM   27  C   UNL     1     -39.367  51.830 -52.046  1.00  0.00     0.030 A 
HETATM   28  N   UNL     1     -40.529  53.274 -50.359  1.00  0.00    -0.365 N 
HETATM   29  H   UNL     1     -39.985  53.029 -49.543  1.00  0.00     0.165 HD
HETATM   30  C   UNL     1     -41.592  54.131 -50.372  1.00  0.00     0.097 A 
ENDBRANCH  20  21
ENDBRANCH   1  20
TORSDOF 5
ENDMDL
MODEL 8
REMARK VINA RESULT:      -8.2      2.138      3.165
REMARK  5 active torsions:
REMARK  status: ('A' for Active; 'I' for Inactive)
REMARK    1  A    between atoms: C_8  and  C_9 
REMARK    2  A    between atoms: C_9  and  C_10 
REMARK       I    between atoms: C_10  and  N_11 
REMARK    3  A    between atoms: N_11  and  N_12 
REMARK       I    between atoms: N_12  and  C_13 
REMARK    4  A    between atoms: C_13  and  C_14 
REMARK    5  A    between atoms: C_16  and  C_17 
ROOT
HETATM    1  C   UNL     1     -43.955  58.293 -55.627  1.00  0.00     0.240 C 
HETATM    2  N   UNL     1     -44.363  57.033 -55.225  1.00  0.00    -0.267 N 
HETATM    3  O   UNL     1     -42.904  58.808 -55.246  1.00  0.00    -0.272 OA
HETATM    4  H   UNL     1     -45.342  56.754 -55.280  1.00  0.00     0.190 HD
ENDROOT
BRANCH   2   5
HETATM    5  N   UNL     1     -43.574  56.331 -54.314  1.00  0.00    -0.263 N 
HETATM    6  C   UNL     1     -42.915  55.199 -54.745  1.00  0.00     0.270 C 
HETATM    7  O   UNL     1     -43.048  54.715 -55.864  1.00  0.00    -0.266 OA
HETATM    8  H   UNL     1     -43.676  56.572 -53.330  1.00  0.00     0.190 HD
BRANCH   6   9
HETATM    9  C   UNL     1     -41.985  54.601 -53.761  1.00  0.00     0.034 A 
HETATM   10  C   UNL     1     -41.474  53.313 -53.980  1.00  0.00     0.029 A 
HETATM   11  C   UNL     1     -40.662  52.699 -53.019  1.00  0.00    -0.023 A 
HETATM   12  C   UNL     1     -40.348  53.409 -51.850  1.00  0.00     0.012 A 
HETATM   13  C   UNL     1     -40.861  54.693 -51.633  1.00  0.00     0.002 A 
HETATM   14  C   UNL     1     -41.693  55.285 -52.580  1.00  0.00     0.017 A 
BRANCH  11  15
HETATM   15  C   UNL     1     -40.189  51.341 -53.236  1.00  0.00    -0.002 A 
HETATM   16  C   UNL     1     -40.153  50.710 -54.464  1.00  0.00     0.153 A 
HETATM   17  O   UNL     1     -39.619  49.465 -54.356  1.00  0.00    -0.334 OA
HETATM   18  C   UNL     1     -39.297  49.288 -53.050  1.00  0.00     0.142 A 
HETATM   19  C   UNL     1     -39.622  50.408 -52.320  1.00  0.00     0.038 A 
ENDBRANCH  11  15
ENDBRANCH   6   9
ENDBRANCH   2   5
BRANCH   1  20
HETATM   20  C   UNL     1     -44.858  58.902 -56.677  1.00  0.00     0.145 C 
BRANCH  20  21
HETATM   21  C   UNL     1     -45.457  57.968 -57.679  1.00  0.00    -0.021 A 
HETATM   22  C   UNL     1     -44.824  57.090 -58.627  1.00  0.00    -0.001 A 
HETATM   23  C   UNL     1     -43.493  56.721 -58.918  1.00  0.00     0.014 A 
HETATM   24  C   UNL     1     -45.835  56.537 -59.419  1.00  0.00     0.042 A 
HETATM   25  C   UNL     1     -43.224  55.841 -59.976  1.00  0.00     0.001 A 
HETATM   26  C   UNL     1     -44.257  55.323 -60.751  1.00  0.00     0.002 A 
HETATM   27  C   UNL     1     -45.585  55.660 -60.483  1.00  0.00     0.030 A 
HETATM   28  N   UNL     1     -47.033  57.019 -58.952  1.00  0.00    -0.365 N 
HETATM   29  H   UNL     1     -47.935  56.782 -59.340  1.00  0.00     0.165 HD
HETATM   30  C   UNL     1     -46.820  57.881 -57.915  1.00  0.00     0.097 A 
ENDBRANCH  20  21
ENDBRANCH   1  20
TORSDOF 5
ENDMDL
MODEL 9
REMARK VINA RESULT:      -8.1      2.060      8.876
REMARK  5 active torsions:
REMARK  status: ('A' for Active; 'I' for Inactive)
REMARK    1  A    between atoms: C_8  and  C_9 
REMARK    2  A    between atoms: C_9  and  C_10 
REMARK       I    between atoms: C_10  and  N_11 
REMARK    3  A    between atoms: N_11  and  N_12 
REMARK       I    between atoms: N_12  and  C_13 
REMARK    4  A    between atoms: C_13  and  C_14 
REMARK    5  A    between atoms: C_16  and  C_17 
ROOT
HETATM    1  C   UNL     1     -42.548  56.108 -52.752  1.00  0.00     0.240 C 
HETATM    2  N   UNL     1     -41.821  56.979 -53.546  1.00  0.00    -0.267 N 
HETATM    3  O   UNL     1     -43.533  55.496 -53.161  1.00  0.00    -0.272 OA
HETATM    4  H   UNL     1     -41.230  57.699 -53.132  1.00  0.00     0.190 HD
ENDROOT
BRANCH   2   5
HETATM    5  N   UNL     1     -42.247  57.210 -54.853  1.00  0.00    -0.263 N 
HETATM    6  C   UNL     1     -41.984  58.436 -55.428  1.00  0.00     0.270 C 
HETATM    7  O   UNL     1     -41.473  59.376 -54.828  1.00  0.00    -0.266 OA
HETATM    8  H   UNL     1     -42.900  56.538 -55.253  1.00  0.00     0.190 HD
BRANCH   6   9
HETATM    9  C   UNL     1     -42.336  58.545 -56.862  1.00  0.00     0.034 A 
HETATM   10  C   UNL     1     -42.985  57.480 -57.502  1.00  0.00     0.029 A 
HETATM   11  C   UNL     1     -43.248  57.532 -58.876  1.00  0.00    -0.023 A 
HETATM   12  C   UNL     1     -42.874  58.681 -59.590  1.00  0.00     0.012 A 
HETATM   13  C   UNL     1     -42.223  59.742 -58.949  1.00  0.00     0.002 A 
HETATM   14  C   UNL     1     -41.939  59.669 -57.587  1.00  0.00     0.017 A 
BRANCH  11  15
HETATM   15  C   UNL     1     -43.870  56.395 -59.535  1.00  0.00    -0.002 A 
HETATM   16  C   UNL     1     -43.798  55.091 -59.084  1.00  0.00     0.153 A 
HETATM   17  O   UNL     1     -44.516  54.260 -59.884  1.00  0.00    -0.334 OA
HETATM   18  C   UNL     1     -45.064  55.028 -60.857  1.00  0.00     0.142 A 
HETATM   19  C   UNL     1     -44.704  56.345 -60.690  1.00  0.00     0.038 A 
ENDBRANCH  11  15
ENDBRANCH   6   9
ENDBRANCH   2   5
BRANCH   1  20
HETATM   20  C   UNL     1     -41.926  55.889 -51.390  1.00  0.00     0.145 C 
BRANCH  20  21
HETATM   21  C   UNL     1     -41.169  54.615 -51.189  1.00  0.00    -0.021 A 
HETATM   22  C   UNL     1     -40.668  53.670 -52.151  1.00  0.00    -0.001 A 
HETATM   23  C   UNL     1     -40.616  53.604 -53.560  1.00  0.00     0.014 A 
HETATM   24  C   UNL     1     -40.153  52.584 -51.435  1.00  0.00     0.042 A 
HETATM   25  C   UNL     1     -40.075  52.475 -54.191  1.00  0.00     0.001 A 
HETATM   26  C   UNL     1     -39.587  51.408 -53.443  1.00  0.00     0.002 A 
HETATM   27  C   UNL     1     -39.614  51.446 -52.049  1.00  0.00     0.030 A 
HETATM   28  N   UNL     1     -40.294  52.868 -50.099  1.00  0.00    -0.365 N 
HETATM   29  H   UNL     1     -40.004  52.255 -49.350  1.00  0.00     0.165 HD
HETATM   30  C   UNL     1     -40.906  54.078 -49.939  1.00  0.00     0.097 A 
ENDBRANCH  20  21
ENDBRANCH   1  20
TORSDOF 5
ENDMDL
MODEL 10
REMARK VINA RESULT:      -8.1      2.096      3.255
REMARK  5 active torsions:
REMARK  status: ('A' for Active; 'I' for Inactive)
REMARK    1  A    between atoms: C_8  and  C_9 
REMARK    2  A    between atoms: C_9  and  C_10 
REMARK       I    between atoms: C_10  and  N_11 
REMARK    3  A    between atoms: N_11  and  N_12 
REMARK       I    between atoms: N_12  and  C_13 
REMARK    4  A    between atoms: C_13  and  C_14 
REMARK    5  A    between atoms: C_16  and  C_17 
ROOT
HETATM    1  C   UNL     1     -42.542  58.753 -56.424  1.00  0.00     0.240 C 
HETATM    2  N   UNL     1     -42.942  57.456 -56.150  1.00  0.00    -0.267 N 
HETATM    3  O   UNL     1     -41.692  59.344 -55.760  1.00  0.00    -0.272 OA
HETATM    4  H   UNL     1     -43.837  57.099 -56.483  1.00  0.00     0.190 HD
ENDROOT
BRANCH   2   5
HETATM    5  N   UNL     1     -42.391  56.803 -55.048  1.00  0.00    -0.263 N 
HETATM    6  C   UNL     1     -42.401  55.424 -55.024  1.00  0.00     0.270 C 
HETATM    7  O   UNL     1     -42.947  54.730 -55.875  1.00  0.00    -0.266 OA
HETATM    8  H   UNL     1     -42.184  57.370 -54.228  1.00  0.00     0.190 HD
BRANCH   6   9
HETATM    9  C   UNL     1     -41.666  54.810 -53.895  1.00  0.00     0.034 A 
HETATM   10  C   UNL     1     -41.140  53.518 -54.028  1.00  0.00     0.029 A 
HETATM   11  C   UNL     1     -40.517  52.890 -52.943  1.00  0.00    -0.023 A 
HETATM   12  C   UNL     1     -40.406  53.591 -51.732  1.00  0.00     0.012 A 
HETATM   13  C   UNL     1     -40.935  54.881 -51.601  1.00  0.00     0.002 A 
HETATM   14  C   UNL     1     -41.580  55.487 -52.677  1.00  0.00     0.017 A 
BRANCH  11  15
HETATM   15  C   UNL     1     -40.028  51.527 -53.081  1.00  0.00    -0.002 A 
HETATM   16  C   UNL     1     -39.635  50.724 -52.028  1.00  0.00     0.153 A 
HETATM   17  O   UNL     1     -39.272  49.490 -52.467  1.00  0.00    -0.334 OA
HETATM   18  C   UNL     1     -39.437  49.488 -53.813  1.00  0.00     0.142 A 
HETATM   19  C   UNL     1     -39.903  50.709 -54.241  1.00  0.00     0.038 A 
ENDBRANCH  11  15
ENDBRANCH   6   9
ENDBRANCH   2   5
BRANCH   1  20
HETATM   20  C   UNL     1     -43.155  59.307 -57.692  1.00  0.00     0.145 C 
BRANCH  20  21
HETATM   21  C   UNL     1     -43.365  58.346 -58.819  1.00  0.00    -0.021 A 
HETATM   22  C   UNL     1     -44.555  57.661 -59.247  1.00  0.00    -0.001 A 
HETATM   23  C   UNL     1     -45.914  57.677 -58.866  1.00  0.00     0.014 A 
HETATM   24  C   UNL     1     -44.181  56.775 -60.262  1.00  0.00     0.042 A 
HETATM   25  C   UNL     1     -46.828  56.817 -59.490  1.00  0.00     0.001 A 
HETATM   26  C   UNL     1     -46.413  55.939 -60.486  1.00  0.00     0.002 A 
HETATM   27  C   UNL     1     -45.079  55.905 -60.894  1.00  0.00     0.030 A 
HETATM   28  N   UNL     1     -42.834  56.939 -60.475  1.00  0.00    -0.365 N 
HETATM   29  H   UNL     1     -42.295  56.424 -61.157  1.00  0.00     0.165 HD
HETATM   30  C   UNL     1     -42.333  57.872 -59.613  1.00  0.00     0.097 A 
ENDBRANCH  20  21
ENDBRANCH   1  20
TORSDOF 5
ENDMDL
