MODEL 1
REMARK VINA RESULT:     -10.3      0.000      0.000
REMARK  8 active torsions:
REMARK  status: ('A' for Active; 'I' for Inactive)
REMARK    1  A    between atoms: C_3  and  N_4 
REMARK       I    between atoms: N_4  and  C_5 
REMARK    2  A    between atoms: C_5  and  C_6 
REMARK    3  A    between atoms: C_6  and  N_7 
REMARK    4  A    between atoms: N_11  and  C_12 
REMARK    5  A    between atoms: C_14  and  N_15 
REMARK    6  A    between atoms: N_15  and  C_16 
REMARK    7  A    between atoms: C_23  and  N_24 
REMARK    8  A    between atoms: N_24  and  C_25 
ROOT
HETATM    1  C   UNL     1     -42.472  55.522 -52.633  1.00  0.00     0.756 A 
HETATM    2  N   UNL     1     -41.439  54.701 -52.760  1.00  0.00     0.131 NA
HETATM    3  C   UNL     1     -41.203  54.218 -53.975  1.00  0.00     0.758 A 
HETATM    4  N   UNL     1     -41.884  54.592 -55.045  1.00  0.00     0.131 NA
HETATM    5  C   UNL     1     -42.866  55.458 -54.856  1.00  0.00     0.758 A 
HETATM    6  N   UNL     1     -43.193  55.944 -53.662  1.00  0.00     0.131 NA
ENDROOT
BRANCH   1   7
HETATM    7  N   UNL     1     -42.800  55.964 -51.346  1.00  0.00    -0.210 N 
HETATM    8  C   UNL     1     -44.100  56.643 -51.211  1.00  0.00     0.169 C 
HETATM    9  C   UNL     1     -43.984  58.137 -51.592  1.00  0.00     0.256 C 
HETATM   10  N   UNL     1     -42.865  58.788 -50.753  1.00  0.00    -0.060 N 
HETATM   11  H   UNL     1     -43.113  58.610 -49.773  1.00  0.00     0.280 HD
HETATM   12  C   UNL     1     -41.532  58.066 -50.992  1.00  0.00     0.256 C 
HETATM   13  C   UNL     1     -41.689  56.577 -50.603  1.00  0.00     0.169 C 
BRANCH  10  14
HETATM   14  C   UNL     1     -42.775  60.304 -50.899  1.00  0.00     0.337 C 
BRANCH  14  15
HETATM   15  C   UNL     1     -43.908  61.136 -50.278  1.00  0.00     0.248 C 
HETATM   16  N   UNL     1     -43.959  61.008 -48.900  1.00  0.00    -0.325 N 
HETATM   17  H   UNL     1     -43.362  60.295 -48.494  1.00  0.00     0.169 HD
HETATM   18  O   UNL     1     -44.666  61.771 -50.996  1.00  0.00    -0.271 OA
BRANCH  16  19
HETATM   19  C   UNL     1     -44.892  61.545 -47.973  1.00  0.00     0.042 A 
HETATM   20  C   UNL     1     -45.120  62.898 -47.662  1.00  0.00    -0.035 A 
HETATM   21  C   UNL     1     -44.317  64.064 -48.167  1.00  0.00     0.050 C 
HETATM   22  C   UNL     1     -46.169  63.226 -46.771  1.00  0.00     0.011 A 
HETATM   23  C   UNL     1     -46.935  62.244 -46.146  1.00  0.00     0.024 A 
HETATM   24  C   UNL     1     -46.659  60.913 -46.401  1.00  0.00     0.036 A 
HETATM   25  C   UNL     1     -45.650  60.565 -47.298  1.00  0.00     0.053 A 
HETATM   26 CL   UNL     1     -47.571  59.679 -45.623  1.00  0.00    -0.084 Cl
ENDBRANCH  16  19
ENDBRANCH  14  15
ENDBRANCH  10  14
ENDBRANCH   1   7
BRANCH   3  27
HETATM   27  N   UNL     1     -40.142  53.323 -54.077  1.00  0.00    -0.187 N 
HETATM   28  H   UNL     1     -39.297  53.806 -54.345  1.00  0.00     0.184 HD
BRANCH  27  29
HETATM   29  C   UNL     1     -39.930  52.060 -53.501  1.00  0.00     0.049 A 
HETATM   30  C   UNL     1     -40.046  50.923 -54.318  1.00  0.00     0.030 A 
HETATM   31  C   UNL     1     -39.879  49.637 -53.798  1.00  0.00     0.002 A 
HETATM   32  C   UNL     1     -39.599  49.464 -52.445  1.00  0.00     0.000 A 
HETATM   33  C   UNL     1     -39.501  50.577 -51.616  1.00  0.00     0.002 A 
HETATM   34  C   UNL     1     -39.679  51.862 -52.139  1.00  0.00     0.030 A 
ENDBRANCH  27  29
ENDBRANCH   3  27
BRANCH   5  35
HETATM   35  N   UNL     1     -43.509  55.856 -56.025  1.00  0.00    -0.187 N 
HETATM   36  H   UNL     1     -44.510  55.794 -55.883  1.00  0.00     0.184 HD
BRANCH  35  37
HETATM   37  C   UNL     1     -43.095  56.395 -57.245  1.00  0.00     0.049 A 
HETATM   38  C   UNL     1     -42.430  57.617 -57.374  1.00  0.00     0.030 A 
HETATM   39  C   UNL     1     -42.013  58.086 -58.625  1.00  0.00     0.002 A 
HETATM   40  C   UNL     1     -42.248  57.330 -59.770  1.00  0.00     0.000 A 
HETATM   41  C   UNL     1     -42.899  56.106 -59.665  1.00  0.00     0.002 A 
HETATM   42  C   UNL     1     -43.313  55.644 -58.413  1.00  0.00     0.030 A 
ENDBRANCH  35  37
ENDBRANCH   5  35
TORSDOF 8
ENDMDL
MODEL 2
REMARK VINA RESULT:     -10.1      1.114      5.355
REMARK  8 active torsions:
REMARK  status: ('A' for Active; 'I' for Inactive)
REMARK    1  A    between atoms: C_3  and  N_4 
REMARK       I    between atoms: N_4  and  C_5 
REMARK    2  A    between atoms: C_5  and  C_6 
REMARK    3  A    between atoms: C_6  and  N_7 
REMARK    4  A    between atoms: N_11  and  C_12 
REMARK    5  A    between atoms: C_14  and  N_15 
REMARK    6  A    between atoms: N_15  and  C_16 
REMARK    7  A    between atoms: C_23  and  N_24 
REMARK    8  A    between atoms: N_24  and  C_25 
ROOT
HETATM    1  C   UNL     1     -42.998  55.570 -52.994  1.00  0.00     0.756 A 
HETATM    2  N   UNL     1     -43.576  55.917 -54.135  1.00  0.00     0.131 NA
HETATM    3  C   UNL     1     -42.993  55.501 -55.253  1.00  0.00     0.758 A 
HETATM    4  N   UNL     1     -41.943  54.698 -55.264  1.00  0.00     0.131 NA
HETATM    5  C   UNL     1     -41.449  54.344 -54.089  1.00  0.00     0.758 A 
HETATM    6  N   UNL     1     -41.949  54.763 -52.930  1.00  0.00     0.131 NA
ENDROOT
BRANCH   1   7
HETATM    7  N   UNL     1     -43.536  56.079 -51.806  1.00  0.00    -0.210 N 
HETATM    8  C   UNL     1     -44.459  57.217 -51.954  1.00  0.00     0.169 C 
HETATM    9  C   UNL     1     -43.682  58.549 -52.063  1.00  0.00     0.256 C 
HETATM   10  N   UNL     1     -42.737  58.683 -50.850  1.00  0.00    -0.060 N 
HETATM   11  H   UNL     1     -43.336  58.598 -50.020  1.00  0.00     0.280 HD
HETATM   12  C   UNL     1     -41.767  57.495 -50.797  1.00  0.00     0.256 C 
HETATM   13  C   UNL     1     -42.581  56.184 -50.693  1.00  0.00     0.169 C 
BRANCH  10  14
HETATM   14  C   UNL     1     -42.049  60.040 -50.740  1.00  0.00     0.337 C 
BRANCH  14  15
HETATM   15  C   UNL     1     -42.905  61.222 -50.257  1.00  0.00     0.248 C 
HETATM   16  N   UNL     1     -43.927  60.820 -49.414  1.00  0.00    -0.325 N 
HETATM   17  H   UNL     1     -44.075  59.819 -49.334  1.00  0.00     0.169 HD
HETATM   18  O   UNL     1     -42.673  62.352 -50.662  1.00  0.00    -0.271 OA
BRANCH  16  19
HETATM   19  C   UNL     1     -44.969  61.584 -48.822  1.00  0.00     0.042 A 
HETATM   20  C   UNL     1     -46.143  62.062 -49.432  1.00  0.00    -0.035 A 
HETATM   21  C   UNL     1     -46.477  61.967 -50.894  1.00  0.00     0.050 C 
HETATM   22  C   UNL     1     -47.104  62.728 -48.634  1.00  0.00     0.011 A 
HETATM   23  C   UNL     1     -46.887  62.978 -47.281  1.00  0.00     0.024 A 
HETATM   24  C   UNL     1     -45.699  62.569 -46.703  1.00  0.00     0.036 A 
HETATM   25  C   UNL     1     -44.750  61.884 -47.462  1.00  0.00     0.053 A 
HETATM   26 CL   UNL     1     -45.393  62.889 -45.041  1.00  0.00    -0.084 Cl
ENDBRANCH  16  19
ENDBRANCH  14  15
ENDBRANCH  10  14
ENDBRANCH   1   7
BRANCH   3  27
HETATM   27  N   UNL     1     -43.592  55.915 -56.440  1.00  0.00    -0.187 N 
HETATM   28  H   UNL     1     -44.571  56.108 -56.293  1.00  0.00     0.184 HD
BRANCH  27  29
HETATM   29  C   UNL     1     -43.055  56.494 -57.601  1.00  0.00     0.049 A 
HETATM   30  C   UNL     1     -43.080  55.752 -58.793  1.00  0.00     0.030 A 
HETATM   31  C   UNL     1     -42.532  56.259 -59.975  1.00  0.00     0.002 A 
HETATM   32  C   UNL     1     -41.941  57.519 -59.983  1.00  0.00     0.000 A 
HETATM   33  C   UNL     1     -41.888  58.261 -58.807  1.00  0.00     0.002 A 
HETATM   34  C   UNL     1     -42.428  57.746 -57.625  1.00  0.00     0.030 A 
ENDBRANCH  27  29
ENDBRANCH   3  27
BRANCH   5  35
HETATM   35  N   UNL     1     -40.381  53.454 -54.164  1.00  0.00    -0.187 N 
HETATM   36  H   UNL     1     -39.643  53.876 -54.715  1.00  0.00     0.184 HD
BRANCH  35  37
HETATM   37  C   UNL     1     -40.082  52.220 -53.584  1.00  0.00     0.049 A 
HETATM   38  C   UNL     1     -39.769  52.046 -52.232  1.00  0.00     0.030 A 
HETATM   39  C   UNL     1     -39.510  50.775 -51.708  1.00  0.00     0.002 A 
HETATM   40  C   UNL     1     -39.570  49.652 -52.528  1.00  0.00     0.000 A 
HETATM   41  C   UNL     1     -39.888  49.799 -53.873  1.00  0.00     0.002 A 
HETATM   42  C   UNL     1     -40.146  51.071 -54.391  1.00  0.00     0.030 A 
ENDBRANCH  35  37
ENDBRANCH   5  35
TORSDOF 8
ENDMDL
MODEL 3
REMARK VINA RESULT:      -9.7      4.191      8.249
REMARK  8 active torsions:
REMARK  status: ('A' for Active; 'I' for Inactive)
REMARK    1  A    between atoms: C_3  and  N_4 
REMARK       I    between atoms: N_4  and  C_5 
REMARK    2  A    between atoms: C_5  and  C_6 
REMARK    3  A    between atoms: C_6  and  N_7 
REMARK    4  A    between atoms: N_11  and  C_12 
REMARK    5  A    between atoms: C_14  and  N_15 
REMARK    6  A    between atoms: N_15  and  C_16 
REMARK    7  A    between atoms: C_23  and  N_24 
REMARK    8  A    between atoms: N_24  and  C_25 
ROOT
HETATM    1  C   UNL     1     -43.117  59.089 -54.875  1.00  0.00     0.756 A 
HETATM    2  N   UNL     1     -43.000  57.952 -55.546  1.00  0.00     0.131 NA
HETATM    3  C   UNL     1     -42.510  58.032 -56.778  1.00  0.00     0.758 A 
HETATM    4  N   UNL     1     -42.061  59.158 -57.305  1.00  0.00     0.131 NA
HETATM    5  C   UNL     1     -42.157  60.247 -56.559  1.00  0.00     0.758 A 
HETATM    6  N   UNL     1     -42.683  60.252 -55.338  1.00  0.00     0.131 NA
ENDROOT
BRANCH   1   7
HETATM    7  N   UNL     1     -43.724  59.043 -53.614  1.00  0.00    -0.210 N 
HETATM    8  C   UNL     1     -42.978  59.683 -52.517  1.00  0.00     0.169 C 
HETATM    9  C   UNL     1     -41.916  58.721 -51.937  1.00  0.00     0.256 C 
HETATM   10  N   UNL     1     -42.601  57.403 -51.521  1.00  0.00    -0.060 N 
HETATM   11  H   UNL     1     -43.345  57.670 -50.867  1.00  0.00     0.280 HD
HETATM   12  C   UNL     1     -43.304  56.765 -52.727  1.00  0.00     0.256 C 
HETATM   13  C   UNL     1     -44.354  57.757 -53.280  1.00  0.00     0.169 C 
BRANCH  10  14
HETATM   14  C   UNL     1     -41.694  56.439 -50.762  1.00  0.00     0.337 C 
BRANCH  14  15
HETATM   15  C   UNL     1     -41.765  54.955 -51.153  1.00  0.00     0.248 C 
HETATM   16  N   UNL     1     -40.673  54.557 -51.907  1.00  0.00    -0.325 N 
HETATM   17  H   UNL     1     -40.054  55.297 -52.224  1.00  0.00     0.169 HD
HETATM   18  O   UNL     1     -42.737  54.284 -50.838  1.00  0.00    -0.271 OA
BRANCH  16  19
HETATM   19  C   UNL     1     -40.402  53.305 -52.521  1.00  0.00     0.042 A 
HETATM   20  C   UNL     1     -40.455  52.984 -53.890  1.00  0.00    -0.035 A 
HETATM   21  C   UNL     1     -40.946  53.887 -54.987  1.00  0.00     0.050 C 
HETATM   22  C   UNL     1     -40.052  51.692 -54.304  1.00  0.00     0.011 A 
HETATM   23  C   UNL     1     -39.668  50.715 -53.388  1.00  0.00     0.024 A 
HETATM   24  C   UNL     1     -39.685  51.014 -52.038  1.00  0.00     0.036 A 
HETATM   25  C   UNL     1     -40.050  52.290 -51.607  1.00  0.00     0.053 A 
HETATM   26 CL   UNL     1     -39.241  49.819 -50.884  1.00  0.00    -0.084 Cl
ENDBRANCH  16  19
ENDBRANCH  14  15
ENDBRANCH  10  14
ENDBRANCH   1   7
BRANCH   3  27
HETATM   27  N   UNL     1     -42.437  56.832 -57.482  1.00  0.00    -0.187 N 
HETATM   28  H   UNL     1     -41.946  56.136 -56.941  1.00  0.00     0.184 HD
BRANCH  27  29
HETATM   29  C   UNL     1     -43.227  56.312 -58.519  1.00  0.00     0.049 A 
HETATM   30  C   UNL     1     -43.573  54.951 -58.480  1.00  0.00     0.030 A 
HETATM   31  C   UNL     1     -44.329  54.364 -59.498  1.00  0.00     0.002 A 
HETATM   32  C   UNL     1     -44.750  55.130 -60.581  1.00  0.00     0.000 A 
HETATM   33  C   UNL     1     -44.400  56.476 -60.649  1.00  0.00     0.002 A 
HETATM   34  C   UNL     1     -43.634  57.056 -59.632  1.00  0.00     0.030 A 
ENDBRANCH  27  29
ENDBRANCH   3  27
BRANCH   5  35
HETATM   35  N   UNL     1     -41.617  61.389 -57.145  1.00  0.00    -0.187 N 
HETATM   36  H   UNL     1     -41.386  62.051 -56.414  1.00  0.00     0.184 HD
BRANCH  35  37
HETATM   37  C   UNL     1     -41.248  61.753 -58.441  1.00  0.00     0.049 A 
HETATM   38  C   UNL     1     -41.998  61.453 -59.582  1.00  0.00     0.030 A 
HETATM   39  C   UNL     1     -41.586  61.876 -60.850  1.00  0.00     0.002 A 
HETATM   40  C   UNL     1     -40.417  62.617 -60.997  1.00  0.00     0.000 A 
HETATM   41  C   UNL     1     -39.660  62.936 -59.876  1.00  0.00     0.002 A 
HETATM   42  C   UNL     1     -40.076  62.510 -58.612  1.00  0.00     0.030 A 
ENDBRANCH  35  37
ENDBRANCH   5  35
TORSDOF 8
ENDMDL
MODEL 4
REMARK VINA RESULT:      -9.7      4.267      8.044
REMARK  8 active torsions:
REMARK  status: ('A' for Active; 'I' for Inactive)
REMARK    1  A    between atoms: C_3  and  N_4 
REMARK       I    between atoms: N_4  and  C_5 
REMARK    2  A    between atoms: C_5  and  C_6 
REMARK    3  A    between atoms: C_6  and  N_7 
REMARK    4  A    between atoms: N_11  and  C_12 
REMARK    5  A    between atoms: C_14  and  N_15 
REMARK    6  A    between atoms: N_15  and  C_16 
REMARK    7  A    between atoms: C_23  and  N_24 
REMARK    8  A    between atoms: N_24  and  C_25 
ROOT
HETATM    1  C   UNL     1     -42.749  55.815 -53.521  1.00  0.00     0.756 A 
HETATM    2  N   UNL     1     -43.354  55.800 -54.701  1.00  0.00     0.131 NA
HETATM    3  C   UNL     1     -42.796  55.060 -55.651  1.00  0.00     0.758 A 
HETATM    4  N   UNL     1     -41.744  54.287 -55.441  1.00  0.00     0.131 NA
HETATM    5  C   UNL     1     -41.222  54.306 -54.225  1.00  0.00     0.758 A 
HETATM    6  N   UNL     1     -41.696  55.061 -53.238  1.00  0.00     0.131 NA
ENDROOT
BRANCH   1   7
HETATM    7  N   UNL     1     -43.261  56.665 -52.535  1.00  0.00    -0.210 N 
HETATM    8  C   UNL     1     -44.409  57.496 -52.933  1.00  0.00     0.169 C 
HETATM    9  C   UNL     1     -43.938  58.777 -53.659  1.00  0.00     0.256 C 
HETATM   10  N   UNL     1     -42.927  59.523 -52.764  1.00  0.00    -0.060 N 
HETATM   11  H   UNL     1     -43.411  59.684 -51.873  1.00  0.00     0.280 HD
HETATM   12  C   UNL     1     -41.732  58.616 -52.441  1.00  0.00     0.256 C 
HETATM   13  C   UNL     1     -42.243  57.346 -51.720  1.00  0.00     0.169 C 
BRANCH  10  14
HETATM   14  C   UNL     1     -42.527  60.900 -53.284  1.00  0.00     0.337 C 
BRANCH  14  15
HETATM   15  C   UNL     1     -43.103  61.329 -54.643  1.00  0.00     0.248 C 
HETATM   16  N   UNL     1     -42.385  60.806 -55.706  1.00  0.00    -0.325 N 
HETATM   17  H   UNL     1     -41.514  60.341 -55.473  1.00  0.00     0.169 HD
HETATM   18  O   UNL     1     -44.057  62.091 -54.691  1.00  0.00    -0.271 OA
BRANCH  16  19
HETATM   19  C   UNL     1     -42.543  61.022 -57.102  1.00  0.00     0.042 A 
HETATM   20  C   UNL     1     -43.673  60.750 -57.896  1.00  0.00    -0.035 A 
HETATM   21  C   UNL     1     -44.918  60.042 -57.441  1.00  0.00     0.050 C 
HETATM   22  C   UNL     1     -43.656  61.131 -59.259  1.00  0.00     0.011 A 
HETATM   23  C   UNL     1     -42.532  61.706 -59.846  1.00  0.00     0.024 A 
HETATM   24  C   UNL     1     -41.400  61.907 -59.077  1.00  0.00     0.036 A 
HETATM   25  C   UNL     1     -41.401  61.567 -57.725  1.00  0.00     0.053 A 
HETATM   26 CL   UNL     1     -39.988  62.590 -59.783  1.00  0.00    -0.084 Cl
ENDBRANCH  16  19
ENDBRANCH  14  15
ENDBRANCH  10  14
ENDBRANCH   1   7
BRANCH   3  27
HETATM   27  N   UNL     1     -43.422  55.094 -56.895  1.00  0.00    -0.187 N 
HETATM   28  H   UNL     1     -44.335  54.668 -56.841  1.00  0.00     0.184 HD
BRANCH  27  29
HETATM   29  C   UNL     1     -43.235  55.927 -58.009  1.00  0.00     0.049 A 
HETATM   30  C   UNL     1     -43.873  55.589 -59.214  1.00  0.00     0.030 A 
HETATM   31  C   UNL     1     -43.700  56.359 -60.367  1.00  0.00     0.002 A 
HETATM   32  C   UNL     1     -42.879  57.481 -60.338  1.00  0.00     0.000 A 
HETATM   33  C   UNL     1     -42.222  57.822 -59.159  1.00  0.00     0.002 A 
HETATM   34  C   UNL     1     -42.389  57.042 -58.010  1.00  0.00     0.030 A 
ENDBRANCH  27  29
ENDBRANCH   3  27
BRANCH   5  35
HETATM   35  N   UNL     1     -40.154  53.432 -54.049  1.00  0.00    -0.187 N 
HETATM   36  H   UNL     1     -39.296  53.913 -54.289  1.00  0.00     0.184 HD
BRANCH  35  37
HETATM   37  C   UNL     1     -40.009  52.140 -53.536  1.00  0.00     0.049 A 
HETATM   38  C   UNL     1     -40.062  50.980 -54.314  1.00  0.00     0.030 A 
HETATM   39  C   UNL     1     -39.878  49.717 -53.742  1.00  0.00     0.002 A 
HETATM   40  C   UNL     1     -39.625  49.594 -52.378  1.00  0.00     0.000 A 
HETATM   41  C   UNL     1     -39.558  50.735 -51.587  1.00  0.00     0.002 A 
HETATM   42  C   UNL     1     -39.744  51.994 -52.164  1.00  0.00     0.030 A 
ENDBRANCH  35  37
ENDBRANCH   5  35
TORSDOF 8
ENDMDL
MODEL 5
REMARK VINA RESULT:      -9.7      3.587      7.496
REMARK  8 active torsions:
REMARK  status: ('A' for Active; 'I' for Inactive)
REMARK    1  A    between atoms: C_3  and  N_4 
REMARK       I    between atoms: N_4  and  C_5 
REMARK    2  A    between atoms: C_5  and  C_6 
REMARK    3  A    between atoms: C_6  and  N_7 
REMARK    4  A    between atoms: N_11  and  C_12 
REMARK    5  A    between atoms: C_14  and  N_15 
REMARK    6  A    between atoms: N_15  and  C_16 
REMARK    7  A    between atoms: C_23  and  N_24 
REMARK    8  A    between atoms: N_24  and  C_25 
ROOT
HETATM    1  C   UNL     1     -42.380  55.814 -53.003  1.00  0.00     0.756 A 
HETATM    2  N   UNL     1     -43.098  55.990 -54.104  1.00  0.00     0.131 NA
HETATM    3  C   UNL     1     -42.703  55.332 -55.188  1.00  0.00     0.758 A 
HETATM    4  N   UNL     1     -41.708  54.461 -55.181  1.00  0.00     0.131 NA
HETATM    5  C   UNL     1     -41.070  54.291 -54.035  1.00  0.00     0.758 A 
HETATM    6  N   UNL     1     -41.376  54.953 -52.923  1.00  0.00     0.131 NA
ENDROOT
BRANCH   1   7
HETATM    7  N   UNL     1     -42.716  56.574 -51.876  1.00  0.00    -0.210 N 
HETATM    8  C   UNL     1     -44.139  56.924 -51.736  1.00  0.00     0.169 C 
HETATM    9  C   UNL     1     -44.483  58.180 -52.569  1.00  0.00     0.256 C 
HETATM   10  N   UNL     1     -43.531  59.327 -52.171  1.00  0.00    -0.060 N 
HETATM   11  H   UNL     1     -43.638  59.439 -51.157  1.00  0.00     0.280 HD
HETATM   12  C   UNL     1     -42.072  58.911 -52.401  1.00  0.00     0.256 C 
HETATM   13  C   UNL     1     -41.768  57.652 -51.556  1.00  0.00     0.169 C 
BRANCH  10  14
HETATM   14  C   UNL     1     -43.886  60.677 -52.786  1.00  0.00     0.337 C 
BRANCH  14  15
HETATM   15  C   UNL     1     -44.761  60.663 -54.050  1.00  0.00     0.248 C 
HETATM   16  N   UNL     1     -44.052  60.273 -55.174  1.00  0.00    -0.325 N 
HETATM   17  H   UNL     1     -43.047  60.188 -55.064  1.00  0.00     0.169 HD
HETATM   18  O   UNL     1     -45.928  61.021 -53.991  1.00  0.00    -0.271 OA
BRANCH  16  19
HETATM   19  C   UNL     1     -44.469  60.203 -56.531  1.00  0.00     0.042 A 
HETATM   20  C   UNL     1     -44.108  61.056 -57.591  1.00  0.00    -0.035 A 
HETATM   21  C   UNL     1     -43.292  62.313 -57.470  1.00  0.00     0.050 C 
HETATM   22  C   UNL     1     -44.564  60.753 -58.896  1.00  0.00     0.011 A 
HETATM   23  C   UNL     1     -45.411  59.675 -59.145  1.00  0.00     0.024 A 
HETATM   24  C   UNL     1     -45.820  58.883 -58.088  1.00  0.00     0.036 A 
HETATM   25  C   UNL     1     -45.360  59.143 -56.797  1.00  0.00     0.053 A 
HETATM   26 CL   UNL     1     -46.887  57.562 -58.363  1.00  0.00    -0.084 Cl
ENDBRANCH  16  19
ENDBRANCH  14  15
ENDBRANCH  10  14
ENDBRANCH   1   7
BRANCH   3  27
HETATM   27  N   UNL     1     -43.443  55.566 -56.344  1.00  0.00    -0.187 N 
HETATM   28  H   UNL     1     -44.431  55.506 -56.148  1.00  0.00     0.184 HD
BRANCH  27  29
HETATM   29  C   UNL     1     -43.126  56.247 -57.530  1.00  0.00     0.049 A 
HETATM   30  C   UNL     1     -43.564  55.707 -58.750  1.00  0.00     0.030 A 
HETATM   31  C   UNL     1     -43.254  56.319 -59.968  1.00  0.00     0.002 A 
HETATM   32  C   UNL     1     -42.492  57.484 -59.986  1.00  0.00     0.000 A 
HETATM   33  C   UNL     1     -42.031  58.023 -58.789  1.00  0.00     0.002 A 
HETATM   34  C   UNL     1     -42.335  57.401 -57.574  1.00  0.00     0.030 A 
ENDBRANCH  27  29
ENDBRANCH   3  27
BRANCH   5  35
HETATM   35  N   UNL     1     -40.071  53.322 -54.076  1.00  0.00    -0.187 N 
HETATM   36  H   UNL     1     -39.288  53.684 -54.607  1.00  0.00     0.184 HD
BRANCH  35  37
HETATM   37  C   UNL     1     -39.884  52.072 -53.482  1.00  0.00     0.049 A 
HETATM   38  C   UNL     1     -39.665  51.880 -52.115  1.00  0.00     0.030 A 
HETATM   39  C   UNL     1     -39.516  50.595 -51.580  1.00  0.00     0.002 A 
HETATM   40  C   UNL     1     -39.594  49.478 -52.406  1.00  0.00     0.000 A 
HETATM   41  C   UNL     1     -39.821  49.644 -53.768  1.00  0.00     0.002 A 
HETATM   42  C   UNL     1     -39.968  50.929 -54.297  1.00  0.00     0.030 A 
ENDBRANCH  35  37
ENDBRANCH   5  35
TORSDOF 8
ENDMDL
MODEL 6
REMARK VINA RESULT:      -9.7      4.212      8.923
REMARK  8 active torsions:
REMARK  status: ('A' for Active; 'I' for Inactive)
REMARK    1  A    between atoms: C_3  and  N_4 
REMARK       I    between atoms: N_4  and  C_5 
REMARK    2  A    between atoms: C_5  and  C_6 
REMARK    3  A    between atoms: C_6  and  N_7 
REMARK    4  A    between atoms: N_11  and  C_12 
REMARK    5  A    between atoms: C_14  and  N_15 
REMARK    6  A    between atoms: N_15  and  C_16 
REMARK    7  A    between atoms: C_23  and  N_24 
REMARK    8  A    between atoms: N_24  and  C_25 
ROOT
HETATM    1  C   UNL     1     -43.256  59.008 -55.028  1.00  0.00     0.756 A 
HETATM    2  N   UNL     1     -42.838  60.183 -55.476  1.00  0.00     0.131 NA
HETATM    3  C   UNL     1     -42.200  60.188 -56.640  1.00  0.00     0.758 A 
HETATM    4  N   UNL     1     -42.055  59.109 -57.390  1.00  0.00     0.131 NA
HETATM    5  C   UNL     1     -42.546  57.978 -56.909  1.00  0.00     0.758 A 
HETATM    6  N   UNL     1     -43.151  57.887 -55.729  1.00  0.00     0.131 NA
ENDROOT
BRANCH   1   7
HETATM    7  N   UNL     1     -43.842  58.963 -53.758  1.00  0.00    -0.210 N 
HETATM    8  C   UNL     1     -43.112  59.660 -52.687  1.00  0.00     0.169 C 
HETATM    9  C   UNL     1     -41.998  58.761 -52.102  1.00  0.00     0.256 C 
HETATM   10  N   UNL     1     -42.617  57.422 -51.647  1.00  0.00    -0.060 N 
HETATM   11  H   UNL     1     -43.363  57.670 -50.988  1.00  0.00     0.280 HD
HETATM   12  C   UNL     1     -43.307  56.726 -52.828  1.00  0.00     0.256 C 
HETATM   13  C   UNL     1     -44.408  57.657 -53.388  1.00  0.00     0.169 C 
BRANCH  10  14
HETATM   14  C   UNL     1     -41.657  56.517 -50.881  1.00  0.00     0.337 C 
BRANCH  14  15
HETATM   15  C   UNL     1     -41.707  55.014 -51.197  1.00  0.00     0.248 C 
HETATM   16  N   UNL     1     -40.656  54.612 -52.005  1.00  0.00    -0.325 N 
HETATM   17  H   UNL     1     -40.083  55.353 -52.397  1.00  0.00     0.169 HD
HETATM   18  O   UNL     1     -42.634  54.332 -50.786  1.00  0.00    -0.271 OA
BRANCH  16  19
HETATM   19  C   UNL     1     -40.387  53.340 -52.578  1.00  0.00     0.042 A 
HETATM   20  C   UNL     1     -40.403  52.984 -53.939  1.00  0.00    -0.035 A 
HETATM   21  C   UNL     1     -40.843  53.866 -55.074  1.00  0.00     0.050 C 
HETATM   22  C   UNL     1     -40.009  51.675 -54.306  1.00  0.00     0.011 A 
HETATM   23  C   UNL     1     -39.670  50.717 -53.354  1.00  0.00     0.024 A 
HETATM   24  C   UNL     1     -39.725  51.052 -52.014  1.00  0.00     0.036 A 
HETATM   25  C   UNL     1     -40.081  52.343 -51.628  1.00  0.00     0.053 A 
HETATM   26 CL   UNL     1     -39.339  49.879 -50.816  1.00  0.00    -0.084 Cl
ENDBRANCH  16  19
ENDBRANCH  14  15
ENDBRANCH  10  14
ENDBRANCH   1   7
BRANCH   3  27
HETATM   27  N   UNL     1     -41.729  61.427 -57.070  1.00  0.00    -0.187 N 
HETATM   28  H   UNL     1     -41.280  61.917 -56.310  1.00  0.00     0.184 HD
BRANCH  27  29
HETATM   29  C   UNL     1     -41.392  61.903 -58.347  1.00  0.00     0.049 A 
HETATM   30  C   UNL     1     -40.077  62.341 -58.572  1.00  0.00     0.030 A 
HETATM   31  C   UNL     1     -39.686  62.857 -59.811  1.00  0.00     0.002 A 
HETATM   32  C   UNL     1     -40.610  62.950 -60.848  1.00  0.00     0.000 A 
HETATM   33  C   UNL     1     -41.923  62.540 -60.638  1.00  0.00     0.002 A 
HETATM   34  C   UNL     1     -42.312  62.034 -59.393  1.00  0.00     0.030 A 
ENDBRANCH  27  29
ENDBRANCH   3  27
BRANCH   5  35
HETATM   35  N   UNL     1     -42.414  56.889 -57.766  1.00  0.00    -0.187 N 
HETATM   36  H   UNL     1     -41.538  56.421 -57.566  1.00  0.00     0.184 HD
BRANCH  35  37
HETATM   37  C   UNL     1     -43.234  56.274 -58.715  1.00  0.00     0.049 A 
HETATM   38  C   UNL     1     -43.672  56.894 -59.889  1.00  0.00     0.030 A 
HETATM   39  C   UNL     1     -44.468  56.209 -60.814  1.00  0.00     0.002 A 
HETATM   40  C   UNL     1     -44.831  54.886 -60.583  1.00  0.00     0.000 A 
HETATM   41  C   UNL     1     -44.400  54.246 -59.427  1.00  0.00     0.002 A 
HETATM   42  C   UNL     1     -43.606  54.935 -58.506  1.00  0.00     0.030 A 
ENDBRANCH  35  37
ENDBRANCH   5  35
TORSDOF 8
ENDMDL
MODEL 7
REMARK VINA RESULT:      -9.6      4.235      6.178
REMARK  8 active torsions:
REMARK  status: ('A' for Active; 'I' for Inactive)
REMARK    1  A    between atoms: C_3  and  N_4 
REMARK       I    between atoms: N_4  and  C_5 
REMARK    2  A    between atoms: C_5  and  C_6 
REMARK    3  A    between atoms: C_6  and  N_7 
REMARK    4  A    between atoms: N_11  and  C_12 
REMARK    5  A    between atoms: C_14  and  N_15 
REMARK    6  A    between atoms: N_15  and  C_16 
REMARK    7  A    between atoms: C_23  and  N_24 
REMARK    8  A    between atoms: N_24  and  C_25 
ROOT
HETATM    1  C   UNL     1     -42.942  56.148 -53.371  1.00  0.00     0.756 A 
HETATM    2  N   UNL     1     -41.897  55.447 -52.954  1.00  0.00     0.131 NA
HETATM    3  C   UNL     1     -41.421  54.529 -53.788  1.00  0.00     0.758 A 
HETATM    4  N   UNL     1     -41.880  54.362 -55.017  1.00  0.00     0.131 NA
HETATM    5  C   UNL     1     -42.888  55.134 -55.388  1.00  0.00     0.758 A 
HETATM    6  N   UNL     1     -43.448  56.039 -54.590  1.00  0.00     0.131 NA
ENDROOT
BRANCH   1   7
HETATM    7  N   UNL     1     -43.523  57.050 -52.472  1.00  0.00    -0.210 N 
HETATM    8  C   UNL     1     -44.643  57.849 -52.995  1.00  0.00     0.169 C 
HETATM    9  C   UNL     1     -44.127  59.089 -53.761  1.00  0.00     0.256 C 
HETATM   10  N   UNL     1     -43.182  59.892 -52.843  1.00  0.00    -0.060 N 
HETATM   11  H   UNL     1     -43.726  60.101 -51.998  1.00  0.00     0.280 HD
HETATM   12  C   UNL     1     -42.009  59.014 -52.387  1.00  0.00     0.256 C 
HETATM   13  C   UNL     1     -42.566  57.784 -51.631  1.00  0.00     0.169 C 
BRANCH  10  14
HETATM   14  C   UNL     1     -42.751  61.239 -53.413  1.00  0.00     0.337 C 
BRANCH  14  15
HETATM   15  C   UNL     1     -43.225  61.582 -54.835  1.00  0.00     0.248 C 
HETATM   16  N   UNL     1     -42.435  60.993 -55.808  1.00  0.00    -0.325 N 
HETATM   17  H   UNL     1     -41.584  60.544 -55.484  1.00  0.00     0.169 HD
HETATM   18  O   UNL     1     -44.170  62.339 -55.000  1.00  0.00    -0.271 OA
BRANCH  16  19
HETATM   19  C   UNL     1     -42.491  61.121 -57.222  1.00  0.00     0.042 A 
HETATM   20  C   UNL     1     -43.536  60.740 -58.083  1.00  0.00    -0.035 A 
HETATM   21  C   UNL     1     -44.776  59.989 -57.684  1.00  0.00     0.050 C 
HETATM   22  C   UNL     1     -43.429  61.043 -59.462  1.00  0.00     0.011 A 
HETATM   23  C   UNL     1     -42.293  61.648 -59.994  1.00  0.00     0.024 A 
HETATM   24  C   UNL     1     -41.239  61.956 -59.153  1.00  0.00     0.036 A 
HETATM   25  C   UNL     1     -41.332  61.693 -57.787  1.00  0.00     0.053 A 
HETATM   26 CL   UNL     1     -39.812  62.677 -59.788  1.00  0.00    -0.084 Cl
ENDBRANCH  16  19
ENDBRANCH  14  15
ENDBRANCH  10  14
ENDBRANCH   1   7
BRANCH   3  27
HETATM   27  N   UNL     1     -40.352  53.773 -53.313  1.00  0.00    -0.187 N 
HETATM   28  H   UNL     1     -39.789  54.318 -52.678  1.00  0.00     0.184 HD
BRANCH  27  29
HETATM   29  C   UNL     1     -40.168  52.385 -53.207  1.00  0.00     0.049 A 
HETATM   30  C   UNL     1     -39.758  51.857 -51.972  1.00  0.00     0.030 A 
HETATM   31  C   UNL     1     -39.526  50.488 -51.809  1.00  0.00     0.002 A 
HETATM   32  C   UNL     1     -39.693  49.622 -52.885  1.00  0.00     0.000 A 
HETATM   33  C   UNL     1     -40.079  50.129 -54.123  1.00  0.00     0.002 A 
HETATM   34  C   UNL     1     -40.300  51.500 -54.283  1.00  0.00     0.030 A 
ENDBRANCH  27  29
ENDBRANCH   3  27
BRANCH   5  35
HETATM   35  N   UNL     1     -43.289  54.953 -56.709  1.00  0.00    -0.187 N 
HETATM   36  H   UNL     1     -43.827  54.097 -56.771  1.00  0.00     0.184 HD
BRANCH  35  37
HETATM   37  C   UNL     1     -43.207  55.710 -57.879  1.00  0.00     0.049 A 
HETATM   38  C   UNL     1     -42.443  56.875 -58.004  1.00  0.00     0.030 A 
HETATM   39  C   UNL     1     -42.379  57.570 -59.217  1.00  0.00     0.002 A 
HETATM   40  C   UNL     1     -43.072  57.104 -60.331  1.00  0.00     0.000 A 
HETATM   41  C   UNL     1     -43.830  55.943 -60.232  1.00  0.00     0.002 A 
HETATM   42  C   UNL     1     -43.891  55.253 -59.018  1.00  0.00     0.030 A 
ENDBRANCH  35  37
ENDBRANCH   5  35
TORSDOF 8
ENDMDL
MODEL 8
REMARK VINA RESULT:      -9.6      3.278      5.074
REMARK  8 active torsions:
REMARK  status: ('A' for Active; 'I' for Inactive)
REMARK    1  A    between atoms: C_3  and  N_4 
REMARK       I    between atoms: N_4  and  C_5 
REMARK    2  A    between atoms: C_5  and  C_6 
REMARK    3  A    between atoms: C_6  and  N_7 
REMARK    4  A    between atoms: N_11  and  C_12 
REMARK    5  A    between atoms: C_14  and  N_15 
REMARK    6  A    between atoms: N_15  and  C_16 
REMARK    7  A    between atoms: C_23  and  N_24 
REMARK    8  A    between atoms: N_24  and  C_25 
ROOT
HETATM    1  C   UNL     1     -42.407  55.808 -52.826  1.00  0.00     0.756 A 
HETATM    2  N   UNL     1     -41.349  55.011 -52.835  1.00  0.00     0.131 NA
HETATM    3  C   UNL     1     -41.098  54.360 -53.966  1.00  0.00     0.758 A 
HETATM    4  N   UNL     1     -41.791  54.548 -55.076  1.00  0.00     0.131 NA
HETATM    5  C   UNL     1     -42.801  55.401 -55.013  1.00  0.00     0.758 A 
HETATM    6  N   UNL     1     -43.142  56.049 -53.903  1.00  0.00     0.131 NA
ENDROOT
BRANCH   1   7
HETATM    7  N   UNL     1     -42.749  56.426 -51.618  1.00  0.00    -0.210 N 
HETATM    8  C   UNL     1     -44.184  56.682 -51.409  1.00  0.00     0.169 C 
HETATM    9  C   UNL     1     -44.616  57.998 -52.096  1.00  0.00     0.256 C 
HETATM   10  N   UNL     1     -43.713  59.147 -51.600  1.00  0.00    -0.060 N 
HETATM   11  H   UNL     1     -43.798  59.146 -50.577  1.00  0.00     0.280 HD
HETATM   12  C   UNL     1     -42.242  58.837 -51.906  1.00  0.00     0.256 C 
HETATM   13  C   UNL     1     -41.850  57.514 -51.207  1.00  0.00     0.169 C 
BRANCH  10  14
HETATM   14  C   UNL     1     -44.155  60.533 -52.060  1.00  0.00     0.337 C 
BRANCH  14  15
HETATM   15  C   UNL     1     -44.949  60.615 -53.373  1.00  0.00     0.248 C 
HETATM   16  N   UNL     1     -44.192  60.234 -54.469  1.00  0.00    -0.325 N 
HETATM   17  H   UNL     1     -43.201  60.092 -54.302  1.00  0.00     0.169 HD
HETATM   18  O   UNL     1     -46.098  61.030 -53.370  1.00  0.00    -0.271 OA
BRANCH  16  19
HETATM   19  C   UNL     1     -44.527  60.241 -55.850  1.00  0.00     0.042 A 
HETATM   20  C   UNL     1     -44.095  61.143 -56.839  1.00  0.00    -0.035 A 
HETATM   21  C   UNL     1     -43.278  62.383 -56.603  1.00  0.00     0.050 C 
HETATM   22  C   UNL     1     -44.474  60.915 -58.184  1.00  0.00     0.011 A 
HETATM   23  C   UNL     1     -45.313  59.862 -58.541  1.00  0.00     0.024 A 
HETATM   24  C   UNL     1     -45.791  59.020 -57.554  1.00  0.00     0.036 A 
HETATM   25  C   UNL     1     -45.409  59.206 -56.226  1.00  0.00     0.053 A 
HETATM   26 CL   UNL     1     -46.851  57.727 -57.962  1.00  0.00    -0.084 Cl
ENDBRANCH  16  19
ENDBRANCH  14  15
ENDBRANCH  10  14
ENDBRANCH   1   7
BRANCH   3  27
HETATM   27  N   UNL     1     -40.009  53.494 -53.939  1.00  0.00    -0.187 N 
HETATM   28  H   UNL     1     -39.144  54.012 -53.990  1.00  0.00     0.184 HD
BRANCH  27  29
HETATM   29  C   UNL     1     -39.872  52.184 -53.451  1.00  0.00     0.049 A 
HETATM   30  C   UNL     1     -40.051  51.114 -54.343  1.00  0.00     0.030 A 
HETATM   31  C   UNL     1     -39.961  49.788 -53.913  1.00  0.00     0.002 A 
HETATM   32  C   UNL     1     -39.695  49.507 -52.576  1.00  0.00     0.000 A 
HETATM   33  C   UNL     1     -39.534  50.554 -51.672  1.00  0.00     0.002 A 
HETATM   34  C   UNL     1     -39.636  51.879 -52.106  1.00  0.00     0.030 A 
ENDBRANCH  27  29
ENDBRANCH   3  27
BRANCH   5  35
HETATM   35  N   UNL     1     -43.456  55.600 -56.224  1.00  0.00    -0.187 N 
HETATM   36  H   UNL     1     -44.408  55.264 -56.139  1.00  0.00     0.184 HD
BRANCH  35  37
HETATM   37  C   UNL     1     -43.134  56.227 -57.430  1.00  0.00     0.049 A 
HETATM   38  C   UNL     1     -43.534  55.761 -58.685  1.00  0.00     0.030 A 
HETATM   39  C   UNL     1     -43.203  56.455 -59.854  1.00  0.00     0.002 A 
HETATM   40  C   UNL     1     -42.472  57.638 -59.784  1.00  0.00     0.000 A 
HETATM   41  C   UNL     1     -42.072  58.126 -58.546  1.00  0.00     0.002 A 
HETATM   42  C   UNL     1     -42.405  57.428 -57.382  1.00  0.00     0.030 A 
ENDBRANCH  35  37
ENDBRANCH   5  35
TORSDOF 8
ENDMDL
MODEL 9
REMARK VINA RESULT:      -9.6      1.929      2.612
REMARK  8 active torsions:
REMARK  status: ('A' for Active; 'I' for Inactive)
REMARK    1  A    between atoms: C_3  and  N_4 
REMARK       I    between atoms: N_4  and  C_5 
REMARK    2  A    between atoms: C_5  and  C_6 
REMARK    3  A    between atoms: C_6  and  N_7 
REMARK    4  A    between atoms: N_11  and  C_12 
REMARK    5  A    between atoms: C_14  and  N_15 
REMARK    6  A    between atoms: N_15  and  C_16 
REMARK    7  A    between atoms: C_23  and  N_24 
REMARK    8  A    between atoms: N_24  and  C_25 
ROOT
HETATM    1  C   UNL     1     -41.831  57.333 -54.926  1.00  0.00     0.756 A 
HETATM    2  N   UNL     1     -41.856  56.169 -54.290  1.00  0.00     0.131 NA
HETATM    3  C   UNL     1     -42.275  55.117 -54.984  1.00  0.00     0.758 A 
HETATM    4  N   UNL     1     -42.569  55.171 -56.272  1.00  0.00     0.131 NA
HETATM    5  C   UNL     1     -42.469  56.353 -56.858  1.00  0.00     0.758 A 
HETATM    6  N   UNL     1     -42.106  57.459 -56.216  1.00  0.00     0.131 NA
ENDROOT
BRANCH   1   7
HETATM    7  N   UNL     1     -41.489  58.472 -54.189  1.00  0.00    -0.210 N 
HETATM    8  C   UNL     1     -41.105  58.242 -52.786  1.00  0.00     0.169 C 
HETATM    9  C   UNL     1     -42.354  58.146 -51.880  1.00  0.00     0.256 C 
HETATM   10  N   UNL     1     -43.218  59.409 -52.076  1.00  0.00    -0.060 N 
HETATM   11  H   UNL     1     -42.600  60.203 -51.876  1.00  0.00     0.280 HD
HETATM   12  C   UNL     1     -43.630  59.550 -53.548  1.00  0.00     0.256 C 
HETATM   13  C   UNL     1     -42.355  59.638 -54.421  1.00  0.00     0.169 C 
BRANCH  10  14
HETATM   14  C   UNL     1     -44.386  59.526 -51.101  1.00  0.00     0.337 C 
BRANCH  14  15
HETATM   15  C   UNL     1     -44.379  60.725 -50.140  1.00  0.00     0.248 C 
HETATM   16  N   UNL     1     -45.185  60.515 -49.033  1.00  0.00    -0.325 N 
HETATM   17  H   UNL     1     -45.776  59.690 -49.059  1.00  0.00     0.169 HD
HETATM   18  O   UNL     1     -43.746  61.732 -50.421  1.00  0.00    -0.271 OA
BRANCH  16  19
HETATM   19  C   UNL     1     -45.506  61.395 -47.964  1.00  0.00     0.042 A 
HETATM   20  C   UNL     1     -46.411  62.472 -47.974  1.00  0.00    -0.035 A 
HETATM   21  C   UNL     1     -47.141  62.998 -49.178  1.00  0.00     0.050 C 
HETATM   22  C   UNL     1     -46.656  63.168 -46.766  1.00  0.00     0.011 A 
HETATM   23  C   UNL     1     -45.977  62.857 -45.590  1.00  0.00     0.024 A 
HETATM   24  C   UNL     1     -45.036  61.844 -45.604  1.00  0.00     0.036 A 
HETATM   25  C   UNL     1     -44.799  61.124 -46.775  1.00  0.00     0.053 A 
HETATM   26 CL   UNL     1     -44.163  61.457 -44.173  1.00  0.00    -0.084 Cl
ENDBRANCH  16  19
ENDBRANCH  14  15
ENDBRANCH  10  14
ENDBRANCH   1   7
BRANCH   3  27
HETATM   27  N   UNL     1     -42.336  53.914 -54.284  1.00  0.00    -0.187 N 
HETATM   28  H   UNL     1     -43.144  53.381 -54.570  1.00  0.00     0.184 HD
BRANCH  27  29
HETATM   29  C   UNL     1     -41.343  53.161 -53.639  1.00  0.00     0.049 A 
HETATM   30  C   UNL     1     -40.754  52.092 -54.334  1.00  0.00     0.030 A 
HETATM   31  C   UNL     1     -39.784  51.284 -53.735  1.00  0.00     0.002 A 
HETATM   32  C   UNL     1     -39.388  51.528 -52.423  1.00  0.00     0.000 A 
HETATM   33  C   UNL     1     -39.975  52.570 -51.711  1.00  0.00     0.002 A 
HETATM   34  C   UNL     1     -40.953  53.369 -52.310  1.00  0.00     0.030 A 
ENDBRANCH  27  29
ENDBRANCH   3  27
BRANCH   5  35
HETATM   35  N   UNL     1     -42.736  56.336 -58.224  1.00  0.00    -0.187 N 
HETATM   36  H   UNL     1     -41.861  56.414 -58.728  1.00  0.00     0.184 HD
BRANCH  35  37
HETATM   37  C   UNL     1     -43.877  56.137 -59.005  1.00  0.00     0.049 A 
HETATM   38  C   UNL     1     -44.050  55.057 -59.875  1.00  0.00     0.030 A 
HETATM   39  C   UNL     1     -45.233  54.899 -60.606  1.00  0.00     0.002 A 
HETATM   40  C   UNL     1     -46.269  55.818 -60.469  1.00  0.00     0.000 A 
HETATM   41  C   UNL     1     -46.124  56.894 -59.602  1.00  0.00     0.002 A 
HETATM   42  C   UNL     1     -44.940  57.047 -58.876  1.00  0.00     0.030 A 
ENDBRANCH  35  37
ENDBRANCH   5  35
TORSDOF 8
ENDMDL
MODEL 10
REMARK VINA RESULT:      -9.5      1.951      5.639
REMARK  8 active torsions:
REMARK  status: ('A' for Active; 'I' for Inactive)
REMARK    1  A    between atoms: C_3  and  N_4 
REMARK       I    between atoms: N_4  and  C_5 
REMARK    2  A    between atoms: C_5  and  C_6 
REMARK    3  A    between atoms: C_6  and  N_7 
REMARK    4  A    between atoms: N_11  and  C_12 
REMARK    5  A    between atoms: C_14  and  N_15 
REMARK    6  A    between atoms: N_15  and  C_16 
REMARK    7  A    between atoms: C_23  and  N_24 
REMARK    8  A    between atoms: N_24  and  C_25 
ROOT
HETATM    1  C   UNL     1     -42.266  57.550 -55.067  1.00  0.00     0.756 A 
HETATM    2  N   UNL     1     -42.467  57.444 -56.373  1.00  0.00     0.131 NA
HETATM    3  C   UNL     1     -42.514  56.215 -56.873  1.00  0.00     0.758 A 
HETATM    4  N   UNL     1     -42.464  55.127 -56.124  1.00  0.00     0.131 NA
HETATM    5  C   UNL     1     -42.319  55.306 -54.821  1.00  0.00     0.758 A 
HETATM    6  N   UNL     1     -42.213  56.504 -54.255  1.00  0.00     0.131 NA
ENDROOT
BRANCH   1   7
HETATM    7  N   UNL     1     -42.112  58.834 -54.532  1.00  0.00    -0.210 N 
HETATM    8  C   UNL     1     -41.419  58.913 -53.235  1.00  0.00     0.169 C 
HETATM    9  C   UNL     1     -42.397  58.646 -52.068  1.00  0.00     0.256 C 
HETATM   10  N   UNL     1     -43.593  59.614 -52.180  1.00  0.00    -0.060 N 
HETATM   11  H   UNL     1     -43.188  60.557 -52.196  1.00  0.00     0.280 HD
HETATM   12  C   UNL     1     -44.301  59.432 -53.529  1.00  0.00     0.256 C 
HETATM   13  C   UNL     1     -43.291  59.703 -54.669  1.00  0.00     0.169 C 
BRANCH  10  14
HETATM   14  C   UNL     1     -44.539  59.580 -50.984  1.00  0.00     0.337 C 
BRANCH  14  15
HETATM   15  C   UNL     1     -44.458  60.753 -49.993  1.00  0.00     0.248 C 
HETATM   16  N   UNL     1     -45.299  60.581 -48.907  1.00  0.00    -0.325 N 
HETATM   17  H   UNL     1     -45.951  59.806 -48.962  1.00  0.00     0.169 HD
HETATM   18  O   UNL     1     -43.744  61.714 -50.239  1.00  0.00    -0.271 OA
BRANCH  16  19
HETATM   19  C   UNL     1     -45.572  61.458 -47.822  1.00  0.00     0.042 A 
HETATM   20  C   UNL     1     -46.477  62.535 -47.789  1.00  0.00    -0.035 A 
HETATM   21  C   UNL     1     -47.259  63.065 -48.958  1.00  0.00     0.050 C 
HETATM   22  C   UNL     1     -46.667  63.229 -46.569  1.00  0.00     0.011 A 
HETATM   23  C   UNL     1     -45.937  62.915 -45.425  1.00  0.00     0.024 A 
HETATM   24  C   UNL     1     -44.998  61.902 -45.484  1.00  0.00     0.036 A 
HETATM   25  C   UNL     1     -44.813  61.184 -46.666  1.00  0.00     0.053 A 
HETATM   26 CL   UNL     1     -44.062  61.511 -44.094  1.00  0.00    -0.084 Cl
ENDBRANCH  16  19
ENDBRANCH  14  15
ENDBRANCH  10  14
ENDBRANCH   1   7
BRANCH   3  27
HETATM   27  N   UNL     1     -42.682  56.127 -58.253  1.00  0.00    -0.187 N 
HETATM   28  H   UNL     1     -41.855  55.743 -58.685  1.00  0.00     0.184 HD
BRANCH  27  29
HETATM   29  C   UNL     1     -43.836  56.060 -59.049  1.00  0.00     0.049 A 
HETATM   30  C   UNL     1     -43.948  55.014 -59.979  1.00  0.00     0.030 A 
HETATM   31  C   UNL     1     -45.057  54.909 -60.823  1.00  0.00     0.002 A 
HETATM   32  C   UNL     1     -46.074  55.857 -60.756  1.00  0.00     0.000 A 
HETATM   33  C   UNL     1     -45.972  56.912 -59.855  1.00  0.00     0.002 A 
HETATM   34  C   UNL     1     -44.856  57.018 -59.020  1.00  0.00     0.030 A 
ENDBRANCH  27  29
ENDBRANCH   3  27
BRANCH   5  35
HETATM   35  N   UNL     1     -42.329  54.128 -54.079  1.00  0.00    -0.187 N 
HETATM   36  H   UNL     1     -43.276  53.771 -54.048  1.00  0.00     0.184 HD
BRANCH  35  37
HETATM   37  C   UNL     1     -41.350  53.321 -53.494  1.00  0.00     0.049 A 
HETATM   38  C   UNL     1     -40.948  53.424 -52.159  1.00  0.00     0.030 A 
HETATM   39  C   UNL     1     -39.983  52.562 -51.626  1.00  0.00     0.002 A 
HETATM   40  C   UNL     1     -39.410  51.573 -52.421  1.00  0.00     0.000 A 
HETATM   41  C   UNL     1     -39.803  51.446 -53.749  1.00  0.00     0.002 A 
HETATM   42  C   UNL     1     -40.766  52.310 -54.275  1.00  0.00     0.030 A 
ENDBRANCH  35  37
ENDBRANCH   5  35
TORSDOF 8
ENDMDL
