MODEL 1
REMARK VINA RESULT:      -8.5      0.000      0.000
REMARK  9 active torsions:
REMARK  status: ('A' for Active; 'I' for Inactive)
REMARK    1  A    between atoms: C_4  and  S_5 
REMARK    2  A    between atoms: S_5  and  C_6 
REMARK    3  A    between atoms: C_6  and  C_7 
REMARK       I    between atoms: C_7  and  N_8 
REMARK    4  A    between atoms: N_8  and  C_9 
REMARK    5  A    between atoms: C_10  and  O_11 
REMARK    6  A    between atoms: C_16  and  O_17 
REMARK    7  A    between atoms: C_24  and  C_25 
REMARK    8  A    between atoms: C_31  and  C_32 
REMARK       I    between atoms: C_32  and  N_33 
REMARK    9  A    between atoms: N_33  and  C_34 
ROOT
HETATM    1  C   UNL     1     -42.635  56.196 -59.200  1.00  0.00     0.069 C 
HETATM    2  C   UNL     1     -42.815  57.340 -58.236  1.00  0.00     0.019 C 
HETATM    3  N   UNL     1     -42.200  57.197 -57.000  1.00  0.00    -0.353 N 
HETATM    4  C   UNL     1     -42.503  57.965 -55.888  1.00  0.00     0.087 C 
HETATM    5  C   UNL     1     -43.201  59.108 -56.055  1.00  0.00     0.055 C 
HETATM    6  C   UNL     1     -43.687  59.959 -54.892  1.00  0.00     0.019 C 
HETATM    7  N   UNL     1     -44.091  60.664 -53.929  1.00  0.00    -0.096 N 
HETATM    8  C   UNL     1     -43.598  59.579 -57.451  1.00  0.00     0.104 C 
HETATM    9  C   UNL     1     -43.526  58.465 -58.496  1.00  0.00     0.046 C 
HETATM   10  H   UNL     1     -41.723  56.321 -56.805  1.00  0.00     0.166 HD
ENDROOT
BRANCH   4  11
HETATM   11  S   UNL     1     -41.953  57.472 -54.312  1.00  0.00    -0.102 SA
BRANCH  11  12
HETATM   12  C   UNL     1     -43.128  56.118 -53.941  1.00  0.00     0.184 C 
BRANCH  12  13
HETATM   13  C   UNL     1     -42.420  54.834 -54.336  1.00  0.00     0.231 C 
HETATM   14  N   UNL     1     -41.126  54.772 -53.853  1.00  0.00    -0.324 N 
HETATM   15  H   UNL     1     -40.569  55.619 -53.803  1.00  0.00     0.169 HD
HETATM   16  O   UNL     1     -43.001  53.913 -54.905  1.00  0.00    -0.272 OA
BRANCH  14  17
HETATM   17  C   UNL     1     -40.589  53.681 -53.132  1.00  0.00     0.071 A 
HETATM   18  C   UNL     1     -40.656  53.737 -51.730  1.00  0.00     0.096 A 
HETATM   19  C   UNL     1     -40.299  52.620 -50.977  1.00  0.00     0.065 A 
HETATM   20  C   UNL     1     -39.862  51.457 -51.621  1.00  0.00     0.070 A 
HETATM   21 CL   UNL     1     -39.481  50.087 -50.633  1.00  0.00    -0.081 Cl
HETATM   22  C   UNL     1     -39.761  51.398 -53.019  1.00  0.00     0.092 A 
HETATM   23  C   UNL     1     -40.117  52.525 -53.765  1.00  0.00     0.071 A 
BRANCH  18  24
HETATM   24  O   UNL     1     -41.146  54.903 -51.189  1.00  0.00    -0.354 OA
HETATM   25  C   UNL     1     -42.368  54.761 -50.467  1.00  0.00     0.210 C 
ENDBRANCH  18  24
BRANCH  22  26
HETATM   26  O   UNL     1     -39.345  50.211 -53.565  1.00  0.00    -0.354 OA
HETATM   27  C   UNL     1     -39.881  49.843 -54.832  1.00  0.00     0.210 C 
ENDBRANCH  22  26
ENDBRANCH  14  17
ENDBRANCH  12  13
ENDBRANCH  11  12
ENDBRANCH   4  11
BRANCH   8  28
HETATM   28  C   UNL     1     -42.746  60.796 -57.833  1.00  0.00    -0.044 A 
HETATM   29  C   UNL     1     -41.379  60.667 -58.139  1.00  0.00     0.008 A 
HETATM   30  C   UNL     1     -40.613  61.785 -58.468  1.00  0.00     0.001 A 
HETATM   31  C   UNL     1     -41.197  63.049 -58.484  1.00  0.00     0.000 A 
HETATM   32  C   UNL     1     -42.545  63.196 -58.169  1.00  0.00     0.001 A 
HETATM   33  C   UNL     1     -43.317  62.079 -57.843  1.00  0.00     0.008 A 
ENDBRANCH   8  28
BRANCH   9  34
HETATM   34  C   UNL     1     -44.428  58.543 -59.691  1.00  0.00     0.255 C 
HETATM   35  N   UNL     1     -45.710  58.100 -59.466  1.00  0.00    -0.323 N 
HETATM   36  H   UNL     1     -45.970  57.855 -58.519  1.00  0.00     0.169 HD
HETATM   37  O   UNL     1     -43.964  58.918 -60.764  1.00  0.00    -0.268 OA
BRANCH  35  38
HETATM   38  C   UNL     1     -46.730  57.912 -60.423  1.00  0.00     0.035 A 
HETATM   39  C   UNL     1     -47.088  56.671 -60.953  1.00  0.00     0.029 A 
HETATM   40  C   UNL     1     -48.127  56.569 -61.882  1.00  0.00     0.002 A 
HETATM   41  C   UNL     1     -48.825  57.705 -62.284  1.00  0.00     0.000 A 
HETATM   42  C   UNL     1     -48.476  58.949 -61.763  1.00  0.00     0.002 A 
HETATM   43  C   UNL     1     -47.429  59.051 -60.843  1.00  0.00     0.029 A 
ENDBRANCH  35  38
ENDBRANCH   9  34
TORSDOF 9
ENDMDL
MODEL 2
REMARK VINA RESULT:      -8.3      1.994      5.014
REMARK  9 active torsions:
REMARK  status: ('A' for Active; 'I' for Inactive)
REMARK    1  A    between atoms: C_4  and  S_5 
REMARK    2  A    between atoms: S_5  and  C_6 
REMARK    3  A    between atoms: C_6  and  C_7 
REMARK       I    between atoms: C_7  and  N_8 
REMARK    4  A    between atoms: N_8  and  C_9 
REMARK    5  A    between atoms: C_10  and  O_11 
REMARK    6  A    between atoms: C_16  and  O_17 
REMARK    7  A    between atoms: C_24  and  C_25 
REMARK    8  A    between atoms: C_31  and  C_32 
REMARK       I    between atoms: C_32  and  N_33 
REMARK    9  A    between atoms: N_33  and  C_34 
ROOT
HETATM    1  C   UNL     1     -43.792  61.887 -56.006  1.00  0.00     0.069 C 
HETATM    2  C   UNL     1     -43.679  60.403 -56.245  1.00  0.00     0.019 C 
HETATM    3  N   UNL     1     -43.849  59.593 -55.131  1.00  0.00    -0.353 N 
HETATM    4  C   UNL     1     -43.475  58.262 -55.074  1.00  0.00     0.087 C 
HETATM    5  C   UNL     1     -43.208  57.609 -56.226  1.00  0.00     0.055 C 
HETATM    6  C   UNL     1     -42.674  56.186 -56.266  1.00  0.00     0.019 C 
HETATM    7  N   UNL     1     -42.231  55.007 -56.301  1.00  0.00    -0.096 N 
HETATM    8  C   UNL     1     -43.375  58.309 -57.571  1.00  0.00     0.104 C 
HETATM    9  C   UNL     1     -43.421  59.832 -57.447  1.00  0.00     0.046 C 
HETATM   10  H   UNL     1     -43.982  60.045 -54.230  1.00  0.00     0.166 HD
ENDROOT
BRANCH   4  11
HETATM   11  S   UNL     1     -43.390  57.443 -53.540  1.00  0.00    -0.102 SA
BRANCH  11  12
HETATM   12  C   UNL     1     -41.606  57.602 -53.160  1.00  0.00     0.184 C 
BRANCH  12  13
HETATM   13  C   UNL     1     -41.357  56.708 -51.958  1.00  0.00     0.231 C 
HETATM   14  N   UNL     1     -41.852  55.429 -52.136  1.00  0.00    -0.324 N 
HETATM   15  H   UNL     1     -42.717  55.295 -52.650  1.00  0.00     0.169 HD
HETATM   16  O   UNL     1     -40.670  57.066 -51.005  1.00  0.00    -0.272 OA
BRANCH  14  17
HETATM   17  C   UNL     1     -41.112  54.243 -51.927  1.00  0.00     0.071 A 
HETATM   18  C   UNL     1     -41.093  53.713 -50.627  1.00  0.00     0.096 A 
HETATM   19  C   UNL     1     -40.524  52.461 -50.400  1.00  0.00     0.065 A 
HETATM   20  C   UNL     1     -39.962  51.749 -51.465  1.00  0.00     0.070 A 
HETATM   21 CL   UNL     1     -39.317  50.178 -51.129  1.00  0.00    -0.081 Cl
HETATM   22  C   UNL     1     -39.946  52.280 -52.763  1.00  0.00     0.092 A 
HETATM   23  C   UNL     1     -40.515  53.538 -52.979  1.00  0.00     0.071 A 
BRANCH  18  24
HETATM   24  O   UNL     1     -41.715  54.461 -49.653  1.00  0.00    -0.354 OA
HETATM   25  C   UNL     1     -40.934  54.685 -48.480  1.00  0.00     0.210 C 
ENDBRANCH  18  24
BRANCH  22  26
HETATM   26  O   UNL     1     -39.395  51.503 -53.749  1.00  0.00    -0.354 OA
HETATM   27  C   UNL     1     -40.236  50.541 -54.379  1.00  0.00     0.210 C 
ENDBRANCH  22  26
ENDBRANCH  14  17
ENDBRANCH  12  13
ENDBRANCH  11  12
ENDBRANCH   4  11
BRANCH   8  28
HETATM   28  C   UNL     1     -44.609  57.741 -58.284  1.00  0.00    -0.044 A 
HETATM   29  C   UNL     1     -44.488  56.786 -59.309  1.00  0.00     0.008 A 
HETATM   30  C   UNL     1     -45.618  56.290 -59.960  1.00  0.00     0.001 A 
HETATM   31  C   UNL     1     -46.883  56.751 -59.607  1.00  0.00     0.000 A 
HETATM   32  C   UNL     1     -47.019  57.708 -58.603  1.00  0.00     0.001 A 
HETATM   33  C   UNL     1     -45.891  58.203 -57.946  1.00  0.00     0.008 A 
ENDBRANCH   8  28
BRANCH   9  34
HETATM   34  C   UNL     1     -42.957  60.661 -58.606  1.00  0.00     0.255 C 
HETATM   35  N   UNL     1     -41.602  60.895 -58.633  1.00  0.00    -0.323 N 
HETATM   36  H   UNL     1     -41.024  60.425 -57.947  1.00  0.00     0.169 HD
HETATM   37  O   UNL     1     -43.790  61.113 -59.386  1.00  0.00    -0.268 OA
BRANCH  35  38
HETATM   38  C   UNL     1     -40.900  61.756 -59.503  1.00  0.00     0.035 A 
HETATM   39  C   UNL     1     -41.105  61.813 -60.882  1.00  0.00     0.029 A 
HETATM   40  C   UNL     1     -40.380  62.712 -61.671  1.00  0.00     0.002 A 
HETATM   41  C   UNL     1     -39.450  63.569 -61.087  1.00  0.00     0.000 A 
HETATM   42  C   UNL     1     -39.237  63.519 -59.711  1.00  0.00     0.002 A 
HETATM   43  C   UNL     1     -39.952  62.612 -58.926  1.00  0.00     0.029 A 
ENDBRANCH  35  38
ENDBRANCH   9  34
TORSDOF 9
ENDMDL
MODEL 3
REMARK VINA RESULT:      -8.1      3.505      9.178
REMARK  9 active torsions:
REMARK  status: ('A' for Active; 'I' for Inactive)
REMARK    1  A    between atoms: C_4  and  S_5 
REMARK    2  A    between atoms: S_5  and  C_6 
REMARK    3  A    between atoms: C_6  and  C_7 
REMARK       I    between atoms: C_7  and  N_8 
REMARK    4  A    between atoms: N_8  and  C_9 
REMARK    5  A    between atoms: C_10  and  O_11 
REMARK    6  A    between atoms: C_16  and  O_17 
REMARK    7  A    between atoms: C_24  and  C_25 
REMARK    8  A    between atoms: C_31  and  C_32 
REMARK       I    between atoms: C_32  and  N_33 
REMARK    9  A    between atoms: N_33  and  C_34 
ROOT
HETATM    1  C   UNL     1     -41.864  58.193 -53.035  1.00  0.00     0.069 C 
HETATM    2  C   UNL     1     -42.790  58.244 -54.222  1.00  0.00     0.019 C 
HETATM    3  N   UNL     1     -43.278  59.499 -54.560  1.00  0.00    -0.353 N 
HETATM    4  C   UNL     1     -44.364  59.712 -55.392  1.00  0.00     0.087 C 
HETATM    5  C   UNL     1     -44.804  58.695 -56.165  1.00  0.00     0.055 C 
HETATM    6  C   UNL     1     -46.057  58.788 -57.020  1.00  0.00     0.019 C 
HETATM    7  N   UNL     1     -47.096  58.864 -57.729  1.00  0.00    -0.096 N 
HETATM    8  C   UNL     1     -44.079  57.353 -56.168  1.00  0.00     0.104 C 
HETATM    9  C   UNL     1     -43.168  57.167 -54.954  1.00  0.00     0.046 C 
HETATM   10  H   UNL     1     -43.030  60.282 -53.962  1.00  0.00     0.166 HD
ENDROOT
BRANCH   4  11
HETATM   11  S   UNL     1     -45.118  61.280 -55.459  1.00  0.00    -0.102 SA
BRANCH  11  12
HETATM   12  C   UNL     1     -43.741  62.350 -54.901  1.00  0.00     0.184 C 
BRANCH  12  13
HETATM   13  C   UNL     1     -43.226  63.048 -56.148  1.00  0.00     0.231 C 
HETATM   14  N   UNL     1     -42.370  62.252 -56.886  1.00  0.00    -0.324 N 
HETATM   15  H   UNL     1     -41.738  61.619 -56.407  1.00  0.00     0.169 HD
HETATM   16  O   UNL     1     -43.647  64.145 -56.507  1.00  0.00    -0.272 OA
BRANCH  14  17
HETATM   17  C   UNL     1     -42.494  62.007 -58.273  1.00  0.00     0.071 A 
HETATM   18  C   UNL     1     -41.352  62.204 -59.068  1.00  0.00     0.096 A 
HETATM   19  C   UNL     1     -41.369  61.817 -60.407  1.00  0.00     0.065 A 
HETATM   20  C   UNL     1     -42.526  61.251 -60.953  1.00  0.00     0.070 A 
HETATM   21 CL   UNL     1     -42.467  60.744 -62.607  1.00  0.00    -0.081 Cl
HETATM   22  C   UNL     1     -43.682  61.077 -60.179  1.00  0.00     0.092 A 
HETATM   23  C   UNL     1     -43.657  61.472 -58.838  1.00  0.00     0.071 A 
BRANCH  18  24
HETATM   24  O   UNL     1     -40.247  62.720 -58.432  1.00  0.00    -0.354 OA
HETATM   25  C   UNL     1     -39.301  63.353 -59.292  1.00  0.00     0.210 C 
ENDBRANCH  18  24
BRANCH  22  26
HETATM   26  O   UNL     1     -44.761  60.492 -60.791  1.00  0.00    -0.354 OA
HETATM   27  C   UNL     1     -45.006  59.115 -60.523  1.00  0.00     0.210 C 
ENDBRANCH  22  26
ENDBRANCH  14  17
ENDBRANCH  12  13
ENDBRANCH  11  12
ENDBRANCH   4  11
BRANCH   8  28
HETATM   28  C   UNL     1     -43.327  57.190 -57.496  1.00  0.00    -0.044 A 
HETATM   29  C   UNL     1     -42.423  58.168 -57.950  1.00  0.00     0.008 A 
HETATM   30  C   UNL     1     -41.759  58.014 -59.167  1.00  0.00     0.001 A 
HETATM   31  C   UNL     1     -41.997  56.890 -59.953  1.00  0.00     0.000 A 
HETATM   32  C   UNL     1     -42.899  55.920 -59.524  1.00  0.00     0.001 A 
HETATM   33  C   UNL     1     -43.563  56.067 -58.305  1.00  0.00     0.008 A 
ENDBRANCH   8  28
BRANCH   9  34
HETATM   34  C   UNL     1     -42.898  55.776 -54.467  1.00  0.00     0.255 C 
HETATM   35  N   UNL     1     -41.577  55.516 -54.188  1.00  0.00    -0.323 N 
HETATM   36  H   UNL     1     -40.920  56.285 -54.236  1.00  0.00     0.169 HD
HETATM   37  O   UNL     1     -43.825  54.973 -54.414  1.00  0.00    -0.268 OA
BRANCH  35  38
HETATM   38  C   UNL     1     -41.000  54.269 -53.862  1.00  0.00     0.035 A 
HETATM   39  C   UNL     1     -40.572  53.334 -54.805  1.00  0.00     0.029 A 
HETATM   40  C   UNL     1     -39.990  52.130 -54.396  1.00  0.00     0.002 A 
HETATM   41  C   UNL     1     -39.821  51.855 -53.042  1.00  0.00     0.000 A 
HETATM   42  C   UNL     1     -40.245  52.781 -52.092  1.00  0.00     0.002 A 
HETATM   43  C   UNL     1     -40.838  53.978 -52.500  1.00  0.00     0.029 A 
ENDBRANCH  35  38
ENDBRANCH   9  34
TORSDOF 9
ENDMDL
MODEL 4
REMARK VINA RESULT:      -8.1      4.298      8.533
REMARK  9 active torsions:
REMARK  status: ('A' for Active; 'I' for Inactive)
REMARK    1  A    between atoms: C_4  and  S_5 
REMARK    2  A    between atoms: S_5  and  C_6 
REMARK    3  A    between atoms: C_6  and  C_7 
REMARK       I    between atoms: C_7  and  N_8 
REMARK    4  A    between atoms: N_8  and  C_9 
REMARK    5  A    between atoms: C_10  and  O_11 
REMARK    6  A    between atoms: C_16  and  O_17 
REMARK    7  A    between atoms: C_24  and  C_25 
REMARK    8  A    between atoms: C_31  and  C_32 
REMARK       I    between atoms: C_32  and  N_33 
REMARK    9  A    between atoms: N_33  and  C_34 
ROOT
HETATM    1  C   UNL     1     -40.594  58.815 -53.427  1.00  0.00     0.069 C 
HETATM    2  C   UNL     1     -41.677  58.924 -54.470  1.00  0.00     0.019 C 
HETATM    3  N   UNL     1     -41.948  60.204 -54.934  1.00  0.00    -0.353 N 
HETATM    4  C   UNL     1     -43.092  60.550 -55.633  1.00  0.00     0.087 C 
HETATM    5  C   UNL     1     -43.854  59.570 -56.166  1.00  0.00     0.055 C 
HETATM    6  C   UNL     1     -45.188  59.835 -56.845  1.00  0.00     0.019 C 
HETATM    7  N   UNL     1     -46.294  60.054 -57.407  1.00  0.00    -0.096 N 
HETATM    8  C   UNL     1     -43.429  58.109 -56.053  1.00  0.00     0.104 C 
HETATM    9  C   UNL     1     -42.384  57.877 -54.961  1.00  0.00     0.046 C 
HETATM   10  H   UNL     1     -41.448  60.980 -54.510  1.00  0.00     0.166 HD
ENDROOT
BRANCH   4  11
HETATM   11  S   UNL     1     -43.510  62.226 -55.847  1.00  0.00    -0.102 SA
BRANCH  11  12
HETATM   12  C   UNL     1     -43.507  62.809 -54.111  1.00  0.00     0.184 C 
BRANCH  12  13
HETATM   13  C   UNL     1     -44.553  61.976 -53.392  1.00  0.00     0.231 C 
HETATM   14  N   UNL     1     -44.030  61.280 -52.318  1.00  0.00    -0.324 N 
HETATM   15  H   UNL     1     -43.089  60.904 -52.375  1.00  0.00     0.169 HD
HETATM   16  O   UNL     1     -45.747  62.040 -53.671  1.00  0.00    -0.272 OA
BRANCH  14  17
HETATM   17  C   UNL     1     -44.571  61.292 -51.012  1.00  0.00     0.071 A 
HETATM   18  C   UNL     1     -45.232  60.131 -50.575  1.00  0.00     0.096 A 
HETATM   19  C   UNL     1     -45.633  60.025 -49.244  1.00  0.00     0.065 A 
HETATM   20  C   UNL     1     -45.389  61.079 -48.358  1.00  0.00     0.070 A 
HETATM   21 CL   UNL     1     -45.865  60.866 -46.707  1.00  0.00    -0.081 Cl
HETATM   22  C   UNL     1     -44.757  62.256 -48.787  1.00  0.00     0.092 A 
HETATM   23  C   UNL     1     -44.363  62.355 -50.125  1.00  0.00     0.071 A 
BRANCH  18  24
HETATM   24  O   UNL     1     -45.382  59.128 -51.505  1.00  0.00    -0.354 OA
HETATM   25  C   UNL     1     -44.789  57.882 -51.142  1.00  0.00     0.210 C 
ENDBRANCH  18  24
BRANCH  22  26
HETATM   26  O   UNL     1     -44.539  63.227 -47.845  1.00  0.00    -0.354 OA
HETATM   27  C   UNL     1     -44.080  64.497 -48.299  1.00  0.00     0.210 C 
ENDBRANCH  22  26
ENDBRANCH  14  17
ENDBRANCH  12  13
ENDBRANCH  11  12
ENDBRANCH   4  11
BRANCH   8  28
HETATM   28  C   UNL     1     -42.962  57.613 -57.427  1.00  0.00    -0.044 A 
HETATM   29  C   UNL     1     -42.161  58.415 -58.261  1.00  0.00     0.008 A 
HETATM   30  C   UNL     1     -41.757  57.957 -59.515  1.00  0.00     0.001 A 
HETATM   31  C   UNL     1     -42.157  56.700 -59.960  1.00  0.00     0.000 A 
HETATM   32  C   UNL     1     -42.961  55.900 -59.152  1.00  0.00     0.001 A 
HETATM   33  C   UNL     1     -43.364  56.352 -57.894  1.00  0.00     0.008 A 
ENDBRANCH   8  28
BRANCH   9  34
HETATM   34  C   UNL     1     -42.326  56.534 -54.298  1.00  0.00     0.255 C 
HETATM   35  N   UNL     1     -41.092  55.930 -54.342  1.00  0.00    -0.323 N 
HETATM   36  H   UNL     1     -40.315  56.460 -54.718  1.00  0.00     0.169 HD
HETATM   37  O   UNL     1     -43.357  56.052 -53.837  1.00  0.00    -0.268 OA
BRANCH  35  38
HETATM   38  C   UNL     1     -40.767  54.615 -53.943  1.00  0.00     0.035 A 
HETATM   39  C   UNL     1     -40.461  53.581 -54.828  1.00  0.00     0.029 A 
HETATM   40  C   UNL     1     -40.129  52.311 -54.348  1.00  0.00     0.002 A 
HETATM   41  C   UNL     1     -40.090  52.065 -52.978  1.00  0.00     0.000 A 
HETATM   42  C   UNL     1     -40.394  53.090 -52.085  1.00  0.00     0.002 A 
HETATM   43  C   UNL     1     -40.738  54.355 -52.566  1.00  0.00     0.029 A 
ENDBRANCH  35  38
ENDBRANCH   9  34
TORSDOF 9
ENDMDL
MODEL 5
REMARK VINA RESULT:      -8.0      2.317      4.661
REMARK  9 active torsions:
REMARK  status: ('A' for Active; 'I' for Inactive)
REMARK    1  A    between atoms: C_4  and  S_5 
REMARK    2  A    between atoms: S_5  and  C_6 
REMARK    3  A    between atoms: C_6  and  C_7 
REMARK       I    between atoms: C_7  and  N_8 
REMARK    4  A    between atoms: N_8  and  C_9 
REMARK    5  A    between atoms: C_10  and  O_11 
REMARK    6  A    between atoms: C_16  and  O_17 
REMARK    7  A    between atoms: C_24  and  C_25 
REMARK    8  A    between atoms: C_31  and  C_32 
REMARK       I    between atoms: C_32  and  N_33 
REMARK    9  A    between atoms: N_33  and  C_34 
ROOT
HETATM    1  C   UNL     1     -42.972  61.595 -55.133  1.00  0.00     0.069 C 
HETATM    2  C   UNL     1     -43.226  60.136 -55.412  1.00  0.00     0.019 C 
HETATM    3  N   UNL     1     -43.690  59.384 -54.341  1.00  0.00    -0.353 N 
HETATM    4  C   UNL     1     -43.677  58.000 -54.302  1.00  0.00     0.087 C 
HETATM    5  C   UNL     1     -43.495  57.315 -55.451  1.00  0.00     0.055 C 
HETATM    6  C   UNL     1     -43.345  55.803 -55.500  1.00  0.00     0.019 C 
HETATM    7  N   UNL     1     -43.220  54.550 -55.540  1.00  0.00    -0.096 N 
HETATM    8  C   UNL     1     -43.367  58.052 -56.781  1.00  0.00     0.104 C 
HETATM    9  C   UNL     1     -43.029  59.533 -56.610  1.00  0.00     0.046 C 
HETATM   10  H   UNL     1     -43.773  59.843 -53.438  1.00  0.00     0.166 HD
ENDROOT
BRANCH   4  11
HETATM   11  S   UNL     1     -43.931  57.168 -52.794  1.00  0.00    -0.102 SA
BRANCH  11  12
HETATM   12  C   UNL     1     -42.822  58.114 -51.685  1.00  0.00     0.184 C 
BRANCH  12  13
HETATM   13  C   UNL     1     -42.112  57.081 -50.828  1.00  0.00     0.231 C 
HETATM   14  N   UNL     1     -42.485  55.786 -51.140  1.00  0.00    -0.324 N 
HETATM   15  H   UNL     1     -43.443  55.593 -51.411  1.00  0.00     0.169 HD
HETATM   16  O   UNL     1     -41.213  57.382 -50.047  1.00  0.00    -0.272 OA
BRANCH  14  17
HETATM   17  C   UNL     1     -41.581  54.733 -51.412  1.00  0.00     0.071 A 
HETATM   18  C   UNL     1     -41.190  53.922 -50.334  1.00  0.00     0.096 A 
HETATM   19  C   UNL     1     -40.440  52.772 -50.573  1.00  0.00     0.065 A 
HETATM   20  C   UNL     1     -40.070  52.442 -51.881  1.00  0.00     0.070 A 
HETATM   21 CL   UNL     1     -39.183  50.974 -52.117  1.00  0.00    -0.081 Cl
HETATM   22  C   UNL     1     -40.428  53.259 -52.963  1.00  0.00     0.092 A 
HETATM   23  C   UNL     1     -41.176  54.413 -52.713  1.00  0.00     0.071 A 
BRANCH  18  24
HETATM   24  O   UNL     1     -41.644  54.298 -49.091  1.00  0.00    -0.354 OA
HETATM   25  C   UNL     1     -40.655  54.283 -48.063  1.00  0.00     0.210 C 
ENDBRANCH  18  24
BRANCH  22  26
HETATM   26  O   UNL     1     -40.041  52.845 -54.212  1.00  0.00    -0.354 OA
HETATM   27  C   UNL     1     -40.064  53.807 -55.263  1.00  0.00     0.210 C 
ENDBRANCH  22  26
ENDBRANCH  14  17
ENDBRANCH  12  13
ENDBRANCH  11  12
ENDBRANCH   4  11
BRANCH   8  28
HETATM   28  C   UNL     1     -44.645  57.834 -57.602  1.00  0.00    -0.044 A 
HETATM   29  C   UNL     1     -45.887  58.330 -57.169  1.00  0.00     0.008 A 
HETATM   30  C   UNL     1     -47.044  58.110 -57.918  1.00  0.00     0.001 A 
HETATM   31  C   UNL     1     -46.978  57.380 -59.101  1.00  0.00     0.000 A 
HETATM   32  C   UNL     1     -45.758  56.869 -59.537  1.00  0.00     0.001 A 
HETATM   33  C   UNL     1     -44.597  57.091 -58.793  1.00  0.00     0.008 A 
ENDBRANCH   8  28
BRANCH   9  34
HETATM   34  C   UNL     1     -42.275  60.228 -57.703  1.00  0.00     0.255 C 
HETATM   35  N   UNL     1     -43.055  60.654 -58.752  1.00  0.00    -0.323 N 
HETATM   36  H   UNL     1     -44.059  60.559 -58.668  1.00  0.00     0.169 HD
HETATM   37  O   UNL     1     -41.052  60.308 -57.625  1.00  0.00    -0.268 OA
BRANCH  35  38
HETATM   38  C   UNL     1     -42.616  61.196 -59.979  1.00  0.00     0.035 A 
HETATM   39  C   UNL     1     -42.383  60.442 -61.130  1.00  0.00     0.029 A 
HETATM   40  C   UNL     1     -41.970  61.062 -62.313  1.00  0.00     0.002 A 
HETATM   41  C   UNL     1     -41.797  62.443 -62.360  1.00  0.00     0.000 A 
HETATM   42  C   UNL     1     -42.027  63.205 -61.217  1.00  0.00     0.002 A 
HETATM   43  C   UNL     1     -42.427  62.584 -60.032  1.00  0.00     0.029 A 
ENDBRANCH  35  38
ENDBRANCH   9  34
TORSDOF 9
ENDMDL
MODEL 6
REMARK VINA RESULT:      -7.8      1.918      2.904
REMARK  9 active torsions:
REMARK  status: ('A' for Active; 'I' for Inactive)
REMARK    1  A    between atoms: C_4  and  S_5 
REMARK    2  A    between atoms: S_5  and  C_6 
REMARK    3  A    between atoms: C_6  and  C_7 
REMARK       I    between atoms: C_7  and  N_8 
REMARK    4  A    between atoms: N_8  and  C_9 
REMARK    5  A    between atoms: C_10  and  O_11 
REMARK    6  A    between atoms: C_16  and  O_17 
REMARK    7  A    between atoms: C_24  and  C_25 
REMARK    8  A    between atoms: C_31  and  C_32 
REMARK       I    between atoms: C_32  and  N_33 
REMARK    9  A    between atoms: N_33  and  C_34 
ROOT
HETATM    1  C   UNL     1     -43.433  56.334 -57.975  1.00  0.00     0.069 C 
HETATM    2  C   UNL     1     -43.522  57.777 -57.547  1.00  0.00     0.019 C 
HETATM    3  N   UNL     1     -43.121  58.051 -56.247  1.00  0.00    -0.353 N 
HETATM    4  C   UNL     1     -43.420  59.223 -55.573  1.00  0.00     0.087 C 
HETATM    5  C   UNL     1     -43.859  60.288 -56.278  1.00  0.00     0.055 C 
HETATM    6  C   UNL     1     -44.328  61.577 -55.624  1.00  0.00     0.019 C 
HETATM    7  N   UNL     1     -44.718  62.647 -55.082  1.00  0.00    -0.096 N 
HETATM    8  C   UNL     1     -43.964  60.222 -57.798  1.00  0.00     0.104 C 
HETATM    9  C   UNL     1     -43.963  58.790 -58.332  1.00  0.00     0.046 C 
HETATM   10  H   UNL     1     -42.850  57.269 -55.657  1.00  0.00     0.166 HD
ENDROOT
BRANCH   4  11
HETATM   11  S   UNL     1     -43.195  59.320 -53.849  1.00  0.00    -0.102 SA
BRANCH  11  12
HETATM   12  C   UNL     1     -41.368  59.388 -53.741  1.00  0.00     0.184 C 
BRANCH  12  13
HETATM   13  C   UNL     1     -41.002  58.679 -52.450  1.00  0.00     0.231 C 
HETATM   14  N   UNL     1     -41.889  57.667 -52.130  1.00  0.00    -0.324 N 
HETATM   15  H   UNL     1     -42.875  57.781 -52.340  1.00  0.00     0.169 HD
HETATM   16  O   UNL     1     -39.956  58.908 -51.849  1.00  0.00    -0.272 OA
BRANCH  14  17
HETATM   17  C   UNL     1     -41.515  56.343 -51.806  1.00  0.00     0.071 A 
HETATM   18  C   UNL     1     -41.674  55.363 -52.800  1.00  0.00     0.096 A 
HETATM   19  C   UNL     1     -41.166  54.082 -52.595  1.00  0.00     0.065 A 
HETATM   20  C   UNL     1     -40.516  53.776 -51.395  1.00  0.00     0.070 A 
HETATM   21 CL   UNL     1     -39.862  52.182 -51.221  1.00  0.00    -0.081 Cl
HETATM   22  C   UNL     1     -40.377  54.735 -50.381  1.00  0.00     0.092 A 
HETATM   23  C   UNL     1     -40.894  56.016 -50.595  1.00  0.00     0.071 A 
BRANCH  18  24
HETATM   24  O   UNL     1     -42.281  55.771 -53.966  1.00  0.00    -0.354 OA
HETATM   25  C   UNL     1     -43.367  54.952 -54.394  1.00  0.00     0.210 C 
ENDBRANCH  18  24
BRANCH  22  26
HETATM   26  O   UNL     1     -39.705  54.353 -49.248  1.00  0.00    -0.354 OA
HETATM   27  C   UNL     1     -40.482  53.993 -48.110  1.00  0.00     0.210 C 
ENDBRANCH  22  26
ENDBRANCH  14  17
ENDBRANCH  12  13
ENDBRANCH  11  12
ENDBRANCH   4  11
BRANCH   8  28
HETATM   28  C   UNL     1     -42.852  61.079 -58.417  1.00  0.00    -0.044 A 
HETATM   29  C   UNL     1     -43.083  61.862 -59.563  1.00  0.00     0.008 A 
HETATM   30  C   UNL     1     -42.058  62.623 -60.125  1.00  0.00     0.001 A 
HETATM   31  C   UNL     1     -40.786  62.603 -59.561  1.00  0.00     0.000 A 
HETATM   32  C   UNL     1     -40.537  61.822 -58.435  1.00  0.00     0.001 A 
HETATM   33  C   UNL     1     -41.561  61.062 -57.866  1.00  0.00     0.008 A 
ENDBRANCH   8  28
BRANCH   9  34
HETATM   34  C   UNL     1     -44.662  58.507 -59.628  1.00  0.00     0.255 C 
HETATM   35  N   UNL     1     -46.034  58.510 -59.547  1.00  0.00    -0.323 N 
HETATM   36  H   UNL     1     -46.460  58.791 -58.673  1.00  0.00     0.169 HD
HETATM   37  O   UNL     1     -43.991  58.236 -60.620  1.00  0.00    -0.268 OA
BRANCH  35  38
HETATM   38  C   UNL     1     -46.952  58.132 -60.552  1.00  0.00     0.035 A 
HETATM   39  C   UNL     1     -47.247  56.810 -60.886  1.00  0.00     0.029 A 
HETATM   40  C   UNL     1     -48.187  56.522 -61.881  1.00  0.00     0.002 A 
HETATM   41  C   UNL     1     -48.846  57.553 -62.544  1.00  0.00     0.000 A 
HETATM   42  C   UNL     1     -48.558  58.877 -62.220  1.00  0.00     0.002 A 
HETATM   43  C   UNL     1     -47.610  59.164 -61.235  1.00  0.00     0.029 A 
ENDBRANCH  35  38
ENDBRANCH   9  34
TORSDOF 9
ENDMDL
MODEL 7
REMARK VINA RESULT:      -7.8      2.138      2.914
REMARK  9 active torsions:
REMARK  status: ('A' for Active; 'I' for Inactive)
REMARK    1  A    between atoms: C_4  and  S_5 
REMARK    2  A    between atoms: S_5  and  C_6 
REMARK    3  A    between atoms: C_6  and  C_7 
REMARK       I    between atoms: C_7  and  N_8 
REMARK    4  A    between atoms: N_8  and  C_9 
REMARK    5  A    between atoms: C_10  and  O_11 
REMARK    6  A    between atoms: C_16  and  O_17 
REMARK    7  A    between atoms: C_24  and  C_25 
REMARK    8  A    between atoms: C_31  and  C_32 
REMARK       I    between atoms: C_32  and  N_33 
REMARK    9  A    between atoms: N_33  and  C_34 
ROOT
HETATM    1  C   UNL     1     -43.429  56.291 -55.451  1.00  0.00     0.069 C 
HETATM    2  C   UNL     1     -43.413  57.791 -55.307  1.00  0.00     0.019 C 
HETATM    3  N   UNL     1     -42.570  58.299 -54.328  1.00  0.00    -0.353 N 
HETATM    4  C   UNL     1     -42.647  59.589 -53.829  1.00  0.00     0.087 C 
HETATM    5  C   UNL     1     -43.359  60.511 -54.512  1.00  0.00     0.055 C 
HETATM    6  C   UNL     1     -43.605  61.918 -53.991  1.00  0.00     0.019 C 
HETATM    7  N   UNL     1     -43.811  63.084 -53.560  1.00  0.00    -0.096 N 
HETATM    8  C   UNL     1     -44.017  60.155 -55.841  1.00  0.00     0.104 C 
HETATM    9  C   UNL     1     -44.155  58.647 -56.051  1.00  0.00     0.046 C 
HETATM   10  H   UNL     1     -42.068  57.637 -53.742  1.00  0.00     0.166 HD
ENDROOT
BRANCH   4  11
HETATM   11  S   UNL     1     -41.803  60.011 -52.366  1.00  0.00    -0.102 SA
BRANCH  11  12
HETATM   12  C   UNL     1     -42.549  58.830 -51.182  1.00  0.00     0.184 C 
BRANCH  12  13
HETATM   13  C   UNL     1     -41.404  57.971 -50.676  1.00  0.00     0.231 C 
HETATM   14  N   UNL     1     -41.796  56.675 -50.397  1.00  0.00    -0.324 N 
HETATM   15  H   UNL     1     -42.718  56.503 -50.010  1.00  0.00     0.169 HD
HETATM   16  O   UNL     1     -40.243  58.371 -50.656  1.00  0.00    -0.272 OA
BRANCH  14  17
HETATM   17  C   UNL     1     -41.145  55.516 -50.880  1.00  0.00     0.071 A 
HETATM   18  C   UNL     1     -40.664  54.601 -49.929  1.00  0.00     0.096 A 
HETATM   19  C   UNL     1     -40.169  53.367 -50.347  1.00  0.00     0.065 A 
HETATM   20  C   UNL     1     -40.140  53.055 -51.711  1.00  0.00     0.070 A 
HETATM   21 CL   UNL     1     -39.561  51.488 -52.163  1.00  0.00    -0.081 Cl
HETATM   22  C   UNL     1     -40.588  53.972 -52.673  1.00  0.00     0.092 A 
HETATM   23  C   UNL     1     -41.078  55.209 -52.243  1.00  0.00     0.071 A 
BRANCH  18  24
HETATM   24  O   UNL     1     -40.781  54.974 -48.609  1.00  0.00    -0.354 OA
HETATM   25  C   UNL     1     -40.324  54.003 -47.670  1.00  0.00     0.210 C 
ENDBRANCH  18  24
BRANCH  22  26
HETATM   26  O   UNL     1     -40.543  53.573 -53.984  1.00  0.00    -0.354 OA
HETATM   27  C   UNL     1     -41.765  53.165 -54.592  1.00  0.00     0.210 C 
ENDBRANCH  22  26
ENDBRANCH  14  17
ENDBRANCH  12  13
ENDBRANCH  11  12
ENDBRANCH   4  11
BRANCH   8  28
HETATM   28  C   UNL     1     -43.250  60.838 -56.981  1.00  0.00    -0.044 A 
HETATM   29  C   UNL     1     -43.815  61.900 -57.711  1.00  0.00     0.008 A 
HETATM   30  C   UNL     1     -43.113  62.500 -58.756  1.00  0.00     0.001 A 
HETATM   31  C   UNL     1     -41.844  62.041 -59.096  1.00  0.00     0.000 A 
HETATM   32  C   UNL     1     -41.276  60.981 -58.393  1.00  0.00     0.001 A 
HETATM   33  C   UNL     1     -41.973  60.380 -57.344  1.00  0.00     0.008 A 
ENDBRANCH   8  28
BRANCH   9  34
HETATM   34  C   UNL     1     -45.272  58.142 -56.914  1.00  0.00     0.255 C 
HETATM   35  N   UNL     1     -44.937  57.968 -58.236  1.00  0.00    -0.323 N 
HETATM   36  H   UNL     1     -43.968  58.094 -58.502  1.00  0.00     0.169 HD
HETATM   37  O   UNL     1     -46.385  57.987 -56.418  1.00  0.00    -0.268 OA
BRANCH  35  38
HETATM   38  C   UNL     1     -45.804  57.654 -59.305  1.00  0.00     0.035 A 
HETATM   39  C   UNL     1     -45.956  56.374 -59.840  1.00  0.00     0.029 A 
HETATM   40  C   UNL     1     -46.855  56.145 -60.886  1.00  0.00     0.002 A 
HETATM   41  C   UNL     1     -47.617  57.191 -61.401  1.00  0.00     0.000 A 
HETATM   42  C   UNL     1     -47.472  58.473 -60.874  1.00  0.00     0.002 A 
HETATM   43  C   UNL     1     -46.565  58.704 -59.838  1.00  0.00     0.029 A 
ENDBRANCH  35  38
ENDBRANCH   9  34
TORSDOF 9
ENDMDL
MODEL 8
REMARK VINA RESULT:      -7.6      4.516      7.968
REMARK  9 active torsions:
REMARK  status: ('A' for Active; 'I' for Inactive)
REMARK    1  A    between atoms: C_4  and  S_5 
REMARK    2  A    between atoms: S_5  and  C_6 
REMARK    3  A    between atoms: C_6  and  C_7 
REMARK       I    between atoms: C_7  and  N_8 
REMARK    4  A    between atoms: N_8  and  C_9 
REMARK    5  A    between atoms: C_10  and  O_11 
REMARK    6  A    between atoms: C_16  and  O_17 
REMARK    7  A    between atoms: C_24  and  C_25 
REMARK    8  A    between atoms: C_31  and  C_32 
REMARK       I    between atoms: C_32  and  N_33 
REMARK    9  A    between atoms: N_33  and  C_34 
ROOT
HETATM    1  C   UNL     1     -44.909  57.797 -51.026  1.00  0.00     0.069 C 
HETATM    2  C   UNL     1     -44.828  58.922 -52.024  1.00  0.00     0.019 C 
HETATM    3  N   UNL     1     -44.922  58.558 -53.361  1.00  0.00    -0.353 N 
HETATM    4  C   UNL     1     -44.557  59.376 -54.416  1.00  0.00     0.087 C 
HETATM    5  C   UNL     1     -44.383  60.696 -54.190  1.00  0.00     0.055 C 
HETATM    6  C   UNL     1     -43.868  61.657 -55.248  1.00  0.00     0.019 C 
HETATM    7  N   UNL     1     -43.440  62.455 -56.126  1.00  0.00    -0.096 N 
HETATM    8  C   UNL     1     -44.645  61.287 -52.808  1.00  0.00     0.104 C 
HETATM    9  C   UNL     1     -44.667  60.230 -51.704  1.00  0.00     0.046 C 
HETATM   10  H   UNL     1     -44.982  57.567 -53.580  1.00  0.00     0.166 HD
ENDROOT
BRANCH   4  11
HETATM   11  S   UNL     1     -44.365  58.708 -56.012  1.00  0.00    -0.102 SA
BRANCH  11  12
HETATM   12  C   UNL     1     -42.617  58.164 -55.952  1.00  0.00     0.184 C 
BRANCH  12  13
HETATM   13  C   UNL     1     -42.630  56.802 -55.280  1.00  0.00     0.231 C 
HETATM   14  N   UNL     1     -41.416  56.486 -54.699  1.00  0.00    -0.324 N 
HETATM   15  H   UNL     1     -40.555  56.780 -55.148  1.00  0.00     0.169 HD
HETATM   16  O   UNL     1     -43.657  56.138 -55.162  1.00  0.00    -0.272 OA
BRANCH  14  17
HETATM   17  C   UNL     1     -41.253  56.045 -53.365  1.00  0.00     0.071 A 
HETATM   18  C   UNL     1     -41.419  56.995 -52.344  1.00  0.00     0.096 A 
HETATM   19  C   UNL     1     -41.439  56.582 -51.014  1.00  0.00     0.065 A 
HETATM   20  C   UNL     1     -41.277  55.228 -50.703  1.00  0.00     0.070 A 
HETATM   21 CL   UNL     1     -41.361  54.772 -49.035  1.00  0.00    -0.081 Cl
HETATM   22  C   UNL     1     -41.079  54.272 -51.710  1.00  0.00     0.092 A 
HETATM   23  C   UNL     1     -41.057  54.697 -53.042  1.00  0.00     0.071 A 
BRANCH  18  24
HETATM   24  O   UNL     1     -41.622  58.295 -52.748  1.00  0.00    -0.354 OA
HETATM   25  C   UNL     1     -40.734  59.248 -52.167  1.00  0.00     0.210 C 
ENDBRANCH  18  24
BRANCH  22  26
HETATM   26  O   UNL     1     -40.953  52.966 -51.315  1.00  0.00    -0.354 OA
HETATM   27  C   UNL     1     -39.702  52.325 -51.541  1.00  0.00     0.210 C 
ENDBRANCH  22  26
ENDBRANCH  14  17
ENDBRANCH  12  13
ENDBRANCH  11  12
ENDBRANCH   4  11
BRANCH   8  28
HETATM   28  C   UNL     1     -45.935  62.117 -52.851  1.00  0.00    -0.044 A 
HETATM   29  C   UNL     1     -47.199  61.511 -52.736  1.00  0.00     0.008 A 
HETATM   30  C   UNL     1     -48.365  62.275 -52.793  1.00  0.00     0.001 A 
HETATM   31  C   UNL     1     -48.285  63.652 -52.980  1.00  0.00     0.000 A 
HETATM   32  C   UNL     1     -47.042  64.266 -53.110  1.00  0.00     0.001 A 
HETATM   33  C   UNL     1     -45.872  63.506 -53.048  1.00  0.00     0.008 A 
ENDBRANCH   8  28
BRANCH   9  34
HETATM   34  C   UNL     1     -44.284  60.636 -50.313  1.00  0.00     0.255 C 
HETATM   35  N   UNL     1     -45.344  60.966 -49.503  1.00  0.00    -0.323 N 
HETATM   36  H   UNL     1     -46.280  60.821 -49.861  1.00  0.00     0.169 HD
HETATM   37  O   UNL     1     -43.093  60.709 -50.021  1.00  0.00    -0.268 OA
BRANCH  35  38
HETATM   38  C   UNL     1     -45.291  61.525 -48.208  1.00  0.00     0.035 A 
HETATM   39  C   UNL     1     -45.300  60.777 -47.030  1.00  0.00     0.029 A 
HETATM   40  C   UNL     1     -45.222  61.410 -45.786  1.00  0.00     0.002 A 
HETATM   41  C   UNL     1     -45.124  62.797 -45.708  1.00  0.00     0.000 A 
HETATM   42  C   UNL     1     -45.114  63.554 -46.877  1.00  0.00     0.002 A 
HETATM   43  C   UNL     1     -45.205  62.922 -48.119  1.00  0.00     0.029 A 
ENDBRANCH  35  38
ENDBRANCH   9  34
TORSDOF 9
ENDMDL
MODEL 9
REMARK VINA RESULT:      -7.6      5.483     10.174
REMARK  9 active torsions:
REMARK  status: ('A' for Active; 'I' for Inactive)
REMARK    1  A    between atoms: C_4  and  S_5 
REMARK    2  A    between atoms: S_5  and  C_6 
REMARK    3  A    between atoms: C_6  and  C_7 
REMARK       I    between atoms: C_7  and  N_8 
REMARK    4  A    between atoms: N_8  and  C_9 
REMARK    5  A    between atoms: C_10  and  O_11 
REMARK    6  A    between atoms: C_16  and  O_17 
REMARK    7  A    between atoms: C_24  and  C_25 
REMARK    8  A    between atoms: C_31  and  C_32 
REMARK       I    between atoms: C_32  and  N_33 
REMARK    9  A    between atoms: N_33  and  C_34 
ROOT
HETATM    1  C   UNL     1     -41.072  59.159 -53.434  1.00  0.00     0.069 C 
HETATM    2  C   UNL     1     -42.134  59.139 -54.503  1.00  0.00     0.019 C 
HETATM    3  N   UNL     1     -42.521  60.376 -54.999  1.00  0.00    -0.353 N 
HETATM    4  C   UNL     1     -43.676  60.592 -55.731  1.00  0.00     0.087 C 
HETATM    5  C   UNL     1     -44.322  59.531 -56.261  1.00  0.00     0.055 C 
HETATM    6  C   UNL     1     -45.658  59.647 -56.975  1.00  0.00     0.019 C 
HETATM    7  N   UNL     1     -46.767  59.743 -57.568  1.00  0.00    -0.096 N 
HETATM    8  C   UNL     1     -43.755  58.123 -56.108  1.00  0.00     0.104 C 
HETATM    9  C   UNL     1     -42.719  58.017 -54.988  1.00  0.00     0.046 C 
HETATM   10  H   UNL     1     -42.112  61.207 -54.579  1.00  0.00     0.166 HD
ENDROOT
BRANCH   4  11
HETATM   11  S   UNL     1     -44.256  62.214 -55.988  1.00  0.00    -0.102 SA
BRANCH  11  12
HETATM   12  C   UNL     1     -45.289  62.454 -54.496  1.00  0.00     0.184 C 
BRANCH  12  13
HETATM   13  C   UNL     1     -46.666  62.843 -55.003  1.00  0.00     0.231 C 
HETATM   14  N   UNL     1     -47.667  62.035 -54.495  1.00  0.00    -0.324 N 
HETATM   15  H   UNL     1     -47.484  61.048 -54.342  1.00  0.00     0.169 HD
HETATM   16  O   UNL     1     -46.856  63.851 -55.680  1.00  0.00    -0.272 OA
BRANCH  14  17
HETATM   17  C   UNL     1     -48.847  62.509 -53.877  1.00  0.00     0.071 A 
HETATM   18  C   UNL     1     -50.049  62.378 -54.592  1.00  0.00     0.096 A 
HETATM   19  C   UNL     1     -51.259  62.669 -53.966  1.00  0.00     0.065 A 
HETATM   20  C   UNL     1     -51.268  63.104 -52.636  1.00  0.00     0.070 A 
HETATM   21 CL   UNL     1     -52.806  63.401 -51.900  1.00  0.00    -0.081 Cl
HETATM   22  C   UNL     1     -50.073  63.268 -51.920  1.00  0.00     0.092 A 
HETATM   23  C   UNL     1     -48.864  62.978 -52.558  1.00  0.00     0.071 A 
BRANCH  18  24
HETATM   24  O   UNL     1     -49.945  61.895 -55.877  1.00  0.00    -0.354 OA
HETATM   25  C   UNL     1     -51.175  61.465 -56.455  1.00  0.00     0.210 C 
ENDBRANCH  18  24
BRANCH  22  26
HETATM   26  O   UNL     1     -50.179  63.676 -50.615  1.00  0.00    -0.354 OA
HETATM   27  C   UNL     1     -48.987  64.087 -49.953  1.00  0.00     0.210 C 
ENDBRANCH  22  26
ENDBRANCH  14  17
ENDBRANCH  12  13
ENDBRANCH  11  12
ENDBRANCH   4  11
BRANCH   8  28
HETATM   28  C   UNL     1     -43.206  57.652 -57.461  1.00  0.00    -0.044 A 
HETATM   29  C   UNL     1     -43.498  56.372 -57.964  1.00  0.00     0.008 A 
HETATM   30  C   UNL     1     -42.978  55.950 -59.188  1.00  0.00     0.001 A 
HETATM   31  C   UNL     1     -42.149  56.795 -59.920  1.00  0.00     0.000 A 
HETATM   32  C   UNL     1     -41.838  58.061 -59.429  1.00  0.00     0.001 A 
HETATM   33  C   UNL     1     -42.360  58.489 -58.207  1.00  0.00     0.008 A 
ENDBRANCH   8  28
BRANCH   9  34
HETATM   34  C   UNL     1     -42.542  56.699 -54.297  1.00  0.00     0.255 C 
HETATM   35  N   UNL     1     -41.314  56.114 -54.493  1.00  0.00    -0.323 N 
HETATM   36  H   UNL     1     -40.608  56.642 -54.990  1.00  0.00     0.169 HD
HETATM   37  O   UNL     1     -43.490  56.217 -53.682  1.00  0.00    -0.268 OA
BRANCH  35  38
HETATM   38  C   UNL     1     -40.910  54.819 -54.101  1.00  0.00     0.035 A 
HETATM   39  C   UNL     1     -40.564  53.803 -54.992  1.00  0.00     0.029 A 
HETATM   40  C   UNL     1     -40.154  52.553 -54.519  1.00  0.00     0.002 A 
HETATM   41  C   UNL     1     -40.077  52.310 -53.150  1.00  0.00     0.000 A 
HETATM   42  C   UNL     1     -40.421  53.317 -52.251  1.00  0.00     0.002 A 
HETATM   43  C   UNL     1     -40.843  54.561 -52.725  1.00  0.00     0.029 A 
ENDBRANCH  35  38
ENDBRANCH   9  34
TORSDOF 9
ENDMDL
MODEL 10
REMARK VINA RESULT:      -7.5      2.427      3.795
REMARK  9 active torsions:
REMARK  status: ('A' for Active; 'I' for Inactive)
REMARK    1  A    between atoms: C_4  and  S_5 
REMARK    2  A    between atoms: S_5  and  C_6 
REMARK    3  A    between atoms: C_6  and  C_7 
REMARK       I    between atoms: C_7  and  N_8 
REMARK    4  A    between atoms: N_8  and  C_9 
REMARK    5  A    between atoms: C_10  and  O_11 
REMARK    6  A    between atoms: C_16  and  O_17 
REMARK    7  A    between atoms: C_24  and  C_25 
REMARK    8  A    between atoms: C_31  and  C_32 
REMARK       I    between atoms: C_32  and  N_33 
REMARK    9  A    between atoms: N_33  and  C_34 
ROOT
HETATM    1  C   UNL     1     -41.750  59.627 -57.298  1.00  0.00     0.069 C 
HETATM    2  C   UNL     1     -42.722  59.907 -56.181  1.00  0.00     0.019 C 
HETATM    3  N   UNL     1     -42.164  60.121 -54.928  1.00  0.00    -0.353 N 
HETATM    4  C   UNL     1     -42.877  60.075 -53.742  1.00  0.00     0.087 C 
HETATM    5  C   UNL     1     -44.226  60.125 -53.789  1.00  0.00     0.055 C 
HETATM    6  C   UNL     1     -45.103  59.961 -52.558  1.00  0.00     0.019 C 
HETATM    7  N   UNL     1     -45.831  59.823 -51.539  1.00  0.00    -0.096 N 
HETATM    8  C   UNL     1     -44.951  60.293 -55.120  1.00  0.00     0.104 C 
HETATM    9  C   UNL     1     -44.070  59.954 -56.323  1.00  0.00     0.046 C 
HETATM   10  H   UNL     1     -41.157  60.023 -54.833  1.00  0.00     0.166 HD
ENDROOT
BRANCH   4  11
HETATM   11  S   UNL     1     -42.035  59.991 -52.221  1.00  0.00    -0.102 SA
BRANCH  11  12
HETATM   12  C   UNL     1     -40.728  58.772 -52.614  1.00  0.00     0.184 C 
BRANCH  12  13
HETATM   13  C   UNL     1     -41.226  57.441 -52.079  1.00  0.00     0.231 C 
HETATM   14  N   UNL     1     -41.700  56.611 -53.078  1.00  0.00    -0.324 N 
HETATM   15  H   UNL     1     -42.191  57.012 -53.871  1.00  0.00     0.169 HD
HETATM   16  O   UNL     1     -41.086  57.113 -50.903  1.00  0.00    -0.272 OA
BRANCH  14  17
HETATM   17  C   UNL     1     -41.306  55.266 -53.260  1.00  0.00     0.071 A 
HETATM   18  C   UNL     1     -41.274  54.774 -54.576  1.00  0.00     0.096 A 
HETATM   19  C   UNL     1     -40.733  53.515 -54.829  1.00  0.00     0.065 A 
HETATM   20  C   UNL     1     -40.240  52.744 -53.771  1.00  0.00     0.070 A 
HETATM   21 CL   UNL     1     -39.534  51.211 -54.156  1.00  0.00    -0.081 Cl
HETATM   22  C   UNL     1     -40.293  53.210 -52.449  1.00  0.00     0.092 A 
HETATM   23  C   UNL     1     -40.842  54.472 -52.205  1.00  0.00     0.071 A 
BRANCH  18  24
HETATM   24  O   UNL     1     -41.734  55.624 -55.556  1.00  0.00    -0.354 OA
HETATM   25  C   UNL     1     -42.827  55.119 -56.321  1.00  0.00     0.210 C 
ENDBRANCH  18  24
BRANCH  22  26
HETATM   26  O   UNL     1     -39.765  52.397 -51.479  1.00  0.00    -0.354 OA
HETATM   27  C   UNL     1     -40.483  52.278 -50.255  1.00  0.00     0.210 C 
ENDBRANCH  22  26
ENDBRANCH  14  17
ENDBRANCH  12  13
ENDBRANCH  11  12
ENDBRANCH   4  11
BRANCH   8  28
HETATM   28  C   UNL     1     -45.534  61.709 -55.202  1.00  0.00    -0.044 A 
HETATM   29  C   UNL     1     -46.898  61.925 -55.467  1.00  0.00     0.008 A 
HETATM   30  C   UNL     1     -47.412  63.220 -55.555  1.00  0.00     0.001 A 
HETATM   31  C   UNL     1     -46.569  64.315 -55.393  1.00  0.00     0.000 A 
HETATM   32  C   UNL     1     -45.212  64.119 -55.144  1.00  0.00     0.001 A 
HETATM   33  C   UNL     1     -44.695  62.825 -55.051  1.00  0.00     0.008 A 
ENDBRANCH   8  28
BRANCH   9  34
HETATM   34  C   UNL     1     -44.726  59.458 -57.576  1.00  0.00     0.255 C 
HETATM   35  N   UNL     1     -44.898  58.095 -57.629  1.00  0.00    -0.323 N 
HETATM   36  H   UNL     1     -44.666  57.554 -56.805  1.00  0.00     0.169 HD
HETATM   37  O   UNL     1     -44.995  60.262 -58.465  1.00  0.00    -0.268 OA
BRANCH  35  38
HETATM   38  C   UNL     1     -45.341  57.330 -58.730  1.00  0.00     0.035 A 
HETATM   39  C   UNL     1     -46.669  57.264 -59.154  1.00  0.00     0.029 A 
HETATM   40  C   UNL     1     -47.020  56.497 -60.269  1.00  0.00     0.002 A 
HETATM   41  C   UNL     1     -46.046  55.798 -60.977  1.00  0.00     0.000 A 
HETATM   42  C   UNL     1     -44.717  55.857 -60.562  1.00  0.00     0.002 A 
HETATM   43  C   UNL     1     -44.369  56.613 -59.440  1.00  0.00     0.029 A 
ENDBRANCH  35  38
ENDBRANCH   9  34
TORSDOF 9
ENDMDL
