MODEL 1
REMARK VINA RESULT:      -7.5      0.000      0.000
REMARK  7 active torsions:
REMARK  status: ('A' for Active; 'I' for Inactive)
REMARK    1  A    between atoms: C_2  and  N_3 
REMARK       I    between atoms: N_3  and  C_4 
REMARK    2  A    between atoms: C_4  and  C_5 
REMARK    3  A    between atoms: N_8  and  C_10 
REMARK    4  A    between atoms: C_10  and  N_11 
REMARK    5  A    between atoms: C_13  and  C_14 
REMARK    6  A    between atoms: C_14  and  N_15 
REMARK    7  A    between atoms: N_22  and  C_23 
ROOT
HETATM    1  N   UNL     1     -42.666  55.155 -55.747  1.00  0.00    -0.216 N 
HETATM    2  N   UNL     1     -41.543  54.351 -55.701  1.00  0.00    -0.153 NA
HETATM    3  C   UNL     1     -41.163  54.387 -54.450  1.00  0.00     0.160 A 
HETATM    4  N   UNL     1     -41.953  55.134 -53.639  1.00  0.00    -0.272 N 
HETATM    5  C   UNL     1     -42.936  55.673 -54.466  1.00  0.00     0.204 A 
HETATM    6  S   UNL     1     -44.260  56.618 -54.108  1.00  0.00    -0.038 SA
ENDROOT
BRANCH   1   7
HETATM    7  C   UNL     1     -43.295  55.514 -57.009  1.00  0.00     0.388 C 
BRANCH   7   8
HETATM    8  N   UNL     1     -42.459  56.484 -57.797  1.00  0.00    -0.053 N 
HETATM    9  C   UNL     1     -42.810  56.373 -59.262  1.00  0.00     0.237 C 
HETATM   10  C   UNL     1     -41.960  57.326 -60.093  1.00  0.00     0.042 C 
HETATM   11  C   UNL     1     -42.108  58.772 -59.620  1.00  0.00     0.081 C 
HETATM   12  C   UNL     1     -41.775  58.865 -58.128  1.00  0.00     0.042 C 
HETATM   13  C   UNL     1     -42.559  57.888 -57.258  1.00  0.00     0.237 C 
HETATM   14  H   UNL     1     -41.484  56.171 -57.684  1.00  0.00     0.281 HD
BRANCH  11  15
HETATM   15  C   UNL     1     -43.523  59.260 -59.910  1.00  0.00     0.221 C 
HETATM   16  N   UNL     1     -43.933  60.316 -59.139  1.00  0.00    -0.361 N 
HETATM   17  H   UNL     1     -43.427  60.547 -58.290  1.00  0.00     0.162 HD
HETATM   18  O   UNL     1     -44.175  58.803 -60.844  1.00  0.00    -0.273 OA
BRANCH  16  19
HETATM   19  C   UNL     1     -45.256  60.897 -59.285  1.00  0.00     0.118 C 
HETATM   20  C   UNL     1     -46.277  60.210 -58.397  1.00  0.00     0.026 C 
ENDBRANCH  16  19
ENDBRANCH  11  15
ENDBRANCH   7   8
ENDBRANCH   1   7
BRANCH   3  21
HETATM   21  C   UNL     1     -39.886  53.689 -53.988  1.00  0.00     0.315 C 
BRANCH  21  22
HETATM   22  N   UNL     1     -40.138  52.267 -53.472  1.00  0.00    -0.064 N 
HETATM   23  H   UNL     1     -41.150  52.215 -53.280  1.00  0.00     0.280 HD
HETATM   24  C   UNL     1     -39.827  51.204 -54.503  1.00  0.00     0.235 C 
HETATM   25  C   UNL     1     -40.264  49.847 -53.967  1.00  0.00     0.028 C 
HETATM   26  C   UNL     1     -39.598  49.530 -52.633  1.00  0.00     0.003 C 
HETATM   27  C   UNL     1     -39.823  50.649 -51.622  1.00  0.00     0.028 C 
HETATM   28  C   UNL     1     -39.407  52.005 -52.172  1.00  0.00     0.235 C 
ENDBRANCH  21  22
ENDBRANCH   3  21
BRANCH   4  29
HETATM   29  C   UNL     1     -41.814  55.301 -52.242  1.00  0.00     0.043 A 
HETATM   30  C   UNL     1     -41.218  56.451 -51.710  1.00  0.00     0.030 A 
HETATM   31  C   UNL     1     -41.068  56.600 -50.329  1.00  0.00     0.002 A 
HETATM   32  C   UNL     1     -41.516  55.606 -49.465  1.00  0.00     0.000 A 
HETATM   33  C   UNL     1     -42.119  54.463 -49.978  1.00  0.00     0.002 A 
HETATM   34  C   UNL     1     -42.269  54.309 -51.359  1.00  0.00     0.030 A 
ENDBRANCH   4  29
TORSDOF 7
ENDMDL
MODEL 2
REMARK VINA RESULT:      -7.5      2.649      3.755
REMARK  7 active torsions:
REMARK  status: ('A' for Active; 'I' for Inactive)
REMARK    1  A    between atoms: C_2  and  N_3 
REMARK       I    between atoms: N_3  and  C_4 
REMARK    2  A    between atoms: C_4  and  C_5 
REMARK    3  A    between atoms: N_8  and  C_10 
REMARK    4  A    between atoms: C_10  and  N_11 
REMARK    5  A    between atoms: C_13  and  C_14 
REMARK    6  A    between atoms: C_14  and  N_15 
REMARK    7  A    between atoms: N_22  and  C_23 
ROOT
HETATM    1  N   UNL     1     -44.174  58.203 -54.783  1.00  0.00    -0.216 N 
HETATM    2  N   UNL     1     -44.158  56.979 -54.143  1.00  0.00    -0.153 NA
HETATM    3  C   UNL     1     -43.225  57.095 -53.232  1.00  0.00     0.160 A 
HETATM    4  N   UNL     1     -42.623  58.310 -53.191  1.00  0.00    -0.272 N 
HETATM    5  C   UNL     1     -43.206  59.053 -54.213  1.00  0.00     0.204 A 
HETATM    6  S   UNL     1     -42.985  60.641 -54.665  1.00  0.00    -0.038 SA
ENDROOT
BRANCH   1   7
HETATM    7  C   UNL     1     -44.966  58.426 -55.983  1.00  0.00     0.388 C 
BRANCH   7   8
HETATM    8  N   UNL     1     -44.103  58.567 -57.207  1.00  0.00    -0.053 N 
HETATM    9  C   UNL     1     -43.332  57.286 -57.426  1.00  0.00     0.237 C 
HETATM   10  C   UNL     1     -42.427  57.405 -58.645  1.00  0.00     0.042 C 
HETATM   11  C   UNL     1     -43.218  57.770 -59.901  1.00  0.00     0.081 C 
HETATM   12  C   UNL     1     -44.014  59.054 -59.656  1.00  0.00     0.042 C 
HETATM   13  C   UNL     1     -44.894  59.008 -58.411  1.00  0.00     0.237 C 
HETATM   14  H   UNL     1     -43.423  59.308 -56.987  1.00  0.00     0.281 HD
BRANCH  11  15
HETATM   15  C   UNL     1     -44.130  56.609 -60.284  1.00  0.00     0.221 C 
HETATM   16  N   UNL     1     -45.386  56.979 -60.691  1.00  0.00    -0.361 N 
HETATM   17  H   UNL     1     -45.727  57.912 -60.487  1.00  0.00     0.162 HD
HETATM   18  O   UNL     1     -43.710  55.457 -60.328  1.00  0.00    -0.273 OA
BRANCH  16  19
HETATM   19  C   UNL     1     -46.379  55.995 -61.085  1.00  0.00     0.118 C 
HETATM   20  C   UNL     1     -47.717  56.637 -61.400  1.00  0.00     0.026 C 
ENDBRANCH  16  19
ENDBRANCH  11  15
ENDBRANCH   7   8
ENDBRANCH   1   7
BRANCH   3  21
HETATM   21  C   UNL     1     -42.824  55.914 -52.352  1.00  0.00     0.315 C 
BRANCH  21  22
HETATM   22  N   UNL     1     -41.651  55.113 -52.929  1.00  0.00    -0.064 N 
HETATM   23  H   UNL     1     -40.808  55.472 -52.456  1.00  0.00     0.280 HD
HETATM   24  C   UNL     1     -41.739  53.634 -52.619  1.00  0.00     0.235 C 
HETATM   25  C   UNL     1     -40.458  52.952 -53.080  1.00  0.00     0.028 C 
HETATM   26  C   UNL     1     -40.200  53.187 -54.564  1.00  0.00     0.003 C 
HETATM   27  C   UNL     1     -40.214  54.674 -54.900  1.00  0.00     0.028 C 
HETATM   28  C   UNL     1     -41.484  55.356 -54.415  1.00  0.00     0.235 C 
ENDBRANCH  21  22
ENDBRANCH   3  21
BRANCH   4  29
HETATM   29  C   UNL     1     -41.630  58.731 -52.276  1.00  0.00     0.043 A 
HETATM   30  C   UNL     1     -41.975  59.181 -50.995  1.00  0.00     0.030 A 
HETATM   31  C   UNL     1     -40.990  59.612 -50.104  1.00  0.00     0.002 A 
HETATM   32  C   UNL     1     -39.650  59.594 -50.480  1.00  0.00     0.000 A 
HETATM   33  C   UNL     1     -39.291  59.141 -51.744  1.00  0.00     0.002 A 
HETATM   34  C   UNL     1     -40.275  58.711 -52.640  1.00  0.00     0.030 A 
ENDBRANCH   4  29
TORSDOF 7
ENDMDL
MODEL 3
REMARK VINA RESULT:      -7.4      2.439      3.630
REMARK  7 active torsions:
REMARK  status: ('A' for Active; 'I' for Inactive)
REMARK    1  A    between atoms: C_2  and  N_3 
REMARK       I    between atoms: N_3  and  C_4 
REMARK    2  A    between atoms: C_4  and  C_5 
REMARK    3  A    between atoms: N_8  and  C_10 
REMARK    4  A    between atoms: C_10  and  N_11 
REMARK    5  A    between atoms: C_13  and  C_14 
REMARK    6  A    between atoms: C_14  and  N_15 
REMARK    7  A    between atoms: N_22  and  C_23 
ROOT
HETATM    1  N   UNL     1     -44.402  58.323 -54.730  1.00  0.00    -0.216 N 
HETATM    2  N   UNL     1     -44.266  57.050 -54.212  1.00  0.00    -0.153 NA
HETATM    3  C   UNL     1     -43.302  57.153 -53.332  1.00  0.00     0.160 A 
HETATM    4  N   UNL     1     -42.791  58.402 -53.197  1.00  0.00    -0.272 N 
HETATM    5  C   UNL     1     -43.475  59.190 -54.119  1.00  0.00     0.204 A 
HETATM    6  S   UNL     1     -43.394  60.826 -54.423  1.00  0.00    -0.038 SA
ENDROOT
BRANCH   1   7
HETATM    7  C   UNL     1     -45.264  58.595 -55.870  1.00  0.00     0.388 C 
BRANCH   7   8
HETATM    8  N   UNL     1     -45.003  57.648 -57.009  1.00  0.00    -0.053 N 
HETATM    9  C   UNL     1     -45.889  58.012 -58.177  1.00  0.00     0.237 C 
HETATM   10  C   UNL     1     -45.667  57.054 -59.340  1.00  0.00     0.042 C 
HETATM   11  C   UNL     1     -44.202  57.025 -59.774  1.00  0.00     0.081 C 
HETATM   12  C   UNL     1     -43.313  56.682 -58.576  1.00  0.00     0.042 C 
HETATM   13  C   UNL     1     -43.539  57.576 -57.362  1.00  0.00     0.237 C 
HETATM   14  H   UNL     1     -45.293  56.718 -56.673  1.00  0.00     0.281 HD
BRANCH  11  15
HETATM   15  C   UNL     1     -43.825  58.371 -60.383  1.00  0.00     0.221 C 
HETATM   16  N   UNL     1     -42.476  58.593 -60.491  1.00  0.00    -0.361 N 
HETATM   17  H   UNL     1     -41.828  58.020 -59.962  1.00  0.00     0.162 HD
HETATM   18  O   UNL     1     -44.679  59.125 -60.841  1.00  0.00    -0.273 OA
BRANCH  16  19
HETATM   19  C   UNL     1     -41.950  59.828 -61.045  1.00  0.00     0.118 C 
HETATM   20  C   UNL     1     -41.764  60.892 -59.979  1.00  0.00     0.026 C 
ENDBRANCH  16  19
ENDBRANCH  11  15
ENDBRANCH   7   8
ENDBRANCH   1   7
BRANCH   3  21
HETATM   21  C   UNL     1     -42.774  55.930 -52.587  1.00  0.00     0.315 C 
BRANCH  21  22
HETATM   22  N   UNL     1     -42.079  54.924 -53.512  1.00  0.00    -0.064 N 
HETATM   23  H   UNL     1     -42.752  54.730 -54.269  1.00  0.00     0.280 HD
HETATM   24  C   UNL     1     -40.831  55.483 -54.161  1.00  0.00     0.235 C 
HETATM   25  C   UNL     1     -40.309  54.482 -55.182  1.00  0.00     0.028 C 
HETATM   26  C   UNL     1     -40.036  53.123 -54.548  1.00  0.00     0.003 C 
HETATM   27  C   UNL     1     -41.261  52.602 -53.806  1.00  0.00     0.028 C 
HETATM   28  C   UNL     1     -41.793  53.616 -52.803  1.00  0.00     0.235 C 
ENDBRANCH  21  22
ENDBRANCH   3  21
BRANCH   4  29
HETATM   29  C   UNL     1     -41.791  58.812 -52.286  1.00  0.00     0.043 A 
HETATM   30  C   UNL     1     -40.434  58.748 -52.628  1.00  0.00     0.030 A 
HETATM   31  C   UNL     1     -39.451  59.138 -51.716  1.00  0.00     0.002 A 
HETATM   32  C   UNL     1     -39.812  59.600 -50.454  1.00  0.00     0.000 A 
HETATM   33  C   UNL     1     -41.155  59.678 -50.102  1.00  0.00     0.002 A 
HETATM   34  C   UNL     1     -42.141  59.286 -51.012  1.00  0.00     0.030 A 
ENDBRANCH   4  29
TORSDOF 7
ENDMDL
MODEL 4
REMARK VINA RESULT:      -7.1      4.570      7.869
REMARK  7 active torsions:
REMARK  status: ('A' for Active; 'I' for Inactive)
REMARK    1  A    between atoms: C_2  and  N_3 
REMARK       I    between atoms: N_3  and  C_4 
REMARK    2  A    between atoms: C_4  and  C_5 
REMARK    3  A    between atoms: N_8  and  C_10 
REMARK    4  A    between atoms: C_10  and  N_11 
REMARK    5  A    between atoms: C_13  and  C_14 
REMARK    6  A    between atoms: C_14  and  N_15 
REMARK    7  A    between atoms: N_22  and  C_23 
ROOT
HETATM    1  N   UNL     1     -44.369  57.782 -53.535  1.00  0.00    -0.216 N 
HETATM    2  N   UNL     1     -44.231  58.009 -54.890  1.00  0.00    -0.153 NA
HETATM    3  C   UNL     1     -43.369  57.108 -55.289  1.00  0.00     0.160 A 
HETATM    4  N   UNL     1     -42.929  56.275 -54.313  1.00  0.00    -0.272 N 
HETATM    5  C   UNL     1     -43.549  56.706 -53.143  1.00  0.00     0.204 A 
HETATM    6  S   UNL     1     -43.509  56.084 -51.599  1.00  0.00    -0.038 SA
ENDROOT
BRANCH   1   7
HETATM    7  C   UNL     1     -45.120  58.692 -52.683  1.00  0.00     0.388 C 
BRANCH   7   8
HETATM    8  N   UNL     1     -44.286  59.860 -52.237  1.00  0.00    -0.053 N 
HETATM    9  C   UNL     1     -45.142  61.104 -52.205  1.00  0.00     0.237 C 
HETATM   10  C   UNL     1     -44.319  62.313 -51.781  1.00  0.00     0.042 C 
HETATM   11  C   UNL     1     -43.652  62.093 -50.423  1.00  0.00     0.081 C 
HETATM   12  C   UNL     1     -42.809  60.816 -50.462  1.00  0.00     0.042 C 
HETATM   13  C   UNL     1     -43.573  59.585 -50.937  1.00  0.00     0.237 C 
HETATM   14  H   UNL     1     -43.572  59.990 -52.967  1.00  0.00     0.281 HD
BRANCH  11  15
HETATM   15  C   UNL     1     -44.719  62.028 -49.336  1.00  0.00     0.221 C 
HETATM   16  N   UNL     1     -44.496  61.079 -48.372  1.00  0.00    -0.361 N 
HETATM   17  H   UNL     1     -43.829  60.335 -48.544  1.00  0.00     0.162 HD
HETATM   18  O   UNL     1     -45.629  62.850 -49.287  1.00  0.00    -0.273 OA
BRANCH  16  19
HETATM   19  C   UNL     1     -45.420  60.883 -47.269  1.00  0.00     0.118 C 
HETATM   20  C   UNL     1     -44.745  61.081 -45.924  1.00  0.00     0.026 C 
ENDBRANCH  16  19
ENDBRANCH  11  15
ENDBRANCH   7   8
ENDBRANCH   1   7
BRANCH   3  21
HETATM   21  C   UNL     1     -42.866  57.073 -56.730  1.00  0.00     0.315 C 
BRANCH  21  22
HETATM   22  N   UNL     1     -43.908  56.522 -57.711  1.00  0.00    -0.064 N 
HETATM   23  H   UNL     1     -44.572  55.979 -57.137  1.00  0.00     0.280 HD
HETATM   24  C   UNL     1     -44.702  57.610 -58.400  1.00  0.00     0.235 C 
HETATM   25  C   UNL     1     -45.816  56.971 -59.218  1.00  0.00     0.028 C 
HETATM   26  C   UNL     1     -45.267  55.970 -60.228  1.00  0.00     0.003 C 
HETATM   27  C   UNL     1     -44.381  54.930 -59.551  1.00  0.00     0.028 C 
HETATM   28  C   UNL     1     -43.285  55.574 -58.715  1.00  0.00     0.235 C 
ENDBRANCH  21  22
ENDBRANCH   3  21
BRANCH   4  29
HETATM   29  C   UNL     1     -42.047  55.181 -54.469  1.00  0.00     0.043 A 
HETATM   30  C   UNL     1     -42.483  53.868 -54.255  1.00  0.00     0.030 A 
HETATM   31  C   UNL     1     -41.601  52.794 -54.394  1.00  0.00     0.002 A 
HETATM   32  C   UNL     1     -40.275  53.019 -54.752  1.00  0.00     0.000 A 
HETATM   33  C   UNL     1     -39.829  54.317 -54.978  1.00  0.00     0.002 A 
HETATM   34  C   UNL     1     -40.709  55.394 -54.837  1.00  0.00     0.030 A 
ENDBRANCH   4  29
TORSDOF 7
ENDMDL
MODEL 5
REMARK VINA RESULT:      -7.0      2.937      9.019
REMARK  7 active torsions:
REMARK  status: ('A' for Active; 'I' for Inactive)
REMARK    1  A    between atoms: C_2  and  N_3 
REMARK       I    between atoms: N_3  and  C_4 
REMARK    2  A    between atoms: C_4  and  C_5 
REMARK    3  A    between atoms: N_8  and  C_10 
REMARK    4  A    between atoms: C_10  and  N_11 
REMARK    5  A    between atoms: C_13  and  C_14 
REMARK    6  A    between atoms: C_14  and  N_15 
REMARK    7  A    between atoms: N_22  and  C_23 
ROOT
HETATM    1  N   UNL     1     -42.590  58.076 -56.668  1.00  0.00    -0.216 N 
HETATM    2  N   UNL     1     -42.624  57.363 -57.851  1.00  0.00    -0.153 NA
HETATM    3  C   UNL     1     -42.654  58.277 -58.786  1.00  0.00     0.160 A 
HETATM    4  N   UNL     1     -42.620  59.554 -58.331  1.00  0.00    -0.272 N 
HETATM    5  C   UNL     1     -42.602  59.457 -56.942  1.00  0.00     0.204 A 
HETATM    6  S   UNL     1     -42.486  60.636 -55.770  1.00  0.00    -0.038 SA
ENDROOT
BRANCH   1   7
HETATM    7  C   UNL     1     -42.722  57.417 -55.377  1.00  0.00     0.388 C 
BRANCH   7   8
HETATM    8  N   UNL     1     -42.138  56.032 -55.391  1.00  0.00    -0.053 N 
HETATM    9  C   UNL     1     -40.946  55.981 -54.464  1.00  0.00     0.237 C 
HETATM   10  C   UNL     1     -40.314  54.596 -54.476  1.00  0.00     0.042 C 
HETATM   11  C   UNL     1     -41.325  53.512 -54.101  1.00  0.00     0.081 C 
HETATM   12  C   UNL     1     -42.538  53.592 -55.031  1.00  0.00     0.042 C 
HETATM   13  C   UNL     1     -43.173  54.976 -55.100  1.00  0.00     0.237 C 
HETATM   14  H   UNL     1     -41.794  55.882 -56.351  1.00  0.00     0.281 HD
BRANCH  11  15
HETATM   15  C   UNL     1     -41.727  53.675 -52.639  1.00  0.00     0.221 C 
HETATM   16  N   UNL     1     -40.677  53.749 -51.761  1.00  0.00    -0.361 N 
HETATM   17  H   UNL     1     -39.754  53.449 -52.055  1.00  0.00     0.162 HD
HETATM   18  O   UNL     1     -42.900  53.844 -52.316  1.00  0.00    -0.273 OA
BRANCH  16  19
HETATM   19  C   UNL     1     -40.889  53.899 -50.332  1.00  0.00     0.118 C 
HETATM   20  C   UNL     1     -39.619  54.318 -49.614  1.00  0.00     0.026 C 
ENDBRANCH  16  19
ENDBRANCH  11  15
ENDBRANCH   7   8
ENDBRANCH   1   7
BRANCH   3  21
HETATM   21  C   UNL     1     -42.788  57.901 -60.260  1.00  0.00     0.315 C 
BRANCH  21  22
HETATM   22  N   UNL     1     -44.190  57.395 -60.620  1.00  0.00    -0.064 N 
HETATM   23  H   UNL     1     -44.311  57.600 -61.624  1.00  0.00     0.280 HD
HETATM   24  C   UNL     1     -44.337  55.899 -60.451  1.00  0.00     0.235 C 
HETATM   25  C   UNL     1     -45.695  55.468 -60.988  1.00  0.00     0.028 C 
HETATM   26  C   UNL     1     -46.833  56.213 -60.300  1.00  0.00     0.003 C 
HETATM   27  C   UNL     1     -46.635  57.722 -60.379  1.00  0.00     0.028 C 
HETATM   28  C   UNL     1     -45.267  58.144 -59.863  1.00  0.00     0.235 C 
ENDBRANCH  21  22
ENDBRANCH   3  21
BRANCH   4  29
HETATM   29  C   UNL     1     -42.582  60.731 -59.114  1.00  0.00     0.043 A 
HETATM   30  C   UNL     1     -43.759  61.411 -59.450  1.00  0.00     0.030 A 
HETATM   31  C   UNL     1     -43.715  62.562 -60.239  1.00  0.00     0.002 A 
HETATM   32  C   UNL     1     -42.495  63.050 -60.697  1.00  0.00     0.000 A 
HETATM   33  C   UNL     1     -41.316  62.392 -60.364  1.00  0.00     0.002 A 
HETATM   34  C   UNL     1     -41.357  61.237 -59.576  1.00  0.00     0.030 A 
ENDBRANCH   4  29
TORSDOF 7
ENDMDL
MODEL 6
REMARK VINA RESULT:      -6.9      2.018      2.444
REMARK  7 active torsions:
REMARK  status: ('A' for Active; 'I' for Inactive)
REMARK    1  A    between atoms: C_2  and  N_3 
REMARK       I    between atoms: N_3  and  C_4 
REMARK    2  A    between atoms: C_4  and  C_5 
REMARK    3  A    between atoms: N_8  and  C_10 
REMARK    4  A    between atoms: C_10  and  N_11 
REMARK    5  A    between atoms: C_13  and  C_14 
REMARK    6  A    between atoms: C_14  and  N_15 
REMARK    7  A    between atoms: N_22  and  C_23 
ROOT
HETATM    1  N   UNL     1     -43.380  56.657 -55.161  1.00  0.00    -0.216 N 
HETATM    2  N   UNL     1     -42.266  55.920 -55.510  1.00  0.00    -0.153 NA
HETATM    3  C   UNL     1     -41.697  55.620 -54.370  1.00  0.00     0.160 A 
HETATM    4  N   UNL     1     -42.352  56.079 -53.274  1.00  0.00    -0.272 N 
HETATM    5  C   UNL     1     -43.450  56.785 -53.760  1.00  0.00     0.204 A 
HETATM    6  S   UNL     1     -44.701  57.538 -52.958  1.00  0.00    -0.038 SA
ENDROOT
BRANCH   1   7
HETATM    7  C   UNL     1     -44.196  57.328 -56.162  1.00  0.00     0.388 C 
BRANCH   7   8
HETATM    8  N   UNL     1     -43.586  57.238 -57.534  1.00  0.00    -0.053 N 
HETATM    9  C   UNL     1     -43.532  55.790 -57.963  1.00  0.00     0.237 C 
HETATM   10  C   UNL     1     -42.894  55.661 -59.340  1.00  0.00     0.042 C 
HETATM   11  C   UNL     1     -43.634  56.497 -60.385  1.00  0.00     0.081 C 
HETATM   12  C   UNL     1     -43.704  57.956 -59.925  1.00  0.00     0.042 C 
HETATM   13  C   UNL     1     -44.282  58.135 -58.525  1.00  0.00     0.237 C 
HETATM   14  H   UNL     1     -42.616  57.571 -57.433  1.00  0.00     0.281 HD
BRANCH  11  15
HETATM   15  C   UNL     1     -45.024  55.914 -60.613  1.00  0.00     0.221 C 
HETATM   16  N   UNL     1     -45.998  56.842 -60.875  1.00  0.00    -0.361 N 
HETATM   17  H   UNL     1     -45.832  57.819 -60.662  1.00  0.00     0.162 HD
HETATM   18  O   UNL     1     -45.204  54.700 -60.670  1.00  0.00    -0.273 OA
BRANCH  16  19
HETATM   19  C   UNL     1     -47.377  56.452 -61.110  1.00  0.00     0.118 C 
HETATM   20  C   UNL     1     -48.129  57.494 -61.919  1.00  0.00     0.026 C 
ENDBRANCH  16  19
ENDBRANCH  11  15
ENDBRANCH   7   8
ENDBRANCH   1   7
BRANCH   3  21
HETATM   21  C   UNL     1     -40.366  54.875 -54.318  1.00  0.00     0.315 C 
BRANCH  21  22
HETATM   22  N   UNL     1     -40.506  53.444 -53.786  1.00  0.00    -0.064 N 
HETATM   23  H   UNL     1     -41.509  53.318 -53.582  1.00  0.00     0.280 HD
HETATM   24  C   UNL     1     -40.127  52.396 -54.810  1.00  0.00     0.235 C 
HETATM   25  C   UNL     1     -40.456  51.016 -54.255  1.00  0.00     0.028 C 
HETATM   26  C   UNL     1     -39.755  50.764 -52.925  1.00  0.00     0.003 C 
HETATM   27  C   UNL     1     -40.053  51.873 -51.923  1.00  0.00     0.028 C 
HETATM   28  C   UNL     1     -39.745  53.251 -52.491  1.00  0.00     0.235 C 
ENDBRANCH  21  22
ENDBRANCH   3  21
BRANCH   4  29
HETATM   29  C   UNL     1     -42.000  55.855 -51.923  1.00  0.00     0.043 A 
HETATM   30  C   UNL     1     -42.558  54.794 -51.199  1.00  0.00     0.030 A 
HETATM   31  C   UNL     1     -42.219  54.591 -49.860  1.00  0.00     0.002 A 
HETATM   32  C   UNL     1     -41.314  55.441 -49.230  1.00  0.00     0.000 A 
HETATM   33  C   UNL     1     -40.744  56.493 -49.938  1.00  0.00     0.002 A 
HETATM   34  C   UNL     1     -41.084  56.701 -51.278  1.00  0.00     0.030 A 
ENDBRANCH   4  29
TORSDOF 7
ENDMDL
MODEL 7
REMARK VINA RESULT:      -6.9      2.313      3.478
REMARK  7 active torsions:
REMARK  status: ('A' for Active; 'I' for Inactive)
REMARK    1  A    between atoms: C_2  and  N_3 
REMARK       I    between atoms: N_3  and  C_4 
REMARK    2  A    between atoms: C_4  and  C_5 
REMARK    3  A    between atoms: N_8  and  C_10 
REMARK    4  A    between atoms: C_10  and  N_11 
REMARK    5  A    between atoms: C_13  and  C_14 
REMARK    6  A    between atoms: C_14  and  N_15 
REMARK    7  A    between atoms: N_22  and  C_23 
ROOT
HETATM    1  N   UNL     1     -43.018  56.926 -56.228  1.00  0.00    -0.216 N 
HETATM    2  N   UNL     1     -43.261  55.811 -55.449  1.00  0.00    -0.153 NA
HETATM    3  C   UNL     1     -42.871  56.156 -54.248  1.00  0.00     0.160 A 
HETATM    4  N   UNL     1     -42.404  57.425 -54.148  1.00  0.00    -0.272 N 
HETATM    5  C   UNL     1     -42.464  57.951 -55.437  1.00  0.00     0.204 A 
HETATM    6  S   UNL     1     -42.114  59.476 -56.006  1.00  0.00    -0.038 SA
ENDROOT
BRANCH   1   7
HETATM    7  C   UNL     1     -43.160  56.890 -57.676  1.00  0.00     0.388 C 
BRANCH   7   8
HETATM    8  N   UNL     1     -44.603  56.875 -58.097  1.00  0.00    -0.053 N 
HETATM    9  C   UNL     1     -45.327  58.034 -57.451  1.00  0.00     0.237 C 
HETATM   10  C   UNL     1     -46.800  58.032 -57.838  1.00  0.00     0.042 C 
HETATM   11  C   UNL     1     -46.985  58.069 -59.354  1.00  0.00     0.081 C 
HETATM   12  C   UNL     1     -46.226  56.906 -59.998  1.00  0.00     0.042 C 
HETATM   13  C   UNL     1     -44.757  56.829 -59.596  1.00  0.00     0.237 C 
HETATM   14  H   UNL     1     -44.999  56.005 -57.712  1.00  0.00     0.281 HD
BRANCH  11  15
HETATM   15  C   UNL     1     -46.508  59.414 -59.892  1.00  0.00     0.221 C 
HETATM   16  N   UNL     1     -46.031  59.380 -61.177  1.00  0.00    -0.361 N 
HETATM   17  H   UNL     1     -45.781  58.492 -61.597  1.00  0.00     0.162 HD
HETATM   18  O   UNL     1     -46.663  60.449 -59.248  1.00  0.00    -0.273 OA
BRANCH  16  19
HETATM   19  C   UNL     1     -45.533  60.576 -61.836  1.00  0.00     0.118 C 
HETATM   20  C   UNL     1     -46.573  61.187 -62.757  1.00  0.00     0.026 C 
ENDBRANCH  16  19
ENDBRANCH  11  15
ENDBRANCH   7   8
ENDBRANCH   1   7
BRANCH   3  21
HETATM   21  C   UNL     1     -42.889  55.161 -53.091  1.00  0.00     0.315 C 
BRANCH  21  22
HETATM   22  N   UNL     1     -41.604  54.329 -53.002  1.00  0.00    -0.064 N 
HETATM   23  H   UNL     1     -40.837  54.973 -53.249  1.00  0.00     0.280 HD
HETATM   24  C   UNL     1     -41.325  53.824 -51.603  1.00  0.00     0.235 C 
HETATM   25  C   UNL     1     -39.955  53.159 -51.577  1.00  0.00     0.028 C 
HETATM   26  C   UNL     1     -39.859  52.031 -52.597  1.00  0.00     0.003 C 
HETATM   27  C   UNL     1     -40.240  52.512 -53.993  1.00  0.00     0.028 C 
HETATM   28  C   UNL     1     -41.598  53.197 -54.008  1.00  0.00     0.235 C 
ENDBRANCH  21  22
ENDBRANCH   3  21
BRANCH   4  29
HETATM   29  C   UNL     1     -41.974  58.078 -52.970  1.00  0.00     0.043 A 
HETATM   30  C   UNL     1     -42.893  58.693 -52.111  1.00  0.00     0.030 A 
HETATM   31  C   UNL     1     -42.458  59.351 -50.958  1.00  0.00     0.002 A 
HETATM   32  C   UNL     1     -41.102  59.398 -50.648  1.00  0.00     0.000 A 
HETATM   33  C   UNL     1     -40.178  58.783 -51.486  1.00  0.00     0.002 A 
HETATM   34  C   UNL     1     -40.610  58.126 -52.642  1.00  0.00     0.030 A 
ENDBRANCH   4  29
TORSDOF 7
ENDMDL
MODEL 8
REMARK VINA RESULT:      -6.7      5.004      7.831
REMARK  7 active torsions:
REMARK  status: ('A' for Active; 'I' for Inactive)
REMARK    1  A    between atoms: C_2  and  N_3 
REMARK       I    between atoms: N_3  and  C_4 
REMARK    2  A    between atoms: C_4  and  C_5 
REMARK    3  A    between atoms: N_8  and  C_10 
REMARK    4  A    between atoms: C_10  and  N_11 
REMARK    5  A    between atoms: C_13  and  C_14 
REMARK    6  A    between atoms: C_14  and  N_15 
REMARK    7  A    between atoms: N_22  and  C_23 
ROOT
HETATM    1  N   UNL     1     -44.018  58.607 -53.093  1.00  0.00    -0.216 N 
HETATM    2  N   UNL     1     -42.786  58.049 -52.807  1.00  0.00    -0.153 NA
HETATM    3  C   UNL     1     -42.300  57.705 -53.972  1.00  0.00     0.160 A 
HETATM    4  N   UNL     1     -43.097  58.007 -55.028  1.00  0.00    -0.272 N 
HETATM    5  C   UNL     1     -44.244  58.578 -54.483  1.00  0.00     0.204 A 
HETATM    6  S   UNL     1     -45.585  59.236 -55.219  1.00  0.00    -0.038 SA
ENDROOT
BRANCH   1   7
HETATM    7  C   UNL     1     -44.956  58.964 -52.041  1.00  0.00     0.388 C 
BRANCH   7   8
HETATM    8  N   UNL     1     -44.761  60.379 -51.572  1.00  0.00    -0.053 N 
HETATM    9  C   UNL     1     -46.108  61.002 -51.286  1.00  0.00     0.237 C 
HETATM   10  C   UNL     1     -45.947  62.447 -50.833  1.00  0.00     0.042 C 
HETATM   11  C   UNL     1     -45.040  62.557 -49.608  1.00  0.00     0.081 C 
HETATM   12  C   UNL     1     -43.690  61.898 -49.902  1.00  0.00     0.042 C 
HETATM   13  C   UNL     1     -43.799  60.467 -50.416  1.00  0.00     0.237 C 
HETATM   14  H   UNL     1     -44.346  60.884 -52.368  1.00  0.00     0.281 HD
BRANCH  11  15
HETATM   15  C   UNL     1     -45.727  61.913 -48.408  1.00  0.00     0.221 C 
HETATM   16  N   UNL     1     -44.873  61.352 -47.493  1.00  0.00    -0.361 N 
HETATM   17  H   UNL     1     -43.912  61.162 -47.753  1.00  0.00     0.162 HD
HETATM   18  O   UNL     1     -46.939  62.010 -48.240  1.00  0.00    -0.273 OA
BRANCH  16  19
HETATM   19  C   UNL     1     -45.366  60.694 -46.296  1.00  0.00     0.118 C 
HETATM   20  C   UNL     1     -44.550  61.063 -45.071  1.00  0.00     0.026 C 
ENDBRANCH  16  19
ENDBRANCH  11  15
ENDBRANCH   7   8
ENDBRANCH   1   7
BRANCH   3  21
HETATM   21  C   UNL     1     -40.972  56.962 -54.091  1.00  0.00     0.315 C 
BRANCH  21  22
HETATM   22  N   UNL     1     -41.124  55.445 -53.933  1.00  0.00    -0.064 N 
HETATM   23  H   UNL     1     -42.090  55.229 -54.221  1.00  0.00     0.280 HD
HETATM   24  C   UNL     1     -40.204  54.663 -54.846  1.00  0.00     0.235 C 
HETATM   25  C   UNL     1     -40.541  53.182 -54.743  1.00  0.00     0.028 C 
HETATM   26  C   UNL     1     -40.443  52.682 -53.306  1.00  0.00     0.003 C 
HETATM   27  C   UNL     1     -41.289  53.532 -52.365  1.00  0.00     0.028 C 
HETATM   28  C   UNL     1     -40.965  55.013 -52.490  1.00  0.00     0.235 C 
ENDBRANCH  21  22
ENDBRANCH   3  21
BRANCH   4  29
HETATM   29  C   UNL     1     -42.800  57.804 -56.396  1.00  0.00     0.043 A 
HETATM   30  C   UNL     1     -42.163  58.796 -57.150  1.00  0.00     0.030 A 
HETATM   31  C   UNL     1     -41.889  58.595 -58.505  1.00  0.00     0.002 A 
HETATM   32  C   UNL     1     -42.246  57.399 -59.120  1.00  0.00     0.000 A 
HETATM   33  C   UNL     1     -42.871  56.400 -58.383  1.00  0.00     0.002 A 
HETATM   34  C   UNL     1     -43.148  56.599 -57.027  1.00  0.00     0.030 A 
ENDBRANCH   4  29
TORSDOF 7
ENDMDL
MODEL 9
REMARK VINA RESULT:      -6.7      2.966      5.535
REMARK  7 active torsions:
REMARK  status: ('A' for Active; 'I' for Inactive)
REMARK    1  A    between atoms: C_2  and  N_3 
REMARK       I    between atoms: N_3  and  C_4 
REMARK    2  A    between atoms: C_4  and  C_5 
REMARK    3  A    between atoms: N_8  and  C_10 
REMARK    4  A    between atoms: C_10  and  N_11 
REMARK    5  A    between atoms: C_13  and  C_14 
REMARK    6  A    between atoms: C_14  and  N_15 
REMARK    7  A    between atoms: N_22  and  C_23 
ROOT
HETATM    1  N   UNL     1     -43.741  57.315 -54.528  1.00  0.00    -0.216 N 
HETATM    2  N   UNL     1     -43.269  58.367 -53.767  1.00  0.00    -0.153 NA
HETATM    3  C   UNL     1     -42.659  57.799 -52.759  1.00  0.00     0.160 A 
HETATM    4  N   UNL     1     -42.661  56.442 -52.788  1.00  0.00    -0.272 N 
HETATM    5  C   UNL     1     -43.385  56.093 -53.925  1.00  0.00     0.204 A 
HETATM    6  S   UNL     1     -43.706  54.601 -54.594  1.00  0.00    -0.038 SA
ENDROOT
BRANCH   1   7
HETATM    7  C   UNL     1     -44.630  57.530 -55.659  1.00  0.00     0.388 C 
BRANCH   7   8
HETATM    8  N   UNL     1     -43.941  58.251 -56.784  1.00  0.00    -0.053 N 
HETATM    9  C   UNL     1     -42.660  57.531 -57.131  1.00  0.00     0.237 C 
HETATM   10  C   UNL     1     -41.923  58.252 -58.252  1.00  0.00     0.042 C 
HETATM   11  C   UNL     1     -42.799  58.405 -59.495  1.00  0.00     0.081 C 
HETATM   12  C   UNL     1     -44.105  59.112 -59.124  1.00  0.00     0.042 C 
HETATM   13  C   UNL     1     -44.853  58.462 -57.966  1.00  0.00     0.237 C 
HETATM   14  H   UNL     1     -43.689  59.178 -56.411  1.00  0.00     0.281 HD
BRANCH  11  15
HETATM   15  C   UNL     1     -43.060  57.032 -60.106  1.00  0.00     0.221 C 
HETATM   16  N   UNL     1     -44.363  56.803 -60.464  1.00  0.00    -0.361 N 
HETATM   17  H   UNL     1     -45.097  57.398 -60.097  1.00  0.00     0.162 HD
HETATM   18  O   UNL     1     -42.138  56.260 -60.356  1.00  0.00    -0.273 OA
BRANCH  16  19
HETATM   19  C   UNL     1     -44.780  55.544 -61.055  1.00  0.00     0.118 C 
HETATM   20  C   UNL     1     -45.054  54.488 -60.000  1.00  0.00     0.026 C 
ENDBRANCH  16  19
ENDBRANCH  11  15
ENDBRANCH   7   8
ENDBRANCH   1   7
BRANCH   3  21
HETATM   21  C   UNL     1     -42.066  58.625 -51.621  1.00  0.00     0.315 C 
BRANCH  21  22
HETATM   22  N   UNL     1     -43.134  59.326 -50.774  1.00  0.00    -0.064 N 
HETATM   23  H   UNL     1     -42.930  59.067 -49.797  1.00  0.00     0.280 HD
HETATM   24  C   UNL     1     -43.056  60.835 -50.858  1.00  0.00     0.235 C 
HETATM   25  C   UNL     1     -44.036  61.441 -49.862  1.00  0.00     0.028 C 
HETATM   26  C   UNL     1     -45.459  60.950 -50.106  1.00  0.00     0.003 C 
HETATM   27  C   UNL     1     -45.524  59.427 -50.124  1.00  0.00     0.028 C 
HETATM   28  C   UNL     1     -44.526  58.827 -51.103  1.00  0.00     0.235 C 
ENDBRANCH  21  22
ENDBRANCH   3  21
BRANCH   4  29
HETATM   29  C   UNL     1     -42.031  55.576 -51.866  1.00  0.00     0.043 A 
HETATM   30  C   UNL     1     -40.956  54.767 -52.256  1.00  0.00     0.030 A 
HETATM   31  C   UNL     1     -40.351  53.900 -51.343  1.00  0.00     0.002 A 
HETATM   32  C   UNL     1     -40.809  53.834 -50.031  1.00  0.00     0.000 A 
HETATM   33  C   UNL     1     -41.869  54.638 -49.626  1.00  0.00     0.002 A 
HETATM   34  C   UNL     1     -42.479  55.505 -50.537  1.00  0.00     0.030 A 
ENDBRANCH   4  29
TORSDOF 7
ENDMDL
MODEL 10
REMARK VINA RESULT:      -6.7      3.960      8.539
REMARK  7 active torsions:
REMARK  status: ('A' for Active; 'I' for Inactive)
REMARK    1  A    between atoms: C_2  and  N_3 
REMARK       I    between atoms: N_3  and  C_4 
REMARK    2  A    between atoms: C_4  and  C_5 
REMARK    3  A    between atoms: N_8  and  C_10 
REMARK    4  A    between atoms: C_10  and  N_11 
REMARK    5  A    between atoms: C_13  and  C_14 
REMARK    6  A    between atoms: C_14  and  N_15 
REMARK    7  A    between atoms: N_22  and  C_23 
ROOT
HETATM    1  N   UNL     1     -41.281  59.149 -52.864  1.00  0.00    -0.216 N 
HETATM    2  N   UNL     1     -41.164  59.166 -54.240  1.00  0.00    -0.153 NA
HETATM    3  C   UNL     1     -42.032  60.063 -54.634  1.00  0.00     0.160 A 
HETATM    4  N   UNL     1     -42.712  60.671 -53.629  1.00  0.00    -0.272 N 
HETATM    5  C   UNL     1     -42.259  60.075 -52.455  1.00  0.00     0.204 A 
HETATM    6  S   UNL     1     -42.623  60.399 -50.862  1.00  0.00    -0.038 SA
ENDROOT
BRANCH   1   7
HETATM    7  C   UNL     1     -40.597  58.152 -52.053  1.00  0.00     0.388 C 
BRANCH   7   8
HETATM    8  N   UNL     1     -41.503  57.009 -51.688  1.00  0.00    -0.053 N 
HETATM    9  C   UNL     1     -41.670  56.101 -52.884  1.00  0.00     0.237 C 
HETATM   10  C   UNL     1     -42.605  54.944 -52.555  1.00  0.00     0.042 C 
HETATM   11  C   UNL     1     -42.112  54.147 -51.348  1.00  0.00     0.081 C 
HETATM   12  C   UNL     1     -41.922  55.083 -50.152  1.00  0.00     0.042 C 
HETATM   13  C   UNL     1     -41.040  56.291 -50.447  1.00  0.00     0.237 C 
HETATM   14  H   UNL     1     -42.421  57.431 -51.485  1.00  0.00     0.281 HD
BRANCH  11  15
HETATM   15  C   UNL     1     -40.817  53.427 -51.708  1.00  0.00     0.221 C 
HETATM   16  N   UNL     1     -40.869  52.702 -52.870  1.00  0.00    -0.361 N 
HETATM   17  H   UNL     1     -41.767  52.469 -53.278  1.00  0.00     0.162 HD
HETATM   18  O   UNL     1     -39.791  53.598 -51.055  1.00  0.00    -0.273 OA
BRANCH  16  19
HETATM   19  C   UNL     1     -39.721  51.953 -53.352  1.00  0.00     0.118 C 
HETATM   20  C   UNL     1     -40.133  50.815 -54.267  1.00  0.00     0.026 C 
ENDBRANCH  16  19
ENDBRANCH  11  15
ENDBRANCH   7   8
ENDBRANCH   1   7
BRANCH   3  21
HETATM   21  C   UNL     1     -42.284  60.328 -56.116  1.00  0.00     0.315 C 
BRANCH  21  22
HETATM   22  N   UNL     1     -42.302  59.045 -56.955  1.00  0.00    -0.064 N 
HETATM   23  H   UNL     1     -41.514  58.475 -56.611  1.00  0.00     0.280 HD
HETATM   24  C   UNL     1     -43.561  58.228 -56.755  1.00  0.00     0.235 C 
HETATM   25  C   UNL     1     -43.416  56.902 -57.490  1.00  0.00     0.028 C 
HETATM   26  C   UNL     1     -43.127  57.111 -58.972  1.00  0.00     0.003 C 
HETATM   27  C   UNL     1     -41.919  58.019 -59.178  1.00  0.00     0.028 C 
HETATM   28  C   UNL     1     -42.059  59.331 -58.422  1.00  0.00     0.235 C 
ENDBRANCH  21  22
ENDBRANCH   3  21
BRANCH   4  29
HETATM   29  C   UNL     1     -43.661  61.711 -53.759  1.00  0.00     0.043 A 
HETATM   30  C   UNL     1     -45.026  61.429 -53.886  1.00  0.00     0.030 A 
HETATM   31  C   UNL     1     -45.955  62.462 -54.032  1.00  0.00     0.002 A 
HETATM   32  C   UNL     1     -45.531  63.788 -54.048  1.00  0.00     0.000 A 
HETATM   33  C   UNL     1     -44.179  64.084 -53.913  1.00  0.00     0.002 A 
HETATM   34  C   UNL     1     -43.247  63.053 -53.769  1.00  0.00     0.030 A 
ENDBRANCH   4  29
TORSDOF 7
ENDMDL
