MODEL 1
REMARK VINA RESULT:      -9.0      0.000      0.000
REMARK  6 active torsions:
REMARK  status: ('A' for Active; 'I' for Inactive)
REMARK    1  A    between atoms: O_2  and  C_3 
REMARK    2  A    between atoms: C_6  and  C_7 
REMARK    3  A    between atoms: C_7  and  N_8 
REMARK       I    between atoms: N_8  and  C_9 
REMARK    4  A    between atoms: C_9  and  C_10 
REMARK    5  A    between atoms: C_10  and  S_11 
REMARK    6  A    between atoms: S_11  and  C_12 
ROOT
HETATM    1  C   UNL     1     -42.798  56.137 -54.789  1.00  0.00     0.198 A 
HETATM    2  N   UNL     1     -42.194  55.703 -53.619  1.00  0.00    -0.257 N 
HETATM    3  C   UNL     1     -41.765  54.420 -53.964  1.00  0.00     0.173 A 
HETATM    4  C   UNL     1     -41.045  53.579 -52.977  1.00  0.00     0.053 A 
HETATM    5  C   UNL     1     -40.859  54.151 -51.737  1.00  0.00     0.090 A 
HETATM    6  S   UNL     1     -40.040  53.096 -50.683  1.00  0.00    -0.075 SA
HETATM    7  C   UNL     1     -39.940  51.888 -51.886  1.00  0.00    -0.008 A 
HETATM    8  C   UNL     1     -40.507  52.273 -53.091  1.00  0.00    -0.028 A 
HETATM    9  C   UNL     1     -40.536  51.370 -54.286  1.00  0.00     0.041 C 
HETATM   10  C   UNL     1     -39.551  50.198 -54.136  1.00  0.00     0.005 C 
HETATM   11  C   UNL     1     -39.626  49.566 -52.739  1.00  0.00     0.005 C 
HETATM   12  C   UNL     1     -39.264  50.575 -51.637  1.00  0.00     0.047 C 
HETATM   13  N   UNL     1     -41.286  55.402 -51.414  1.00  0.00    -0.336 N 
HETATM   14  C   UNL     1     -41.962  56.248 -52.312  1.00  0.00     0.106 A 
HETATM   15  C   UNL     1     -42.335  57.471 -51.897  1.00  0.00     0.064 C 
HETATM   16  N   UNL     1     -42.089  54.117 -55.196  1.00  0.00    -0.128 NA
HETATM   17  N   UNL     1     -42.744  55.200 -55.716  1.00  0.00    -0.122 NA
HETATM   18  H   UNL     1     -41.111  55.766 -50.482  1.00  0.00     0.168 HD
ENDROOT
BRANCH   1  19
HETATM   19  S   UNL     1     -43.538  57.683 -55.048  1.00  0.00    -0.080 SA
BRANCH  19  20
HETATM   20  C   UNL     1     -42.152  58.582 -55.809  1.00  0.00     0.185 C 
BRANCH  20  21
HETATM   21  C   UNL     1     -42.312  58.632 -57.318  1.00  0.00     0.227 C 
HETATM   22  N   UNL     1     -42.161  57.421 -57.961  1.00  0.00    -0.356 N 
HETATM   23  H   UNL     1     -42.300  56.581 -57.414  1.00  0.00     0.162 HD
HETATM   24  O   UNL     1     -42.493  59.687 -57.922  1.00  0.00    -0.273 OA
BRANCH  22  25
HETATM   25  C   UNL     1     -42.346  57.332 -59.392  1.00  0.00     0.161 C 
BRANCH  25  26
HETATM   26  C   UNL     1     -43.752  56.937 -59.764  1.00  0.00    -0.040 A 
HETATM   27  C   UNL     1     -44.728  57.920 -59.973  1.00  0.00     0.011 A 
HETATM   28  C   UNL     1     -46.018  57.564 -60.375  1.00  0.00     0.037 A 
HETATM   29  C   UNL     1     -46.356  56.226 -60.586  1.00  0.00     0.068 A 
HETATM   30  C   UNL     1     -45.391  55.241 -60.379  1.00  0.00     0.037 A 
HETATM   31  C   UNL     1     -44.098  55.595 -59.980  1.00  0.00     0.011 A 
BRANCH  29  32
HETATM   32  O   UNL     1     -47.645  56.018 -60.991  1.00  0.00    -0.356 OA
HETATM   33  C   UNL     1     -48.192  56.970 -61.895  1.00  0.00     0.210 C 
ENDBRANCH  29  32
ENDBRANCH  25  26
ENDBRANCH  22  25
ENDBRANCH  20  21
ENDBRANCH  19  20
ENDBRANCH   1  19
TORSDOF 6
ENDMDL
MODEL 2
REMARK VINA RESULT:      -8.7      3.747      6.187
REMARK  6 active torsions:
REMARK  status: ('A' for Active; 'I' for Inactive)
REMARK    1  A    between atoms: O_2  and  C_3 
REMARK    2  A    between atoms: C_6  and  C_7 
REMARK    3  A    between atoms: C_7  and  N_8 
REMARK       I    between atoms: N_8  and  C_9 
REMARK    4  A    between atoms: C_9  and  C_10 
REMARK    5  A    between atoms: C_10  and  S_11 
REMARK    6  A    between atoms: S_11  and  C_12 
ROOT
HETATM    1  C   UNL     1     -42.919  56.071 -54.819  1.00  0.00     0.198 A 
HETATM    2  N   UNL     1     -42.354  55.633 -53.631  1.00  0.00    -0.257 N 
HETATM    3  C   UNL     1     -41.856  54.377 -53.982  1.00  0.00     0.173 A 
HETATM    4  C   UNL     1     -41.149  53.543 -52.980  1.00  0.00     0.053 A 
HETATM    5  C   UNL     1     -41.047  54.091 -51.721  1.00  0.00     0.090 A 
HETATM    6  S   UNL     1     -40.236  53.046 -50.652  1.00  0.00    -0.075 SA
HETATM    7  C   UNL     1     -40.028  51.872 -51.876  1.00  0.00    -0.008 A 
HETATM    8  C   UNL     1     -40.552  52.263 -53.097  1.00  0.00    -0.028 A 
HETATM    9  C   UNL     1     -40.486  51.389 -54.312  1.00  0.00     0.041 C 
HETATM   10  C   UNL     1     -39.462  50.255 -54.141  1.00  0.00     0.005 C 
HETATM   11  C   UNL     1     -39.576  49.587 -52.763  1.00  0.00     0.005 C 
HETATM   12  C   UNL     1     -39.311  50.582 -51.623  1.00  0.00     0.047 C 
HETATM   13  N   UNL     1     -41.541  55.316 -51.391  1.00  0.00    -0.336 N 
HETATM   14  C   UNL     1     -42.208  56.156 -52.302  1.00  0.00     0.106 A 
HETATM   15  C   UNL     1     -42.651  57.351 -51.878  1.00  0.00     0.064 C 
HETATM   16  N   UNL     1     -42.108  54.092 -55.236  1.00  0.00    -0.128 NA
HETATM   17  N   UNL     1     -42.782  55.160 -55.762  1.00  0.00    -0.122 NA
HETATM   18  H   UNL     1     -41.427  55.664 -50.443  1.00  0.00     0.168 HD
ENDROOT
BRANCH   1  19
HETATM   19  S   UNL     1     -43.710  57.591 -55.078  1.00  0.00    -0.080 SA
BRANCH  19  20
HETATM   20  C   UNL     1     -42.285  58.623 -55.543  1.00  0.00     0.185 C 
BRANCH  20  21
HETATM   21  C   UNL     1     -41.958  59.610 -54.437  1.00  0.00     0.227 C 
HETATM   22  N   UNL     1     -42.964  60.504 -54.136  1.00  0.00    -0.356 N 
HETATM   23  H   UNL     1     -43.910  60.246 -54.391  1.00  0.00     0.162 HD
HETATM   24  O   UNL     1     -40.852  59.651 -53.903  1.00  0.00    -0.273 OA
BRANCH  22  25
HETATM   25  C   UNL     1     -42.792  61.457 -53.063  1.00  0.00     0.161 C 
BRANCH  25  26
HETATM   26  C   UNL     1     -43.632  61.121 -51.858  1.00  0.00    -0.040 A 
HETATM   27  C   UNL     1     -43.203  61.488 -50.577  1.00  0.00     0.011 A 
HETATM   28  C   UNL     1     -44.004  61.231 -49.461  1.00  0.00     0.037 A 
HETATM   29  C   UNL     1     -45.249  60.616 -49.602  1.00  0.00     0.068 A 
HETATM   30  C   UNL     1     -45.683  60.245 -50.874  1.00  0.00     0.037 A 
HETATM   31  C   UNL     1     -44.884  60.505 -51.993  1.00  0.00     0.011 A 
BRANCH  29  32
HETATM   32  O   UNL     1     -45.935  60.438 -48.433  1.00  0.00    -0.356 OA
HETATM   33  C   UNL     1     -46.061  61.573 -47.586  1.00  0.00     0.210 C 
ENDBRANCH  29  32
ENDBRANCH  25  26
ENDBRANCH  22  25
ENDBRANCH  20  21
ENDBRANCH  19  20
ENDBRANCH   1  19
TORSDOF 6
ENDMDL
MODEL 3
REMARK VINA RESULT:      -8.5      1.762      2.395
REMARK  6 active torsions:
REMARK  status: ('A' for Active; 'I' for Inactive)
REMARK    1  A    between atoms: O_2  and  C_3 
REMARK    2  A    between atoms: C_6  and  C_7 
REMARK    3  A    between atoms: C_7  and  N_8 
REMARK       I    between atoms: N_8  and  C_9 
REMARK    4  A    between atoms: C_9  and  C_10 
REMARK    5  A    between atoms: C_10  and  S_11 
REMARK    6  A    between atoms: S_11  and  C_12 
ROOT
HETATM    1  C   UNL     1     -43.917  57.481 -53.975  1.00  0.00     0.198 A 
HETATM    2  N   UNL     1     -43.199  56.951 -52.913  1.00  0.00    -0.257 N 
HETATM    3  C   UNL     1     -42.642  55.801 -53.474  1.00  0.00     0.173 A 
HETATM    4  C   UNL     1     -41.772  54.916 -52.662  1.00  0.00     0.053 A 
HETATM    5  C   UNL     1     -41.585  55.308 -51.355  1.00  0.00     0.090 A 
HETATM    6  S   UNL     1     -40.588  54.215 -50.515  1.00  0.00    -0.075 SA
HETATM    7  C   UNL     1     -40.414  53.230 -51.899  1.00  0.00    -0.008 A 
HETATM    8  C   UNL     1     -41.090  53.721 -53.004  1.00  0.00    -0.028 A 
HETATM    9  C   UNL     1     -41.080  53.018 -54.327  1.00  0.00     0.041 C 
HETATM   10  C   UNL     1     -39.956  51.970 -54.404  1.00  0.00     0.005 C 
HETATM   11  C   UNL     1     -39.875  51.126 -53.124  1.00  0.00     0.005 C 
HETATM   12  C   UNL     1     -39.574  51.990 -51.889  1.00  0.00     0.047 C 
HETATM   13  N   UNL     1     -42.138  56.430 -50.820  1.00  0.00    -0.336 N 
HETATM   14  C   UNL     1     -42.960  57.313 -51.545  1.00  0.00     0.106 A 
HETATM   15  C   UNL     1     -43.452  58.400 -50.926  1.00  0.00     0.064 C 
HETATM   16  N   UNL     1     -42.997  55.654 -54.726  1.00  0.00    -0.128 NA
HETATM   17  N   UNL     1     -43.805  56.713 -55.040  1.00  0.00    -0.122 NA
HETATM   18  H   UNL     1     -41.956  56.665 -49.848  1.00  0.00     0.168 HD
ENDROOT
BRANCH   1  19
HETATM   19  S   UNL     1     -44.848  58.943 -53.954  1.00  0.00    -0.080 SA
BRANCH  19  20
HETATM   20  C   UNL     1     -43.513  60.178 -53.929  1.00  0.00     0.185 C 
BRANCH  20  21
HETATM   21  C   UNL     1     -42.492  59.882 -55.012  1.00  0.00     0.227 C 
HETATM   22  N   UNL     1     -42.993  59.855 -56.296  1.00  0.00    -0.356 N 
HETATM   23  H   UNL     1     -43.862  60.346 -56.469  1.00  0.00     0.162 HD
HETATM   24  O   UNL     1     -41.320  59.617 -54.751  1.00  0.00    -0.273 OA
BRANCH  22  25
HETATM   25  C   UNL     1     -42.107  59.639 -57.417  1.00  0.00     0.161 C 
BRANCH  25  26
HETATM   26  C   UNL     1     -42.662  58.643 -58.402  1.00  0.00    -0.040 A 
HETATM   27  C   UNL     1     -41.818  58.031 -59.337  1.00  0.00     0.011 A 
HETATM   28  C   UNL     1     -42.315  57.064 -60.215  1.00  0.00     0.037 A 
HETATM   29  C   UNL     1     -43.656  56.681 -60.171  1.00  0.00     0.068 A 
HETATM   30  C   UNL     1     -44.504  57.287 -59.245  1.00  0.00     0.037 A 
HETATM   31  C   UNL     1     -44.009  58.253 -58.362  1.00  0.00     0.011 A 
BRANCH  29  32
HETATM   32  O   UNL     1     -44.006  55.716 -61.073  1.00  0.00    -0.356 OA
HETATM   33  C   UNL     1     -45.042  54.822 -60.684  1.00  0.00     0.210 C 
ENDBRANCH  29  32
ENDBRANCH  25  26
ENDBRANCH  22  25
ENDBRANCH  20  21
ENDBRANCH  19  20
ENDBRANCH   1  19
TORSDOF 6
ENDMDL
MODEL 4
REMARK VINA RESULT:      -8.5      1.837      2.830
REMARK  6 active torsions:
REMARK  status: ('A' for Active; 'I' for Inactive)
REMARK    1  A    between atoms: O_2  and  C_3 
REMARK    2  A    between atoms: C_6  and  C_7 
REMARK    3  A    between atoms: C_7  and  N_8 
REMARK       I    between atoms: N_8  and  C_9 
REMARK    4  A    between atoms: C_9  and  C_10 
REMARK    5  A    between atoms: C_10  and  S_11 
REMARK    6  A    between atoms: S_11  and  C_12 
ROOT
HETATM    1  C   UNL     1     -42.009  56.388 -54.856  1.00  0.00     0.198 A 
HETATM    2  N   UNL     1     -41.617  55.866 -53.632  1.00  0.00    -0.257 N 
HETATM    3  C   UNL     1     -41.248  54.563 -53.969  1.00  0.00     0.173 A 
HETATM    4  C   UNL     1     -40.748  53.632 -52.929  1.00  0.00     0.053 A 
HETATM    5  C   UNL     1     -40.697  54.145 -51.651  1.00  0.00     0.090 A 
HETATM    6  S   UNL     1     -40.126  52.991 -50.539  1.00  0.00    -0.075 SA
HETATM    7  C   UNL     1     -39.952  51.818 -51.769  1.00  0.00    -0.008 A 
HETATM    8  C   UNL     1     -40.306  52.288 -53.023  1.00  0.00    -0.028 A 
HETATM    9  C   UNL     1     -40.236  51.430 -54.249  1.00  0.00     0.041 C 
HETATM   10  C   UNL     1     -39.381  50.173 -54.014  1.00  0.00     0.005 C 
HETATM   11  C   UNL     1     -39.707  49.506 -52.670  1.00  0.00     0.005 C 
HETATM   12  C   UNL     1     -39.428  50.444 -51.485  1.00  0.00     0.047 C 
HETATM   13  N   UNL     1     -41.063  55.417 -51.337  1.00  0.00    -0.336 N 
HETATM   14  C   UNL     1     -41.532  56.347 -52.283  1.00  0.00     0.106 A 
HETATM   15  C   UNL     1     -41.861  57.584 -51.871  1.00  0.00     0.064 C 
HETATM   16  N   UNL     1     -41.415  54.328 -55.247  1.00  0.00    -0.128 NA
HETATM   17  N   UNL     1     -41.898  55.480 -55.805  1.00  0.00    -0.122 NA
HETATM   18  H   UNL     1     -40.996  55.735 -50.374  1.00  0.00     0.168 HD
ENDROOT
BRANCH   1  19
HETATM   19  S   UNL     1     -42.577  58.000 -55.147  1.00  0.00    -0.080 SA
BRANCH  19  20
HETATM   20  C   UNL     1     -44.370  57.703 -55.225  1.00  0.00     0.185 C 
BRANCH  20  21
HETATM   21  C   UNL     1     -44.863  57.786 -56.658  1.00  0.00     0.227 C 
HETATM   22  N   UNL     1     -44.181  56.993 -57.557  1.00  0.00    -0.356 N 
HETATM   23  H   UNL     1     -43.673  56.199 -57.188  1.00  0.00     0.162 HD
HETATM   24  O   UNL     1     -45.758  58.557 -56.998  1.00  0.00    -0.273 OA
BRANCH  22  25
HETATM   25  C   UNL     1     -44.595  56.944 -58.941  1.00  0.00     0.161 C 
BRANCH  25  26
HETATM   26  C   UNL     1     -43.876  57.961 -59.790  1.00  0.00    -0.040 A 
HETATM   27  C   UNL     1     -44.578  59.040 -60.342  1.00  0.00     0.011 A 
HETATM   28  C   UNL     1     -43.907  60.017 -61.082  1.00  0.00     0.037 A 
HETATM   29  C   UNL     1     -42.527  59.945 -61.274  1.00  0.00     0.068 A 
HETATM   30  C   UNL     1     -41.821  58.874 -60.730  1.00  0.00     0.037 A 
HETATM   31  C   UNL     1     -42.489  57.895 -59.986  1.00  0.00     0.011 A 
BRANCH  29  32
HETATM   32  O   UNL     1     -41.996  60.973 -62.003  1.00  0.00    -0.356 OA
HETATM   33  C   UNL     1     -41.228  61.933 -61.288  1.00  0.00     0.210 C 
ENDBRANCH  29  32
ENDBRANCH  25  26
ENDBRANCH  22  25
ENDBRANCH  20  21
ENDBRANCH  19  20
ENDBRANCH   1  19
TORSDOF 6
ENDMDL
MODEL 5
REMARK VINA RESULT:      -8.4      3.229      8.288
REMARK  6 active torsions:
REMARK  status: ('A' for Active; 'I' for Inactive)
REMARK    1  A    between atoms: O_2  and  C_3 
REMARK    2  A    between atoms: C_6  and  C_7 
REMARK    3  A    between atoms: C_7  and  N_8 
REMARK       I    between atoms: N_8  and  C_9 
REMARK    4  A    between atoms: C_9  and  C_10 
REMARK    5  A    between atoms: C_10  and  S_11 
REMARK    6  A    between atoms: S_11  and  C_12 
ROOT
HETATM    1  C   UNL     1     -41.790  57.925 -54.569  1.00  0.00     0.198 A 
HETATM    2  N   UNL     1     -42.698  58.438 -55.483  1.00  0.00    -0.257 N 
HETATM    3  C   UNL     1     -42.877  57.366 -56.359  1.00  0.00     0.173 A 
HETATM    4  C   UNL     1     -43.799  57.487 -57.514  1.00  0.00     0.053 A 
HETATM    5  C   UNL     1     -44.424  58.708 -57.646  1.00  0.00     0.090 A 
HETATM    6  S   UNL     1     -45.441  58.741 -59.009  1.00  0.00    -0.075 SA
HETATM    7  C   UNL     1     -45.041  57.130 -59.411  1.00  0.00    -0.008 A 
HETATM    8  C   UNL     1     -44.153  56.551 -58.518  1.00  0.00    -0.028 A 
HETATM    9  C   UNL     1     -43.661  55.146 -58.676  1.00  0.00     0.041 C 
HETATM   10  C   UNL     1     -44.533  54.346 -59.659  1.00  0.00     0.005 C 
HETATM   11  C   UNL     1     -44.857  55.156 -60.922  1.00  0.00     0.005 C 
HETATM   12  C   UNL     1     -45.641  56.436 -60.595  1.00  0.00     0.047 C 
HETATM   13  N   UNL     1     -44.237  59.746 -56.786  1.00  0.00    -0.336 N 
HETATM   14  C   UNL     1     -43.385  59.684 -55.668  1.00  0.00     0.106 A 
HETATM   15  C   UNL     1     -43.276  60.763 -54.874  1.00  0.00     0.064 C 
HETATM   16  N   UNL     1     -42.148  56.334 -56.015  1.00  0.00    -0.128 NA
HETATM   17  N   UNL     1     -41.459  56.688 -54.887  1.00  0.00    -0.122 NA
HETATM   18  H   UNL     1     -44.733  60.619 -56.938  1.00  0.00     0.168 HD
ENDROOT
BRANCH   1  19
HETATM   19  S   UNL     1     -41.146  58.752 -53.188  1.00  0.00    -0.080 SA
BRANCH  19  20
HETATM   20  C   UNL     1     -42.384  58.301 -51.934  1.00  0.00     0.185 C 
BRANCH  20  21
HETATM   21  C   UNL     1     -41.903  57.121 -51.109  1.00  0.00     0.227 C 
HETATM   22  N   UNL     1     -42.554  55.931 -51.356  1.00  0.00    -0.356 N 
HETATM   23  H   UNL     1     -43.025  55.832 -52.246  1.00  0.00     0.162 HD
HETATM   24  O   UNL     1     -41.044  57.240 -50.237  1.00  0.00    -0.273 OA
BRANCH  22  25
HETATM   25  C   UNL     1     -42.146  54.725 -50.672  1.00  0.00     0.161 C 
BRANCH  25  26
HETATM   26  C   UNL     1     -41.357  53.801 -51.562  1.00  0.00    -0.040 A 
HETATM   27  C   UNL     1     -40.393  52.946 -51.012  1.00  0.00     0.011 A 
HETATM   28  C   UNL     1     -39.698  52.046 -51.824  1.00  0.00     0.037 A 
HETATM   29  C   UNL     1     -39.958  51.972 -53.194  1.00  0.00     0.068 A 
HETATM   30  C   UNL     1     -40.914  52.820 -53.750  1.00  0.00     0.037 A 
HETATM   31  C   UNL     1     -41.614  53.721 -52.939  1.00  0.00     0.011 A 
BRANCH  29  32
HETATM   32  O   UNL     1     -39.219  51.039 -53.867  1.00  0.00    -0.356 OA
HETATM   33  C   UNL     1     -39.926  49.923 -54.394  1.00  0.00     0.210 C 
ENDBRANCH  29  32
ENDBRANCH  25  26
ENDBRANCH  22  25
ENDBRANCH  20  21
ENDBRANCH  19  20
ENDBRANCH   1  19
TORSDOF 6
ENDMDL
MODEL 6
REMARK VINA RESULT:      -8.1      3.632      8.946
REMARK  6 active torsions:
REMARK  status: ('A' for Active; 'I' for Inactive)
REMARK    1  A    between atoms: O_2  and  C_3 
REMARK    2  A    between atoms: C_6  and  C_7 
REMARK    3  A    between atoms: C_7  and  N_8 
REMARK       I    between atoms: N_8  and  C_9 
REMARK    4  A    between atoms: C_9  and  C_10 
REMARK    5  A    between atoms: C_10  and  S_11 
REMARK    6  A    between atoms: S_11  and  C_12 
ROOT
HETATM    1  C   UNL     1     -43.771  57.223 -53.162  1.00  0.00     0.198 A 
HETATM    2  N   UNL     1     -43.528  56.592 -54.373  1.00  0.00    -0.257 N 
HETATM    3  C   UNL     1     -43.719  57.626 -55.291  1.00  0.00     0.173 A 
HETATM    4  C   UNL     1     -43.548  57.381 -56.744  1.00  0.00     0.053 A 
HETATM    5  C   UNL     1     -43.214  56.090 -57.091  1.00  0.00     0.090 A 
HETATM    6  S   UNL     1     -43.061  55.918 -58.776  1.00  0.00    -0.075 SA
HETATM    7  C   UNL     1     -43.441  57.565 -59.030  1.00  0.00    -0.008 A 
HETATM    8  C   UNL     1     -43.670  58.257 -57.852  1.00  0.00    -0.028 A 
HETATM    9  C   UNL     1     -44.023  59.713 -57.835  1.00  0.00     0.041 C 
HETATM   10  C   UNL     1     -43.709  60.388 -59.180  1.00  0.00     0.005 C 
HETATM   11  C   UNL     1     -44.175  59.535 -60.369  1.00  0.00     0.005 C 
HETATM   12  C   UNL     1     -43.473  58.168 -60.400  1.00  0.00     0.047 C 
HETATM   13  N   UNL     1     -43.036  55.091 -56.184  1.00  0.00    -0.336 N 
HETATM   14  C   UNL     1     -43.171  55.268 -54.795  1.00  0.00     0.106 A 
HETATM   15  C   UNL     1     -42.966  54.217 -53.983  1.00  0.00     0.064 C 
HETATM   16  N   UNL     1     -44.051  58.745 -54.697  1.00  0.00    -0.128 NA
HETATM   17  N   UNL     1     -44.087  58.489 -53.353  1.00  0.00    -0.122 NA
HETATM   18  H   UNL     1     -42.785  54.161 -56.507  1.00  0.00     0.168 HD
ENDROOT
BRANCH   1  19
HETATM   19  S   UNL     1     -43.687  56.494 -51.592  1.00  0.00    -0.080 SA
BRANCH  19  20
HETATM   20  C   UNL     1     -42.024  57.021 -51.078  1.00  0.00     0.185 C 
BRANCH  20  21
HETATM   21  C   UNL     1     -41.384  55.974 -50.185  1.00  0.00     0.227 C 
HETATM   22  N   UNL     1     -41.236  54.728 -50.758  1.00  0.00    -0.356 N 
HETATM   23  H   UNL     1     -41.228  54.677 -51.769  1.00  0.00     0.162 HD
HETATM   24  O   UNL     1     -41.087  56.206 -49.014  1.00  0.00    -0.273 OA
BRANCH  22  25
HETATM   25  C   UNL     1     -40.590  53.664 -50.024  1.00  0.00     0.161 C 
BRANCH  25  26
HETATM   26  C   UNL     1     -40.308  52.462 -50.888  1.00  0.00    -0.040 A 
HETATM   27  C   UNL     1     -40.120  52.615 -52.267  1.00  0.00     0.011 A 
HETATM   28  C   UNL     1     -39.801  51.513 -53.066  1.00  0.00     0.037 A 
HETATM   29  C   UNL     1     -39.653  50.243 -52.504  1.00  0.00     0.068 A 
HETATM   30  C   UNL     1     -39.840  50.082 -51.132  1.00  0.00     0.037 A 
HETATM   31  C   UNL     1     -40.156  51.184 -50.330  1.00  0.00     0.011 A 
BRANCH  29  32
HETATM   32  O   UNL     1     -39.326  49.259 -53.394  1.00  0.00    -0.356 OA
HETATM   33  C   UNL     1     -39.576  49.530 -54.768  1.00  0.00     0.210 C 
ENDBRANCH  29  32
ENDBRANCH  25  26
ENDBRANCH  22  25
ENDBRANCH  20  21
ENDBRANCH  19  20
ENDBRANCH   1  19
TORSDOF 6
ENDMDL
MODEL 7
REMARK VINA RESULT:      -8.1      2.239      3.523
REMARK  6 active torsions:
REMARK  status: ('A' for Active; 'I' for Inactive)
REMARK    1  A    between atoms: O_2  and  C_3 
REMARK    2  A    between atoms: C_6  and  C_7 
REMARK    3  A    between atoms: C_7  and  N_8 
REMARK       I    between atoms: N_8  and  C_9 
REMARK    4  A    between atoms: C_9  and  C_10 
REMARK    5  A    between atoms: C_10  and  S_11 
REMARK    6  A    between atoms: S_11  and  C_12 
ROOT
HETATM    1  C   UNL     1     -43.222  58.070 -52.221  1.00  0.00     0.198 A 
HETATM    2  N   UNL     1     -43.350  57.034 -53.135  1.00  0.00    -0.257 N 
HETATM    3  C   UNL     1     -42.385  56.127 -52.695  1.00  0.00     0.173 A 
HETATM    4  C   UNL     1     -42.184  54.841 -53.406  1.00  0.00     0.053 A 
HETATM    5  C   UNL     1     -42.992  54.640 -54.503  1.00  0.00     0.090 A 
HETATM    6  S   UNL     1     -42.666  53.147 -55.250  1.00  0.00    -0.075 SA
HETATM    7  C   UNL     1     -41.452  52.782 -54.105  1.00  0.00    -0.008 A 
HETATM    8  C   UNL     1     -41.293  53.770 -53.147  1.00  0.00    -0.028 A 
HETATM    9  C   UNL     1     -40.282  53.663 -52.047  1.00  0.00     0.041 C 
HETATM   10  C   UNL     1     -39.767  52.222 -51.887  1.00  0.00     0.005 C 
HETATM   11  C   UNL     1     -39.445  51.579 -53.244  1.00  0.00     0.005 C 
HETATM   12  C   UNL     1     -40.687  51.494 -54.145  1.00  0.00     0.047 C 
HETATM   13  N   UNL     1     -43.926  55.536 -54.923  1.00  0.00    -0.336 N 
HETATM   14  C   UNL     1     -44.170  56.764 -54.282  1.00  0.00     0.106 A 
HETATM   15  C   UNL     1     -45.122  57.576 -54.772  1.00  0.00     0.064 C 
HETATM   16  N   UNL     1     -41.744  56.576 -51.644  1.00  0.00    -0.128 NA
HETATM   17  N   UNL     1     -42.271  57.803 -51.348  1.00  0.00    -0.122 NA
HETATM   18  H   UNL     1     -44.494  55.323 -55.739  1.00  0.00     0.168 HD
ENDROOT
BRANCH   1  19
HETATM   19  S   UNL     1     -44.156  59.530 -52.190  1.00  0.00    -0.080 SA
BRANCH  19  20
HETATM   20  C   UNL     1     -42.872  60.745 -52.618  1.00  0.00     0.185 C 
BRANCH  20  21
HETATM   21  C   UNL     1     -42.094  60.292 -53.840  1.00  0.00     0.227 C 
HETATM   22  N   UNL     1     -42.763  60.423 -55.040  1.00  0.00    -0.356 N 
HETATM   23  H   UNL     1     -43.524  61.090 -55.079  1.00  0.00     0.162 HD
HETATM   24  O   UNL     1     -40.980  59.780 -53.755  1.00  0.00    -0.273 OA
BRANCH  22  25
HETATM   25  C   UNL     1     -42.105  60.077 -56.279  1.00  0.00     0.161 C 
BRANCH  25  26
HETATM   26  C   UNL     1     -42.882  59.062 -57.075  1.00  0.00    -0.040 A 
HETATM   27  C   UNL     1     -44.109  59.410 -57.656  1.00  0.00     0.011 A 
HETATM   28  C   UNL     1     -44.806  58.491 -58.443  1.00  0.00     0.037 A 
HETATM   29  C   UNL     1     -44.291  57.214 -58.678  1.00  0.00     0.068 A 
HETATM   30  C   UNL     1     -43.072  56.859 -58.103  1.00  0.00     0.037 A 
HETATM   31  C   UNL     1     -42.369  57.779 -57.316  1.00  0.00     0.011 A 
BRANCH  29  32
HETATM   32  O   UNL     1     -45.067  56.422 -59.477  1.00  0.00    -0.356 OA
HETATM   33  C   UNL     1     -44.405  55.369 -60.168  1.00  0.00     0.210 C 
ENDBRANCH  29  32
ENDBRANCH  25  26
ENDBRANCH  22  25
ENDBRANCH  20  21
ENDBRANCH  19  20
ENDBRANCH   1  19
TORSDOF 6
ENDMDL
MODEL 8
REMARK VINA RESULT:      -7.9     15.341     18.110
REMARK  6 active torsions:
REMARK  status: ('A' for Active; 'I' for Inactive)
REMARK    1  A    between atoms: O_2  and  C_3 
REMARK    2  A    between atoms: C_6  and  C_7 
REMARK    3  A    between atoms: C_7  and  N_8 
REMARK       I    between atoms: N_8  and  C_9 
REMARK    4  A    between atoms: C_9  and  C_10 
REMARK    5  A    between atoms: C_10  and  S_11 
REMARK    6  A    between atoms: S_11  and  C_12 
ROOT
HETATM    1  C   UNL     1     -34.450  38.499 -52.842  1.00  0.00     0.198 A 
HETATM    2  N   UNL     1     -33.927  38.350 -54.118  1.00  0.00    -0.257 N 
HETATM    3  C   UNL     1     -35.079  38.271 -54.904  1.00  0.00     0.173 A 
HETATM    4  C   UNL     1     -34.974  38.109 -56.375  1.00  0.00     0.053 A 
HETATM    5  C   UNL     1     -33.691  38.031 -56.871  1.00  0.00     0.090 A 
HETATM    6  S   UNL     1     -33.689  37.829 -58.560  1.00  0.00    -0.075 SA
HETATM    7  C   UNL     1     -35.396  37.849 -58.616  1.00  0.00    -0.008 A 
HETATM    8  C   UNL     1     -35.979  38.021 -57.371  1.00  0.00    -0.028 A 
HETATM    9  C   UNL     1     -37.464  38.065 -57.181  1.00  0.00     0.041 C 
HETATM   10  C   UNL     1     -38.199  38.297 -58.512  1.00  0.00     0.005 C 
HETATM   11  C   UNL     1     -37.630  37.421 -59.637  1.00  0.00     0.005 C 
HETATM   12  C   UNL     1     -36.148  37.729 -59.905  1.00  0.00     0.047 C 
HETATM   13  N   UNL     1     -32.578  38.104 -56.092  1.00  0.00    -0.336 N 
HETATM   14  C   UNL     1     -32.616  38.271 -54.695  1.00  0.00     0.106 A 
HETATM   15  C   UNL     1     -31.458  38.340 -54.017  1.00  0.00     0.064 C 
HETATM   16  N   UNL     1     -36.166  38.352 -54.178  1.00  0.00    -0.128 NA
HETATM   17  N   UNL     1     -35.768  38.492 -52.876  1.00  0.00    -0.122 NA
HETATM   18  H   UNL     1     -31.659  38.045 -56.523  1.00  0.00     0.168 HD
ENDROOT
BRANCH   1  19
HETATM   19  S   UNL     1     -33.540  38.672 -51.377  1.00  0.00    -0.080 SA
BRANCH  19  20
HETATM   20  C   UNL     1     -33.216  40.462 -51.406  1.00  0.00     0.185 C 
BRANCH  20  21
HETATM   21  C   UNL     1     -34.463  41.224 -51.816  1.00  0.00     0.227 C 
HETATM   22  N   UNL     1     -34.501  41.613 -53.139  1.00  0.00    -0.356 N 
HETATM   23  H   UNL     1     -33.920  41.103 -53.792  1.00  0.00     0.162 HD
HETATM   24  O   UNL     1     -35.338  41.530 -51.008  1.00  0.00    -0.273 OA
BRANCH  22  25
HETATM   25  C   UNL     1     -35.663  42.296 -53.661  1.00  0.00     0.161 C 
BRANCH  25  26
HETATM   26  C   UNL     1     -35.891  42.003 -55.121  1.00  0.00    -0.040 A 
HETATM   27  C   UNL     1     -37.193  41.947 -55.633  1.00  0.00     0.011 A 
HETATM   28  C   UNL     1     -37.411  41.733 -56.996  1.00  0.00     0.037 A 
HETATM   29  C   UNL     1     -36.337  41.584 -57.876  1.00  0.00     0.068 A 
HETATM   30  C   UNL     1     -35.037  41.637 -57.375  1.00  0.00     0.037 A 
HETATM   31  C   UNL     1     -34.816  41.854 -56.010  1.00  0.00     0.011 A 
BRANCH  29  32
HETATM   32  O   UNL     1     -36.689  41.396 -59.183  1.00  0.00    -0.356 OA
HETATM   33  C   UNL     1     -37.291  42.500 -59.848  1.00  0.00     0.210 C 
ENDBRANCH  29  32
ENDBRANCH  25  26
ENDBRANCH  22  25
ENDBRANCH  20  21
ENDBRANCH  19  20
ENDBRANCH   1  19
TORSDOF 6
ENDMDL
MODEL 9
REMARK VINA RESULT:      -7.7      4.402      5.865
REMARK  6 active torsions:
REMARK  status: ('A' for Active; 'I' for Inactive)
REMARK    1  A    between atoms: O_2  and  C_3 
REMARK    2  A    between atoms: C_6  and  C_7 
REMARK    3  A    between atoms: C_7  and  N_8 
REMARK       I    between atoms: N_8  and  C_9 
REMARK    4  A    between atoms: C_9  and  C_10 
REMARK    5  A    between atoms: C_10  and  S_11 
REMARK    6  A    between atoms: S_11  and  C_12 
ROOT
HETATM    1  C   UNL     1     -45.597  60.289 -50.866  1.00  0.00     0.198 A 
HETATM    2  N   UNL     1     -44.359  59.961 -51.400  1.00  0.00    -0.257 N 
HETATM    3  C   UNL     1     -44.315  58.578 -51.221  1.00  0.00     0.173 A 
HETATM    4  C   UNL     1     -43.134  57.801 -51.670  1.00  0.00     0.053 A 
HETATM    5  C   UNL     1     -42.121  58.541 -52.240  1.00  0.00     0.090 A 
HETATM    6  S   UNL     1     -40.814  57.555 -52.701  1.00  0.00    -0.075 SA
HETATM    7  C   UNL     1     -41.608  56.151 -52.137  1.00  0.00    -0.008 A 
HETATM    8  C   UNL     1     -42.864  56.410 -51.613  1.00  0.00    -0.028 A 
HETATM    9  C   UNL     1     -43.738  55.329 -51.057  1.00  0.00     0.041 C 
HETATM   10  C   UNL     1     -43.262  53.933 -51.495  1.00  0.00     0.005 C 
HETATM   11  C   UNL     1     -41.739  53.784 -51.366  1.00  0.00     0.005 C 
HETATM   12  C   UNL     1     -40.990  54.791 -52.252  1.00  0.00     0.047 C 
HETATM   13  N   UNL     1     -42.177  59.891 -52.404  1.00  0.00    -0.336 N 
HETATM   14  C   UNL     1     -43.275  60.677 -52.010  1.00  0.00     0.106 A 
HETATM   15  C   UNL     1     -43.235  62.003 -52.224  1.00  0.00     0.064 C 
HETATM   16  N   UNL     1     -45.398  58.131 -50.636  1.00  0.00    -0.128 NA
HETATM   17  N   UNL     1     -46.205  59.212 -50.409  1.00  0.00    -0.122 NA
HETATM   18  H   UNL     1     -41.396  60.376 -52.838  1.00  0.00     0.168 HD
ENDROOT
BRANCH   1  19
HETATM   19  S   UNL     1     -46.291  61.875 -50.786  1.00  0.00    -0.080 SA
BRANCH  19  20
HETATM   20  C   UNL     1     -47.355  61.839 -52.261  1.00  0.00     0.185 C 
BRANCH  20  21
HETATM   21  C   UNL     1     -46.517  61.873 -53.526  1.00  0.00     0.227 C 
HETATM   22  N   UNL     1     -46.213  60.638 -54.059  1.00  0.00    -0.356 N 
HETATM   23  H   UNL     1     -46.813  59.861 -53.809  1.00  0.00     0.162 HD
HETATM   24  O   UNL     1     -46.083  62.923 -53.995  1.00  0.00    -0.273 OA
BRANCH  22  25
HETATM   25  C   UNL     1     -45.468  60.543 -55.294  1.00  0.00     0.161 C 
BRANCH  25  26
HETATM   26  C   UNL     1     -44.696  59.253 -55.399  1.00  0.00    -0.040 A 
HETATM   27  C   UNL     1     -43.422  59.241 -55.979  1.00  0.00     0.011 A 
HETATM   28  C   UNL     1     -42.677  58.059 -56.029  1.00  0.00     0.037 A 
HETATM   29  C   UNL     1     -43.182  56.874 -55.491  1.00  0.00     0.068 A 
HETATM   30  C   UNL     1     -44.450  56.877 -54.913  1.00  0.00     0.037 A 
HETATM   31  C   UNL     1     -45.197  58.060 -54.860  1.00  0.00     0.011 A 
BRANCH  29  32
HETATM   32  O   UNL     1     -42.345  55.798 -55.592  1.00  0.00    -0.356 OA
HETATM   33  C   UNL     1     -42.918  54.519 -55.348  1.00  0.00     0.210 C 
ENDBRANCH  29  32
ENDBRANCH  25  26
ENDBRANCH  22  25
ENDBRANCH  20  21
ENDBRANCH  19  20
ENDBRANCH   1  19
TORSDOF 6
ENDMDL
MODEL 10
REMARK VINA RESULT:      -7.6      1.938      2.337
REMARK  6 active torsions:
REMARK  status: ('A' for Active; 'I' for Inactive)
REMARK    1  A    between atoms: O_2  and  C_3 
REMARK    2  A    between atoms: C_6  and  C_7 
REMARK    3  A    between atoms: C_7  and  N_8 
REMARK       I    between atoms: N_8  and  C_9 
REMARK    4  A    between atoms: C_9  and  C_10 
REMARK    5  A    between atoms: C_10  and  S_11 
REMARK    6  A    between atoms: S_11  and  C_12 
ROOT
HETATM    1  C   UNL     1     -42.255  56.677 -54.200  1.00  0.00     0.198 A 
HETATM    2  N   UNL     1     -41.812  56.031 -53.056  1.00  0.00    -0.257 N 
HETATM    3  C   UNL     1     -41.423  54.785 -53.549  1.00  0.00     0.173 A 
HETATM    4  C   UNL     1     -40.868  53.756 -52.636  1.00  0.00     0.053 A 
HETATM    5  C   UNL     1     -40.790  54.123 -51.310  1.00  0.00     0.090 A 
HETATM    6  S   UNL     1     -40.158  52.866 -50.354  1.00  0.00    -0.075 SA
HETATM    7  C   UNL     1     -39.994  51.845 -51.714  1.00  0.00    -0.008 A 
HETATM    8  C   UNL     1     -40.398  52.444 -52.896  1.00  0.00    -0.028 A 
HETATM    9  C   UNL     1     -40.345  51.733 -54.213  1.00  0.00     0.041 C 
HETATM   10  C   UNL     1     -39.453  50.482 -54.147  1.00  0.00     0.005 C 
HETATM   11  C   UNL     1     -39.721  49.658 -52.879  1.00  0.00     0.005 C 
HETATM   12  C   UNL     1     -39.428  50.462 -51.603  1.00  0.00     0.047 C 
HETATM   13  N   UNL     1     -41.177  55.340 -50.843  1.00  0.00    -0.336 N 
HETATM   14  C   UNL     1     -41.698  56.358 -51.663  1.00  0.00     0.106 A 
HETATM   15  C   UNL     1     -42.043  57.531 -51.104  1.00  0.00     0.064 C 
HETATM   16  N   UNL     1     -41.624  54.692 -54.840  1.00  0.00    -0.128 NA
HETATM   17  N   UNL     1     -42.152  55.886 -55.250  1.00  0.00    -0.122 NA
HETATM   18  H   UNL     1     -41.088  55.549 -49.852  1.00  0.00     0.168 HD
ENDROOT
BRANCH   1  19
HETATM   19  S   UNL     1     -42.870  58.296 -54.290  1.00  0.00    -0.080 SA
BRANCH  19  20
HETATM   20  C   UNL     1     -44.637  57.957 -54.555  1.00  0.00     0.185 C 
BRANCH  20  21
HETATM   21  C   UNL     1     -45.297  59.108 -55.293  1.00  0.00     0.227 C 
HETATM   22  N   UNL     1     -45.899  58.768 -56.486  1.00  0.00    -0.356 N 
HETATM   23  H   UNL     1     -46.161  57.799 -56.618  1.00  0.00     0.162 HD
HETATM   24  O   UNL     1     -45.234  60.266 -54.887  1.00  0.00    -0.273 OA
BRANCH  22  25
HETATM   25  C   UNL     1     -46.608  59.768 -57.252  1.00  0.00     0.161 C 
BRANCH  25  26
HETATM   26  C   UNL     1     -47.044  59.254 -58.600  1.00  0.00    -0.040 A 
HETATM   27  C   UNL     1     -47.895  60.022 -59.405  1.00  0.00     0.011 A 
HETATM   28  C   UNL     1     -48.256  59.579 -60.679  1.00  0.00     0.037 A 
HETATM   29  C   UNL     1     -47.768  58.370 -61.180  1.00  0.00     0.068 A 
HETATM   30  C   UNL     1     -46.922  57.599 -60.385  1.00  0.00     0.037 A 
HETATM   31  C   UNL     1     -46.556  58.042 -59.109  1.00  0.00     0.011 A 
BRANCH  29  32
HETATM   32  O   UNL     1     -48.188  58.063 -62.444  1.00  0.00    -0.356 OA
HETATM   33  C   UNL     1     -48.782  56.784 -62.627  1.00  0.00     0.210 C 
ENDBRANCH  29  32
ENDBRANCH  25  26
ENDBRANCH  22  25
ENDBRANCH  20  21
ENDBRANCH  19  20
ENDBRANCH   1  19
TORSDOF 6
ENDMDL
