MODEL 1
REMARK VINA RESULT:      -8.4      0.000      0.000
REMARK  8 active torsions:
REMARK  status: ('A' for Active; 'I' for Inactive)
REMARK    1  A    between atoms: C_3  and  O_4 
REMARK    2  A    between atoms: C_11  and  C_12 
REMARK    3  A    between atoms: C_12  and  C_13 
REMARK    4  A    between atoms: C_13  and  S_14 
REMARK    5  A    between atoms: S_14  and  C_15 
REMARK    6  A    between atoms: N_16  and  C_17 
REMARK    7  A    between atoms: C_18  and  O_19 
REMARK    8  A    between atoms: C_25  and  N_26 
ROOT
HETATM    1  C   UNL     1     -44.287  56.756 -53.759  1.00  0.00     0.197 A 
HETATM    2  N   UNL     1     -43.862  57.324 -52.570  1.00  0.00    -0.259 N 
HETATM    3  C   UNL     1     -44.432  58.606 -52.593  1.00  0.00     0.211 A 
HETATM    4  N   UNL     1     -45.138  58.739 -53.702  1.00  0.00    -0.116 NA
HETATM    5  N   UNL     1     -45.069  57.580 -54.417  1.00  0.00    -0.121 NA
ENDROOT
BRANCH   1   6
HETATM    6  S   UNL     1     -43.711  55.250 -54.413  1.00  0.00    -0.082 SA
BRANCH   6   7
HETATM    7  C   UNL     1     -42.231  55.858 -55.274  1.00  0.00     0.166 C 
BRANCH   7   8
HETATM    8  C   UNL     1     -40.968  55.684 -54.453  1.00  0.00     0.169 C 
HETATM    9  O   UNL     1     -40.257  56.617 -54.082  1.00  0.00    -0.291 OA
BRANCH   8  10
HETATM   10  C   UNL     1     -40.554  54.287 -54.106  1.00  0.00     0.011 A 
HETATM   11  C   UNL     1     -40.225  53.343 -55.088  1.00  0.00     0.017 A 
HETATM   12  C   UNL     1     -39.878  52.031 -54.745  1.00  0.00     0.031 A 
HETATM   13  C   UNL     1     -39.861  51.700 -53.388  1.00  0.00     0.045 A 
HETATM   14  N   UNL     1     -39.572  50.507 -52.770  1.00  0.00    -0.336 N 
HETATM   15  C   UNL     1     -40.158  52.613 -52.379  1.00  0.00     0.002 A 
HETATM   16  C   UNL     1     -39.667  50.632 -51.414  1.00  0.00     0.147 A 
HETATM   17  H   UNL     1     -39.322  49.649 -53.241  1.00  0.00     0.168 HD
HETATM   18  C   UNL     1     -40.028  51.934 -51.123  1.00  0.00     0.001 A 
HETATM   19  C   UNL     1     -40.239  52.540 -49.782  1.00  0.00     0.054 C 
HETATM   20  C   UNL     1     -40.506  53.930 -52.748  1.00  0.00     0.029 A 
BRANCH  16  21
HETATM   21  O   UNL     1     -39.417  49.576 -50.652  1.00  0.00    -0.346 OA
HETATM   22  H   UNL     1     -40.238  49.358 -50.177  1.00  0.00     0.219 HD
ENDBRANCH  16  21
ENDBRANCH   8  10
ENDBRANCH   7   8
ENDBRANCH   6   7
ENDBRANCH   1   6
BRANCH   2  23
HETATM   23  C   UNL     1     -43.058  56.722 -51.565  1.00  0.00     0.077 A 
HETATM   24  C   UNL     1     -41.831  57.284 -51.177  1.00  0.00     0.095 A 
HETATM   25  C   UNL     1     -41.114  56.675 -50.140  1.00  0.00     0.039 A 
HETATM   26  C   UNL     1     -41.603  55.528 -49.508  1.00  0.00     0.003 A 
HETATM   27  C   UNL     1     -42.810  54.966 -49.910  1.00  0.00     0.002 A 
HETATM   28  C   UNL     1     -43.539  55.558 -50.939  1.00  0.00     0.033 A 
BRANCH  24  29
HETATM   29  O   UNL     1     -41.365  58.344 -51.906  1.00  0.00    -0.354 OA
HETATM   30  C   UNL     1     -40.196  59.002 -51.441  1.00  0.00     0.210 C 
ENDBRANCH  24  29
ENDBRANCH   2  23
BRANCH   3  31
HETATM   31  N   UNL     1     -44.294  59.560 -51.613  1.00  0.00    -0.251 NA
HETATM   32  C   UNL     1     -45.444  59.786 -50.726  1.00  0.00     0.098 C 
HETATM   33  C   UNL     1     -44.996  60.583 -49.501  1.00  0.00     0.015 C 
HETATM   34  C   UNL     1     -44.326  61.894 -49.906  1.00  0.00     0.002 C 
HETATM   35  C   UNL     1     -43.194  61.638 -50.895  1.00  0.00     0.015 C 
HETATM   36  C   UNL     1     -43.677  60.813 -52.086  1.00  0.00     0.098 C 
ENDBRANCH   3  31
TORSDOF 8
ENDMDL
MODEL 2
REMARK VINA RESULT:      -8.4      4.460      6.561
REMARK  8 active torsions:
REMARK  status: ('A' for Active; 'I' for Inactive)
REMARK    1  A    between atoms: C_3  and  O_4 
REMARK    2  A    between atoms: C_11  and  C_12 
REMARK    3  A    between atoms: C_12  and  C_13 
REMARK    4  A    between atoms: C_13  and  S_14 
REMARK    5  A    between atoms: S_14  and  C_15 
REMARK    6  A    between atoms: N_16  and  C_17 
REMARK    7  A    between atoms: C_18  and  O_19 
REMARK    8  A    between atoms: C_25  and  N_26 
ROOT
HETATM    1  C   UNL     1     -42.428  58.827 -56.214  1.00  0.00     0.197 A 
HETATM    2  N   UNL     1     -42.727  58.833 -57.566  1.00  0.00    -0.259 N 
HETATM    3  C   UNL     1     -42.272  60.086 -58.002  1.00  0.00     0.211 A 
HETATM    4  N   UNL     1     -41.740  60.727 -56.976  1.00  0.00    -0.116 NA
HETATM    5  N   UNL     1     -41.815  59.935 -55.868  1.00  0.00    -0.121 NA
ENDROOT
BRANCH   1   6
HETATM    6  S   UNL     1     -42.966  57.630 -55.072  1.00  0.00    -0.082 SA
BRANCH   6   7
HETATM    7  C   UNL     1     -41.388  56.776 -54.787  1.00  0.00     0.166 C 
BRANCH   7   8
HETATM    8  C   UNL     1     -41.479  55.285 -55.042  1.00  0.00     0.169 C 
HETATM    9  O   UNL     1     -41.886  54.793 -56.094  1.00  0.00    -0.291 OA
BRANCH   8  10
HETATM   10  C   UNL     1     -41.079  54.366 -53.930  1.00  0.00     0.011 A 
HETATM   11  C   UNL     1     -41.089  54.772 -52.590  1.00  0.00     0.017 A 
HETATM   12  C   UNL     1     -40.674  53.910 -51.568  1.00  0.00     0.031 A 
HETATM   13  C   UNL     1     -40.261  52.625 -51.932  1.00  0.00     0.045 A 
HETATM   14  N   UNL     1     -39.802  51.588 -51.156  1.00  0.00    -0.336 N 
HETATM   15  C   UNL     1     -40.259  52.174 -53.250  1.00  0.00     0.002 A 
HETATM   16  C   UNL     1     -39.518  50.499 -51.929  1.00  0.00     0.147 A 
HETATM   17  H   UNL     1     -39.687  51.613 -50.153  1.00  0.00     0.168 HD
HETATM   18  C   UNL     1     -39.791  50.818 -53.245  1.00  0.00     0.001 A 
HETATM   19  C   UNL     1     -39.647  49.946 -54.440  1.00  0.00     0.054 C 
HETATM   20  C   UNL     1     -40.680  53.060 -54.264  1.00  0.00     0.029 A 
BRANCH  16  21
HETATM   21  O   UNL     1     -39.065  49.398 -51.344  1.00  0.00    -0.346 OA
HETATM   22  H   UNL     1     -39.831  48.824 -51.167  1.00  0.00     0.219 HD
ENDBRANCH  16  21
ENDBRANCH   8  10
ENDBRANCH   7   8
ENDBRANCH   6   7
ENDBRANCH   1   6
BRANCH   2  23
HETATM   23  C   UNL     1     -43.332  57.791 -58.320  1.00  0.00     0.077 A 
HETATM   24  C   UNL     1     -44.725  57.719 -58.480  1.00  0.00     0.095 A 
HETATM   25  C   UNL     1     -45.255  56.702 -59.283  1.00  0.00     0.039 A 
HETATM   26  C   UNL     1     -44.417  55.770 -59.905  1.00  0.00     0.003 A 
HETATM   27  C   UNL     1     -43.040  55.835 -59.726  1.00  0.00     0.002 A 
HETATM   28  C   UNL     1     -42.494  56.841 -58.932  1.00  0.00     0.033 A 
BRANCH  24  29
HETATM   29  O   UNL     1     -45.488  58.598 -57.762  1.00  0.00    -0.354 OA
HETATM   30  C   UNL     1     -46.896  58.422 -57.785  1.00  0.00     0.210 C 
ENDBRANCH  24  29
ENDBRANCH   2  23
BRANCH   3  31
HETATM   31  N   UNL     1     -42.349  60.561 -59.289  1.00  0.00    -0.251 NA
HETATM   32  C   UNL     1     -41.276  61.458 -59.742  1.00  0.00     0.098 C 
HETATM   33  C   UNL     1     -41.320  61.581 -61.265  1.00  0.00     0.015 C 
HETATM   34  C   UNL     1     -42.692  62.051 -61.744  1.00  0.00     0.002 C 
HETATM   35  C   UNL     1     -43.793  61.154 -61.189  1.00  0.00     0.015 C 
HETATM   36  C   UNL     1     -43.693  61.033 -59.669  1.00  0.00     0.098 C 
ENDBRANCH   3  31
TORSDOF 8
ENDMDL
MODEL 3
REMARK VINA RESULT:      -8.2      4.452      6.392
REMARK  8 active torsions:
REMARK  status: ('A' for Active; 'I' for Inactive)
REMARK    1  A    between atoms: C_3  and  O_4 
REMARK    2  A    between atoms: C_11  and  C_12 
REMARK    3  A    between atoms: C_12  and  C_13 
REMARK    4  A    between atoms: C_13  and  S_14 
REMARK    5  A    between atoms: S_14  and  C_15 
REMARK    6  A    between atoms: N_16  and  C_17 
REMARK    7  A    between atoms: C_18  and  O_19 
REMARK    8  A    between atoms: C_25  and  N_26 
ROOT
HETATM    1  C   UNL     1     -42.701  58.686 -56.109  1.00  0.00     0.197 A 
HETATM    2  N   UNL     1     -43.229  59.001 -57.350  1.00  0.00    -0.259 N 
HETATM    3  C   UNL     1     -42.536  60.163 -57.721  1.00  0.00     0.211 A 
HETATM    4  N   UNL     1     -41.671  60.465 -56.768  1.00  0.00    -0.116 NA
HETATM    5  N   UNL     1     -41.755  59.533 -55.777  1.00  0.00    -0.121 NA
ENDROOT
BRANCH   1   6
HETATM    6  S   UNL     1     -43.327  57.473 -55.030  1.00  0.00    -0.082 SA
BRANCH   6   7
HETATM    7  C   UNL     1     -41.757  56.789 -54.425  1.00  0.00     0.166 C 
BRANCH   7   8
HETATM    8  C   UNL     1     -41.551  55.347 -54.844  1.00  0.00     0.169 C 
HETATM    9  O   UNL     1     -41.746  54.929 -55.985  1.00  0.00    -0.291 OA
BRANCH   8  10
HETATM   10  C   UNL     1     -41.116  54.375 -53.791  1.00  0.00     0.011 A 
HETATM   11  C   UNL     1     -41.065  54.720 -52.435  1.00  0.00     0.017 A 
HETATM   12  C   UNL     1     -40.619  53.810 -51.470  1.00  0.00     0.031 A 
HETATM   13  C   UNL     1     -40.236  52.539 -51.908  1.00  0.00     0.045 A 
HETATM   14  N   UNL     1     -39.758  51.464 -51.199  1.00  0.00    -0.336 N 
HETATM   15  C   UNL     1     -40.294  52.147 -53.243  1.00  0.00     0.002 A 
HETATM   16  C   UNL     1     -39.519  50.407 -52.030  1.00  0.00     0.147 A 
HETATM   17  H   UNL     1     -39.601  51.443 -50.202  1.00  0.00     0.168 HD
HETATM   18  C   UNL     1     -39.843  50.787 -53.318  1.00  0.00     0.001 A 
HETATM   19  C   UNL     1     -39.759  49.968 -54.556  1.00  0.00     0.054 C 
HETATM   20  C   UNL     1     -40.747  53.081 -54.198  1.00  0.00     0.029 A 
BRANCH  16  21
HETATM   21  O   UNL     1     -39.055  49.277 -51.515  1.00  0.00    -0.346 OA
HETATM   22  H   UNL     1     -38.959  49.411 -50.555  1.00  0.00     0.219 HD
ENDBRANCH  16  21
ENDBRANCH   8  10
ENDBRANCH   7   8
ENDBRANCH   6   7
ENDBRANCH   1   6
BRANCH   2  23
HETATM   23  C   UNL     1     -44.223  58.286 -58.070  1.00  0.00     0.077 A 
HETATM   24  C   UNL     1     -43.892  57.178 -58.867  1.00  0.00     0.095 A 
HETATM   25  C   UNL     1     -44.925  56.480 -59.505  1.00  0.00     0.039 A 
HETATM   26  C   UNL     1     -46.257  56.881 -59.361  1.00  0.00     0.003 A 
HETATM   27  C   UNL     1     -46.575  57.991 -58.587  1.00  0.00     0.002 A 
HETATM   28  C   UNL     1     -45.562  58.698 -57.943  1.00  0.00     0.033 A 
BRANCH  24  29
HETATM   29  O   UNL     1     -42.564  56.904 -59.045  1.00  0.00    -0.354 OA
HETATM   30  C   UNL     1     -41.933  57.424 -60.206  1.00  0.00     0.210 C 
ENDBRANCH  24  29
ENDBRANCH   2  23
BRANCH   3  31
HETATM   31  N   UNL     1     -42.714  60.861 -58.891  1.00  0.00    -0.251 NA
HETATM   32  C   UNL     1     -41.507  61.314 -59.596  1.00  0.00     0.098 C 
HETATM   33  C   UNL     1     -41.872  61.728 -61.022  1.00  0.00     0.015 C 
HETATM   34  C   UNL     1     -42.965  62.794 -61.027  1.00  0.00     0.002 C 
HETATM   35  C   UNL     1     -44.171  62.334 -60.215  1.00  0.00     0.015 C 
HETATM   36  C   UNL     1     -43.758  61.900 -58.810  1.00  0.00     0.098 C 
ENDBRANCH   3  31
TORSDOF 8
ENDMDL
MODEL 4
REMARK VINA RESULT:      -8.1      3.162      7.040
REMARK  8 active torsions:
REMARK  status: ('A' for Active; 'I' for Inactive)
REMARK    1  A    between atoms: C_3  and  O_4 
REMARK    2  A    between atoms: C_11  and  C_12 
REMARK    3  A    between atoms: C_12  and  C_13 
REMARK    4  A    between atoms: C_13  and  S_14 
REMARK    5  A    between atoms: S_14  and  C_15 
REMARK    6  A    between atoms: N_16  and  C_17 
REMARK    7  A    between atoms: C_18  and  O_19 
REMARK    8  A    between atoms: C_25  and  N_26 
ROOT
HETATM    1  C   UNL     1     -44.172  57.534 -53.517  1.00  0.00     0.197 A 
HETATM    2  N   UNL     1     -42.909  57.021 -53.276  1.00  0.00    -0.259 N 
HETATM    3  C   UNL     1     -42.938  55.764 -53.898  1.00  0.00     0.211 A 
HETATM    4  N   UNL     1     -44.121  55.594 -54.461  1.00  0.00    -0.116 NA
HETATM    5  N   UNL     1     -44.882  56.705 -54.246  1.00  0.00    -0.121 NA
ENDROOT
BRANCH   1   6
HETATM    6  S   UNL     1     -44.825  58.975 -52.791  1.00  0.00    -0.082 SA
BRANCH   6   7
HETATM    7  C   UNL     1     -44.930  60.020 -54.273  1.00  0.00     0.166 C 
BRANCH   7   8
HETATM    8  C   UNL     1     -43.593  60.624 -54.655  1.00  0.00     0.169 C 
HETATM    9  O   UNL     1     -42.972  61.418 -53.950  1.00  0.00    -0.291 OA
BRANCH   8  10
HETATM   10  C   UNL     1     -43.019  60.249 -55.987  1.00  0.00     0.011 A 
HETATM   11  C   UNL     1     -42.348  61.175 -56.795  1.00  0.00     0.017 A 
HETATM   12  C   UNL     1     -41.853  60.815 -58.054  1.00  0.00     0.031 A 
HETATM   13  C   UNL     1     -42.043  59.494 -58.471  1.00  0.00     0.045 A 
HETATM   14  N   UNL     1     -41.678  58.873 -59.641  1.00  0.00    -0.336 N 
HETATM   15  C   UNL     1     -42.685  58.537 -57.689  1.00  0.00     0.002 A 
HETATM   16  C   UNL     1     -42.056  57.560 -59.625  1.00  0.00     0.147 A 
HETATM   17  H   UNL     1     -41.197  59.312 -60.412  1.00  0.00     0.168 HD
HETATM   18  C   UNL     1     -42.686  57.304 -58.423  1.00  0.00     0.001 A 
HETATM   19  C   UNL     1     -43.256  56.015 -57.952  1.00  0.00     0.054 C 
HETATM   20  C   UNL     1     -43.176  58.922 -56.424  1.00  0.00     0.029 A 
BRANCH  16  21
HETATM   21  O   UNL     1     -41.780  56.801 -60.677  1.00  0.00    -0.346 OA
HETATM   22  H   UNL     1     -42.620  56.424 -60.993  1.00  0.00     0.219 HD
ENDBRANCH  16  21
ENDBRANCH   8  10
ENDBRANCH   7   8
ENDBRANCH   6   7
ENDBRANCH   1   6
BRANCH   2  23
HETATM   23  C   UNL     1     -41.841  57.649 -52.580  1.00  0.00     0.077 A 
HETATM   24  C   UNL     1     -41.579  57.361 -51.231  1.00  0.00     0.095 A 
HETATM   25  C   UNL     1     -40.476  57.969 -50.619  1.00  0.00     0.039 A 
HETATM   26  C   UNL     1     -39.657  58.851 -51.331  1.00  0.00     0.003 A 
HETATM   27  C   UNL     1     -39.935  59.147 -52.661  1.00  0.00     0.002 A 
HETATM   28  C   UNL     1     -41.027  58.551 -53.288  1.00  0.00     0.033 A 
BRANCH  24  29
HETATM   29  O   UNL     1     -42.478  56.571 -50.569  1.00  0.00    -0.354 OA
HETATM   30  C   UNL     1     -41.971  55.470 -49.830  1.00  0.00     0.210 C 
ENDBRANCH  24  29
ENDBRANCH   2  23
BRANCH   3  31
HETATM   31  N   UNL     1     -41.899  54.865 -53.932  1.00  0.00    -0.251 NA
HETATM   32  C   UNL     1     -41.402  54.458 -55.254  1.00  0.00     0.098 C 
HETATM   33  C   UNL     1     -40.045  53.771 -55.102  1.00  0.00     0.015 C 
HETATM   34  C   UNL     1     -40.127  52.589 -54.139  1.00  0.00     0.002 C 
HETATM   35  C   UNL     1     -40.726  53.020 -52.805  1.00  0.00     0.015 C 
HETATM   36  C   UNL     1     -42.065  53.730 -53.005  1.00  0.00     0.098 C 
ENDBRANCH   3  31
TORSDOF 8
ENDMDL
MODEL 5
REMARK VINA RESULT:      -8.0      3.563      7.163
REMARK  8 active torsions:
REMARK  status: ('A' for Active; 'I' for Inactive)
REMARK    1  A    between atoms: C_3  and  O_4 
REMARK    2  A    between atoms: C_11  and  C_12 
REMARK    3  A    between atoms: C_12  and  C_13 
REMARK    4  A    between atoms: C_13  and  S_14 
REMARK    5  A    between atoms: S_14  and  C_15 
REMARK    6  A    between atoms: N_16  and  C_17 
REMARK    7  A    between atoms: C_18  and  O_19 
REMARK    8  A    between atoms: C_25  and  N_26 
ROOT
HETATM    1  C   UNL     1     -44.107  56.888 -53.669  1.00  0.00     0.197 A 
HETATM    2  N   UNL     1     -42.837  56.481 -53.293  1.00  0.00    -0.259 N 
HETATM    3  C   UNL     1     -42.802  55.126 -53.655  1.00  0.00     0.211 A 
HETATM    4  N   UNL     1     -43.958  54.803 -54.209  1.00  0.00    -0.116 NA
HETATM    5  N   UNL     1     -44.761  55.904 -54.241  1.00  0.00    -0.121 NA
ENDROOT
BRANCH   1   6
HETATM    6  S   UNL     1     -44.832  58.416 -53.263  1.00  0.00    -0.082 SA
BRANCH   6   7
HETATM    7  C   UNL     1     -45.249  58.990 -54.935  1.00  0.00     0.166 C 
BRANCH   7   8
HETATM    8  C   UNL     1     -44.033  59.092 -55.835  1.00  0.00     0.169 C 
HETATM    9  O   UNL     1     -43.191  59.986 -55.752  1.00  0.00    -0.291 OA
BRANCH   8  10
HETATM   10  C   UNL     1     -43.874  58.056 -56.906  1.00  0.00     0.011 A 
HETATM   11  C   UNL     1     -42.779  57.185 -56.942  1.00  0.00     0.017 A 
HETATM   12  C   UNL     1     -42.629  56.250 -57.972  1.00  0.00     0.031 A 
HETATM   13  C   UNL     1     -43.619  56.210 -58.959  1.00  0.00     0.045 A 
HETATM   14  N   UNL     1     -43.727  55.415 -60.075  1.00  0.00    -0.336 N 
HETATM   15  C   UNL     1     -44.735  57.043 -58.948  1.00  0.00     0.002 A 
HETATM   16  C   UNL     1     -44.870  55.706 -60.763  1.00  0.00     0.147 A 
HETATM   17  H   UNL     1     -43.062  54.710 -60.357  1.00  0.00     0.168 HD
HETATM   18  C   UNL     1     -45.534  56.716 -60.094  1.00  0.00     0.001 A 
HETATM   19  C   UNL     1     -46.826  57.352 -60.461  1.00  0.00     0.054 C 
HETATM   20  C   UNL     1     -44.865  57.978 -57.899  1.00  0.00     0.029 A 
BRANCH  16  21
HETATM   21  O   UNL     1     -45.141  55.031 -61.872  1.00  0.00    -0.346 OA
HETATM   22  H   UNL     1     -44.982  54.088 -61.685  1.00  0.00     0.219 HD
ENDBRANCH  16  21
ENDBRANCH   8  10
ENDBRANCH   7   8
ENDBRANCH   6   7
ENDBRANCH   1   6
BRANCH   2  23
HETATM   23  C   UNL     1     -41.817  57.275 -52.703  1.00  0.00     0.077 A 
HETATM   24  C   UNL     1     -41.532  57.196 -51.331  1.00  0.00     0.095 A 
HETATM   25  C   UNL     1     -40.475  57.960 -50.821  1.00  0.00     0.039 A 
HETATM   26  C   UNL     1     -39.725  58.793 -51.658  1.00  0.00     0.003 A 
HETATM   27  C   UNL     1     -40.026  58.881 -53.012  1.00  0.00     0.002 A 
HETATM   28  C   UNL     1     -41.072  58.127 -53.538  1.00  0.00     0.033 A 
BRANCH  24  29
HETATM   29  O   UNL     1     -42.369  56.442 -50.555  1.00  0.00    -0.354 OA
HETATM   30  C   UNL     1     -41.781  55.577 -49.595  1.00  0.00     0.210 C 
ENDBRANCH  24  29
ENDBRANCH   2  23
BRANCH   3  31
HETATM   31  N   UNL     1     -41.734  54.279 -53.478  1.00  0.00    -0.251 NA
HETATM   32  C   UNL     1     -41.339  53.445 -54.623  1.00  0.00     0.098 C 
HETATM   33  C   UNL     1     -39.947  52.864 -54.376  1.00  0.00     0.015 C 
HETATM   34  C   UNL     1     -39.895  52.086 -53.064  1.00  0.00     0.002 C 
HETATM   35  C   UNL     1     -40.393  52.946 -51.907  1.00  0.00     0.015 C 
HETATM   36  C   UNL     1     -41.771  53.532 -52.208  1.00  0.00     0.098 C 
ENDBRANCH   3  31
TORSDOF 8
ENDMDL
MODEL 6
REMARK VINA RESULT:      -7.9      4.347      6.198
REMARK  8 active torsions:
REMARK  status: ('A' for Active; 'I' for Inactive)
REMARK    1  A    between atoms: C_3  and  O_4 
REMARK    2  A    between atoms: C_11  and  C_12 
REMARK    3  A    between atoms: C_12  and  C_13 
REMARK    4  A    between atoms: C_13  and  S_14 
REMARK    5  A    between atoms: S_14  and  C_15 
REMARK    6  A    between atoms: N_16  and  C_17 
REMARK    7  A    between atoms: C_18  and  O_19 
REMARK    8  A    between atoms: C_25  and  N_26 
ROOT
HETATM    1  C   UNL     1     -42.751  58.668 -56.119  1.00  0.00     0.197 A 
HETATM    2  N   UNL     1     -43.298  59.019 -57.342  1.00  0.00    -0.259 N 
HETATM    3  C   UNL     1     -42.612  60.192 -57.688  1.00  0.00     0.211 A 
HETATM    4  N   UNL     1     -41.733  60.467 -56.740  1.00  0.00    -0.116 NA
HETATM    5  N   UNL     1     -41.801  59.507 -55.775  1.00  0.00    -0.121 NA
ENDROOT
BRANCH   1   6
HETATM    6  S   UNL     1     -43.360  57.422 -55.067  1.00  0.00    -0.082 SA
BRANCH   6   7
HETATM    7  C   UNL     1     -42.060  56.177 -55.315  1.00  0.00     0.166 C 
BRANCH   7   8
HETATM    8  C   UNL     1     -41.241  55.935 -54.063  1.00  0.00     0.169 C 
HETATM    9  O   UNL     1     -40.939  56.817 -53.259  1.00  0.00    -0.291 OA
BRANCH   8  10
HETATM   10  C   UNL     1     -40.747  54.542 -53.816  1.00  0.00     0.011 A 
HETATM   11  C   UNL     1     -40.355  53.697 -54.861  1.00  0.00     0.017 A 
HETATM   12  C   UNL     1     -39.933  52.385 -54.613  1.00  0.00     0.031 A 
HETATM   13  C   UNL     1     -39.907  51.954 -53.284  1.00  0.00     0.045 A 
HETATM   14  N   UNL     1     -39.553  50.737 -52.754  1.00  0.00    -0.336 N 
HETATM   15  C   UNL     1     -40.267  52.770 -52.214  1.00  0.00     0.002 A 
HETATM   16  C   UNL     1     -39.666  50.754 -51.393  1.00  0.00     0.147 A 
HETATM   17  H   UNL     1     -39.248  49.933 -53.284  1.00  0.00     0.168 HD
HETATM   18  C   UNL     1     -40.107  52.006 -51.010  1.00  0.00     0.001 A 
HETATM   19  C   UNL     1     -40.364  52.497 -49.631  1.00  0.00     0.054 C 
HETATM   20  C   UNL     1     -40.689  54.088 -52.488  1.00  0.00     0.029 A 
BRANCH  16  21
HETATM   21  O   UNL     1     -39.360  49.660 -50.709  1.00  0.00    -0.346 OA
HETATM   22  H   UNL     1     -40.099  49.477 -50.104  1.00  0.00     0.219 HD
ENDBRANCH  16  21
ENDBRANCH   8  10
ENDBRANCH   7   8
ENDBRANCH   6   7
ENDBRANCH   1   6
BRANCH   2  23
HETATM   23  C   UNL     1     -44.302  58.324 -58.068  1.00  0.00     0.077 A 
HETATM   24  C   UNL     1     -43.993  57.190 -58.838  1.00  0.00     0.095 A 
HETATM   25  C   UNL     1     -45.036  56.515 -59.483  1.00  0.00     0.039 A 
HETATM   26  C   UNL     1     -46.357  56.963 -59.373  1.00  0.00     0.003 A 
HETATM   27  C   UNL     1     -46.652  58.098 -58.626  1.00  0.00     0.002 A 
HETATM   28  C   UNL     1     -45.628  58.782 -57.975  1.00  0.00     0.033 A 
BRANCH  24  29
HETATM   29  O   UNL     1     -42.672  56.869 -58.985  1.00  0.00    -0.354 OA
HETATM   30  C   UNL     1     -42.047  57.194 -60.217  1.00  0.00     0.210 C 
ENDBRANCH  24  29
ENDBRANCH   2  23
BRANCH   3  31
HETATM   31  N   UNL     1     -42.809  60.925 -58.834  1.00  0.00    -0.251 NA
HETATM   32  C   UNL     1     -41.746  60.887 -59.849  1.00  0.00     0.098 C 
HETATM   33  C   UNL     1     -42.282  61.434 -61.172  1.00  0.00     0.015 C 
HETATM   34  C   UNL     1     -42.852  62.840 -61.000  1.00  0.00     0.002 C 
HETATM   35  C   UNL     1     -43.889  62.869 -59.883  1.00  0.00     0.015 C 
HETATM   36  C   UNL     1     -43.323  62.285 -58.589  1.00  0.00     0.098 C 
ENDBRANCH   3  31
TORSDOF 8
ENDMDL
MODEL 7
REMARK VINA RESULT:      -7.6      3.121      5.501
REMARK  8 active torsions:
REMARK  status: ('A' for Active; 'I' for Inactive)
REMARK    1  A    between atoms: C_3  and  O_4 
REMARK    2  A    between atoms: C_11  and  C_12 
REMARK    3  A    between atoms: C_12  and  C_13 
REMARK    4  A    between atoms: C_13  and  S_14 
REMARK    5  A    between atoms: S_14  and  C_15 
REMARK    6  A    between atoms: N_16  and  C_17 
REMARK    7  A    between atoms: C_18  and  O_19 
REMARK    8  A    between atoms: C_25  and  N_26 
ROOT
HETATM    1  C   UNL     1     -42.180  56.859 -55.048  1.00  0.00     0.197 A 
HETATM    2  N   UNL     1     -42.986  57.752 -55.734  1.00  0.00    -0.259 N 
HETATM    3  C   UNL     1     -43.360  57.044 -56.886  1.00  0.00     0.211 A 
HETATM    4  N   UNL     1     -42.820  55.838 -56.839  1.00  0.00    -0.116 NA
HETATM    5  N   UNL     1     -42.106  55.714 -55.685  1.00  0.00    -0.121 NA
ENDROOT
BRANCH   1   6
HETATM    6  S   UNL     1     -41.220  57.245 -53.649  1.00  0.00    -0.082 SA
BRANCH   6   7
HETATM    7  C   UNL     1     -42.117  56.268 -52.407  1.00  0.00     0.166 C 
BRANCH   7   8
HETATM    8  C   UNL     1     -41.254  55.917 -51.210  1.00  0.00     0.169 C 
HETATM    9  O   UNL     1     -40.821  56.746 -50.411  1.00  0.00    -0.291 OA
BRANCH   8  10
HETATM   10  C   UNL     1     -40.888  54.477 -51.019  1.00  0.00     0.011 A 
HETATM   11  C   UNL     1     -40.776  53.901 -49.748  1.00  0.00     0.017 A 
HETATM   12  C   UNL     1     -40.394  52.563 -49.589  1.00  0.00     0.031 A 
HETATM   13  C   UNL     1     -40.140  51.821 -50.746  1.00  0.00     0.045 A 
HETATM   14  N   UNL     1     -39.747  50.512 -50.891  1.00  0.00    -0.336 N 
HETATM   15  C   UNL     1     -40.263  52.349 -52.029  1.00  0.00     0.002 A 
HETATM   16  C   UNL     1     -39.625  50.191 -52.213  1.00  0.00     0.147 A 
HETATM   17  H   UNL     1     -39.571  49.867 -50.136  1.00  0.00     0.168 HD
HETATM   18  C   UNL     1     -39.940  51.308 -52.962  1.00  0.00     0.001 A 
HETATM   19  C   UNL     1     -39.959  51.434 -54.443  1.00  0.00     0.054 C 
HETATM   20  C   UNL     1     -40.648  53.700 -52.165  1.00  0.00     0.029 A 
BRANCH  16  21
HETATM   21  O   UNL     1     -39.255  48.961 -52.543  1.00  0.00    -0.346 OA
HETATM   22  H   UNL     1     -38.479  48.734 -52.001  1.00  0.00     0.219 HD
ENDBRANCH  16  21
ENDBRANCH   8  10
ENDBRANCH   7   8
ENDBRANCH   6   7
ENDBRANCH   1   6
BRANCH   2  23
HETATM   23  C   UNL     1     -43.355  59.064 -55.333  1.00  0.00     0.077 A 
HETATM   24  C   UNL     1     -42.687  60.195 -55.831  1.00  0.00     0.095 A 
HETATM   25  C   UNL     1     -43.136  61.463 -55.443  1.00  0.00     0.039 A 
HETATM   26  C   UNL     1     -44.221  61.603 -54.572  1.00  0.00     0.003 A 
HETATM   27  C   UNL     1     -44.866  60.479 -54.068  1.00  0.00     0.002 A 
HETATM   28  C   UNL     1     -44.434  59.208 -54.443  1.00  0.00     0.033 A 
BRANCH  24  29
HETATM   29  O   UNL     1     -41.572  59.982 -56.595  1.00  0.00    -0.354 OA
HETATM   30  C   UNL     1     -41.624  60.369 -57.960  1.00  0.00     0.210 C 
ENDBRANCH  24  29
ENDBRANCH   2  23
BRANCH   3  31
HETATM   31  N   UNL     1     -44.171  57.519 -57.888  1.00  0.00    -0.251 NA
HETATM   32  C   UNL     1     -45.538  57.915 -57.519  1.00  0.00     0.098 C 
HETATM   33  C   UNL     1     -46.151  58.747 -58.646  1.00  0.00     0.015 C 
HETATM   34  C   UNL     1     -46.119  57.992 -59.973  1.00  0.00     0.002 C 
HETATM   35  C   UNL     1     -44.705  57.517 -60.288  1.00  0.00     0.015 C 
HETATM   36  C   UNL     1     -44.118  56.718 -59.125  1.00  0.00     0.098 C 
ENDBRANCH   3  31
TORSDOF 8
ENDMDL
MODEL 8
REMARK VINA RESULT:      -7.5      2.459      3.913
REMARK  8 active torsions:
REMARK  status: ('A' for Active; 'I' for Inactive)
REMARK    1  A    between atoms: C_3  and  O_4 
REMARK    2  A    between atoms: C_11  and  C_12 
REMARK    3  A    between atoms: C_12  and  C_13 
REMARK    4  A    between atoms: C_13  and  S_14 
REMARK    5  A    between atoms: S_14  and  C_15 
REMARK    6  A    between atoms: N_16  and  C_17 
REMARK    7  A    between atoms: C_18  and  O_19 
REMARK    8  A    between atoms: C_25  and  N_26 
ROOT
HETATM    1  C   UNL     1     -41.705  59.147 -53.130  1.00  0.00     0.197 A 
HETATM    2  N   UNL     1     -42.879  59.876 -53.037  1.00  0.00    -0.259 N 
HETATM    3  C   UNL     1     -42.952  60.547 -54.267  1.00  0.00     0.211 A 
HETATM    4  N   UNL     1     -41.907  60.206 -55.001  1.00  0.00    -0.116 NA
HETATM    5  N   UNL     1     -41.143  59.317 -54.304  1.00  0.00    -0.121 NA
ENDROOT
BRANCH   1   6
HETATM    6  S   UNL     1     -40.949  58.291 -51.818  1.00  0.00    -0.082 SA
BRANCH   6   7
HETATM    7  C   UNL     1     -41.877  56.733 -51.919  1.00  0.00     0.166 C 
BRANCH   7   8
HETATM    8  C   UNL     1     -41.223  55.726 -52.846  1.00  0.00     0.169 C 
HETATM    9  O   UNL     1     -41.013  55.929 -54.041  1.00  0.00    -0.291 OA
BRANCH   8  10
HETATM   10  C   UNL     1     -40.845  54.397 -52.269  1.00  0.00     0.011 A 
HETATM   11  C   UNL     1     -40.740  54.188 -50.888  1.00  0.00     0.017 A 
HETATM   12  C   UNL     1     -40.348  52.948 -50.369  1.00  0.00     0.031 A 
HETATM   13  C   UNL     1     -40.076  51.923 -51.279  1.00  0.00     0.045 A 
HETATM   14  N   UNL     1     -39.669  50.629 -51.061  1.00  0.00    -0.336 N 
HETATM   15  C   UNL     1     -40.191  52.082 -52.658  1.00  0.00     0.002 A 
HETATM   16  C   UNL     1     -39.531  49.962 -52.245  1.00  0.00     0.147 A 
HETATM   17  H   UNL     1     -39.495  50.215 -50.157  1.00  0.00     0.168 HD
HETATM   18  C   UNL     1     -39.849  50.831 -53.271  1.00  0.00     0.001 A 
HETATM   19  C   UNL     1     -39.854  50.549 -54.731  1.00  0.00     0.054 C 
HETATM   20  C   UNL     1     -40.587  53.340 -53.159  1.00  0.00     0.029 A 
BRANCH  16  21
HETATM   21  O   UNL     1     -39.147  48.693 -52.225  1.00  0.00    -0.346 OA
HETATM   22  H   UNL     1     -39.749  48.215 -51.629  1.00  0.00     0.219 HD
ENDBRANCH  16  21
ENDBRANCH   8  10
ENDBRANCH   7   8
ENDBRANCH   6   7
ENDBRANCH   1   6
BRANCH   2  23
HETATM   23  C   UNL     1     -43.794  59.901 -51.951  1.00  0.00     0.077 A 
HETATM   24  C   UNL     1     -43.749  60.917 -50.982  1.00  0.00     0.095 A 
HETATM   25  C   UNL     1     -44.715  60.919 -49.968  1.00  0.00     0.039 A 
HETATM   26  C   UNL     1     -45.700  59.927 -49.915  1.00  0.00     0.003 A 
HETATM   27  C   UNL     1     -45.726  58.913 -50.866  1.00  0.00     0.002 A 
HETATM   28  C   UNL     1     -44.774  58.895 -51.883  1.00  0.00     0.033 A 
BRANCH  24  29
HETATM   29  O   UNL     1     -42.700  61.793 -51.036  1.00  0.00    -0.354 OA
HETATM   30  C   UNL     1     -42.915  63.111 -50.554  1.00  0.00     0.210 C 
ENDBRANCH  24  29
ENDBRANCH   2  23
BRANCH   3  31
HETATM   31  N   UNL     1     -43.954  61.404 -54.652  1.00  0.00    -0.251 NA
HETATM   32  C   UNL     1     -44.619  61.131 -55.934  1.00  0.00     0.098 C 
HETATM   33  C   UNL     1     -45.918  61.933 -56.019  1.00  0.00     0.015 C 
HETATM   34  C   UNL     1     -45.662  63.425 -55.819  1.00  0.00     0.002 C 
HETATM   35  C   UNL     1     -44.895  63.672 -54.525  1.00  0.00     0.015 C 
HETATM   36  C   UNL     1     -43.622  62.829 -54.468  1.00  0.00     0.098 C 
ENDBRANCH   3  31
TORSDOF 8
ENDMDL
MODEL 9
REMARK VINA RESULT:      -7.4      4.191      6.503
REMARK  8 active torsions:
REMARK  status: ('A' for Active; 'I' for Inactive)
REMARK    1  A    between atoms: C_3  and  O_4 
REMARK    2  A    between atoms: C_11  and  C_12 
REMARK    3  A    between atoms: C_12  and  C_13 
REMARK    4  A    between atoms: C_13  and  S_14 
REMARK    5  A    between atoms: S_14  and  C_15 
REMARK    6  A    between atoms: N_16  and  C_17 
REMARK    7  A    between atoms: C_18  and  O_19 
REMARK    8  A    between atoms: C_25  and  N_26 
ROOT
HETATM    1  C   UNL     1     -43.915  58.379 -56.205  1.00  0.00     0.197 A 
HETATM    2  N   UNL     1     -44.265  58.466 -57.542  1.00  0.00    -0.259 N 
HETATM    3  C   UNL     1     -45.646  58.223 -57.541  1.00  0.00     0.211 A 
HETATM    4  N   UNL     1     -46.044  58.032 -56.295  1.00  0.00    -0.116 NA
HETATM    5  N   UNL     1     -44.973  58.153 -55.461  1.00  0.00    -0.121 NA
ENDROOT
BRANCH   1   6
HETATM    6  S   UNL     1     -42.287  58.355 -55.593  1.00  0.00    -0.082 SA
BRANCH   6   7
HETATM    7  C   UNL     1     -42.071  56.560 -55.418  1.00  0.00     0.166 C 
BRANCH   7   8
HETATM    8  C   UNL     1     -41.753  56.148 -53.994  1.00  0.00     0.169 C 
HETATM    9  O   UNL     1     -41.942  56.868 -53.013  1.00  0.00    -0.291 OA
BRANCH   8  10
HETATM   10  C   UNL     1     -41.142  54.797 -53.783  1.00  0.00     0.011 A 
HETATM   11  C   UNL     1     -40.730  53.992 -54.852  1.00  0.00     0.017 A 
HETATM   12  C   UNL     1     -40.197  52.716 -54.636  1.00  0.00     0.031 A 
HETATM   13  C   UNL     1     -40.080  52.279 -53.314  1.00  0.00     0.045 A 
HETATM   14  N   UNL     1     -39.609  51.090 -52.812  1.00  0.00    -0.336 N 
HETATM   15  C   UNL     1     -40.456  53.057 -52.221  1.00  0.00     0.002 A 
HETATM   16  C   UNL     1     -39.664  51.089 -51.447  1.00  0.00     0.147 A 
HETATM   17  H   UNL     1     -39.266  50.317 -53.363  1.00  0.00     0.168 HD
HETATM   18  C   UNL     1     -40.184  52.300 -51.033  1.00  0.00     0.001 A 
HETATM   19  C   UNL     1     -40.419  52.759 -49.639  1.00  0.00     0.054 C 
HETATM   20  C   UNL     1     -40.991  54.340 -52.463  1.00  0.00     0.029 A 
BRANCH  16  21
HETATM   21  O   UNL     1     -39.244  50.017 -50.789  1.00  0.00    -0.346 OA
HETATM   22  H   UNL     1     -38.312  49.873 -51.031  1.00  0.00     0.219 HD
ENDBRANCH  16  21
ENDBRANCH   8  10
ENDBRANCH   7   8
ENDBRANCH   6   7
ENDBRANCH   1   6
BRANCH   2  23
HETATM   23  C   UNL     1     -43.411  58.761 -58.639  1.00  0.00     0.077 A 
HETATM   24  C   UNL     1     -42.665  57.755 -59.274  1.00  0.00     0.095 A 
HETATM   25  C   UNL     1     -41.887  58.099 -60.386  1.00  0.00     0.039 A 
HETATM   26  C   UNL     1     -41.846  59.417 -60.851  1.00  0.00     0.003 A 
HETATM   27  C   UNL     1     -42.572  60.412 -60.205  1.00  0.00     0.002 A 
HETATM   28  C   UNL     1     -43.353  60.089 -59.098  1.00  0.00     0.033 A 
BRANCH  24  29
HETATM   29  O   UNL     1     -42.671  56.511 -58.705  1.00  0.00    -0.354 OA
HETATM   30  C   UNL     1     -43.207  55.439 -59.466  1.00  0.00     0.210 C 
ENDBRANCH  24  29
ENDBRANCH   2  23
BRANCH   3  31
HETATM   31  N   UNL     1     -46.456  58.205 -58.651  1.00  0.00    -0.251 NA
HETATM   32  C   UNL     1     -46.170  57.192 -59.677  1.00  0.00     0.098 C 
HETATM   33  C   UNL     1     -47.361  57.076 -60.628  1.00  0.00     0.015 C 
HETATM   34  C   UNL     1     -47.710  58.427 -61.247  1.00  0.00     0.002 C 
HETATM   35  C   UNL     1     -47.915  59.480 -60.164  1.00  0.00     0.015 C 
HETATM   36  C   UNL     1     -46.717  59.541 -59.218  1.00  0.00     0.098 C 
ENDBRANCH   3  31
TORSDOF 8
ENDMDL
MODEL 10
REMARK VINA RESULT:      -7.3      3.889      6.682
REMARK  8 active torsions:
REMARK  status: ('A' for Active; 'I' for Inactive)
REMARK    1  A    between atoms: C_3  and  O_4 
REMARK    2  A    between atoms: C_11  and  C_12 
REMARK    3  A    between atoms: C_12  and  C_13 
REMARK    4  A    between atoms: C_13  and  S_14 
REMARK    5  A    between atoms: S_14  and  C_15 
REMARK    6  A    between atoms: N_16  and  C_17 
REMARK    7  A    between atoms: C_18  and  O_19 
REMARK    8  A    between atoms: C_25  and  N_26 
ROOT
HETATM    1  C   UNL     1     -43.483  59.068 -54.979  1.00  0.00     0.197 A 
HETATM    2  N   UNL     1     -43.403  59.086 -56.361  1.00  0.00    -0.259 N 
HETATM    3  C   UNL     1     -43.834  57.804 -56.735  1.00  0.00     0.211 A 
HETATM    4  N   UNL     1     -44.149  57.126 -55.646  1.00  0.00    -0.116 NA
HETATM    5  N   UNL     1     -43.955  57.919 -54.554  1.00  0.00    -0.121 NA
ENDROOT
BRANCH   1   6
HETATM    6  S   UNL     1     -42.855  60.298 -53.921  1.00  0.00    -0.082 SA
BRANCH   6   7
HETATM    7  C   UNL     1     -41.374  59.433 -53.321  1.00  0.00     0.166 C 
BRANCH   7   8
HETATM    8  C   UNL     1     -41.560  58.857 -51.931  1.00  0.00     0.169 C 
HETATM    9  O   UNL     1     -41.829  59.534 -50.939  1.00  0.00    -0.291 OA
BRANCH   8  10
HETATM   10  C   UNL     1     -41.371  57.381 -51.762  1.00  0.00     0.011 A 
HETATM   11  C   UNL     1     -41.418  56.764 -50.505  1.00  0.00     0.017 A 
HETATM   12  C   UNL     1     -41.201  55.389 -50.364  1.00  0.00     0.031 A 
HETATM   13  C   UNL     1     -40.944  54.652 -51.523  1.00  0.00     0.045 A 
HETATM   14  N   UNL     1     -40.689  53.311 -51.683  1.00  0.00    -0.336 N 
HETATM   15  C   UNL     1     -40.912  55.222 -52.794  1.00  0.00     0.002 A 
HETATM   16  C   UNL     1     -40.505  53.010 -53.002  1.00  0.00     0.147 A 
HETATM   17  H   UNL     1     -40.642  52.631 -50.938  1.00  0.00     0.168 HD
HETATM   18  C   UNL     1     -40.638  54.174 -53.735  1.00  0.00     0.001 A 
HETATM   19  C   UNL     1     -40.532  54.338 -55.208  1.00  0.00     0.054 C 
HETATM   20  C   UNL     1     -41.134  56.610 -52.912  1.00  0.00     0.029 A 
BRANCH  16  21
HETATM   21  O   UNL     1     -40.250  51.755 -53.345  1.00  0.00    -0.346 OA
HETATM   22  H   UNL     1     -41.102  51.330 -53.550  1.00  0.00     0.219 HD
ENDBRANCH  16  21
ENDBRANCH   8  10
ENDBRANCH   7   8
ENDBRANCH   6   7
ENDBRANCH   1   6
BRANCH   2  23
HETATM   23  C   UNL     1     -43.001  60.169 -57.187  1.00  0.00     0.077 A 
HETATM   24  C   UNL     1     -43.905  61.174 -57.567  1.00  0.00     0.095 A 
HETATM   25  C   UNL     1     -43.433  62.246 -58.334  1.00  0.00     0.039 A 
HETATM   26  C   UNL     1     -42.091  62.313 -58.722  1.00  0.00     0.003 A 
HETATM   27  C   UNL     1     -41.205  61.305 -58.358  1.00  0.00     0.002 A 
HETATM   28  C   UNL     1     -41.656  60.230 -57.594  1.00  0.00     0.033 A 
BRANCH  24  29
HETATM   29  O   UNL     1     -45.221  60.992 -57.241  1.00  0.00    -0.354 OA
HETATM   30  C   UNL     1     -45.781  61.848 -56.256  1.00  0.00     0.210 C 
ENDBRANCH  24  29
ENDBRANCH   2  23
BRANCH   3  31
HETATM   31  N   UNL     1     -43.930  57.338 -58.024  1.00  0.00    -0.251 NA
HETATM   32  C   UNL     1     -45.218  57.515 -58.711  1.00  0.00     0.098 C 
HETATM   33  C   UNL     1     -45.034  57.288 -60.211  1.00  0.00     0.015 C 
HETATM   34  C   UNL     1     -44.424  55.918 -60.495  1.00  0.00     0.002 C 
HETATM   35  C   UNL     1     -43.135  55.727 -59.703  1.00  0.00     0.015 C 
HETATM   36  C   UNL     1     -43.356  55.993 -58.215  1.00  0.00     0.098 C 
ENDBRANCH   3  31
TORSDOF 8
ENDMDL
