MODEL 1
REMARK VINA RESULT:      -7.7      0.000      0.000
REMARK  7 active torsions:
REMARK  status: ('A' for Active; 'I' for Inactive)
REMARK    1  A    between atoms: N_3  and  N_4 
REMARK       I    between atoms: N_4  and  C_5 
REMARK    2  A    between atoms: C_5  and  C_6 
REMARK    3  A    between atoms: C_9  and  O_10 
REMARK    4  A    between atoms: O_10  and  C_11 
REMARK    5  A    between atoms: C_11  and  C_12 
REMARK       I    between atoms: C_12  and  N_13 
REMARK    6  A    between atoms: N_13  and  C_14 
REMARK    7  A    between atoms: C_17  and  O_18 
ROOT
HETATM    1  C   UNL     1     -42.928  56.247 -51.846  1.00  0.00     0.033 A 
HETATM    2  C   UNL     1     -42.073  57.344 -52.003  1.00  0.00     0.020 A 
HETATM    3  C   UNL     1     -42.551  58.636 -51.767  1.00  0.00     0.038 A 
HETATM    4  C   UNL     1     -43.881  58.842 -51.393  1.00  0.00     0.069 A 
HETATM    5  C   UNL     1     -44.728  57.749 -51.212  1.00  0.00     0.038 A 
HETATM    6  C   UNL     1     -44.251  56.454 -51.435  1.00  0.00     0.020 A 
ENDROOT
BRANCH   4   7
HETATM    7  O   UNL     1     -44.234  60.142 -51.154  1.00  0.00    -0.342 OA
BRANCH   7   8
HETATM    8  C   UNL     1     -45.166  60.341 -50.093  1.00  0.00     0.278 C 
BRANCH   8   9
HETATM    9  C   UNL     1     -44.691  61.290 -48.986  1.00  0.00     0.246 C 
HETATM   10  N   UNL     1     -45.205  60.970 -47.742  1.00  0.00    -0.325 N 
HETATM   11  H   UNL     1     -45.844  60.180 -47.730  1.00  0.00     0.169 HD
HETATM   12  O   UNL     1     -43.929  62.215 -49.249  1.00  0.00    -0.271 OA
BRANCH  10  13
HETATM   13  C   UNL     1     -45.000  61.643 -46.524  1.00  0.00     0.035 A 
HETATM   14  C   UNL     1     -45.366  62.967 -46.293  1.00  0.00     0.032 A 
HETATM   15  C   UNL     1     -45.143  63.555 -45.043  1.00  0.00     0.039 A 
HETATM   16  C   UNL     1     -44.561  62.828 -44.004  1.00  0.00     0.068 A 
HETATM   17  C   UNL     1     -44.177  61.509 -44.234  1.00  0.00     0.039 A 
HETATM   18  C   UNL     1     -44.394  60.922 -45.488  1.00  0.00     0.032 A 
BRANCH  16  19
HETATM   19  O   UNL     1     -44.415  63.516 -42.832  1.00  0.00    -0.356 OA
HETATM   20  C   UNL     1     -43.125  63.492 -42.235  1.00  0.00     0.210 C 
ENDBRANCH  16  19
ENDBRANCH  10  13
ENDBRANCH   8   9
ENDBRANCH   7   8
ENDBRANCH   4   7
BRANCH   1  21
HETATM   21  C   UNL     1     -42.459  54.851 -52.064  1.00  0.00     0.270 C 
HETATM   22  N   UNL     1     -41.105  54.709 -52.247  1.00  0.00    -0.259 N 
HETATM   23  H   UNL     1     -40.478  55.482 -52.405  1.00  0.00     0.191 HD
HETATM   24  O   UNL     1     -43.280  53.942 -52.094  1.00  0.00    -0.266 OA
BRANCH  22  25
HETATM   25  N   UNL     1     -40.595  53.495 -52.524  1.00  0.00    -0.263 N 
HETATM   26  C   UNL     1     -40.133  52.640 -51.564  1.00  0.00     0.030 A 
HETATM   27  C   UNL     1     -40.326  52.860 -50.108  1.00  0.00     0.070 C 
HETATM   28  C   UNL     1     -39.514  51.598 -52.232  1.00  0.00     0.028 A 
HETATM   29  C   UNL     1     -39.588  51.872 -53.622  1.00  0.00     0.028 A 
HETATM   30  C   UNL     1     -40.248  53.077 -53.780  1.00  0.00     0.030 A 
HETATM   31  C   UNL     1     -40.598  53.817 -55.019  1.00  0.00     0.070 C 
ENDBRANCH  22  25
ENDBRANCH   1  21
TORSDOF 7
ENDMDL
MODEL 2
REMARK VINA RESULT:      -7.7      5.524      8.870
REMARK  7 active torsions:
REMARK  status: ('A' for Active; 'I' for Inactive)
REMARK    1  A    between atoms: N_3  and  N_4 
REMARK       I    between atoms: N_4  and  C_5 
REMARK    2  A    between atoms: C_5  and  C_6 
REMARK    3  A    between atoms: C_9  and  O_10 
REMARK    4  A    between atoms: O_10  and  C_11 
REMARK    5  A    between atoms: C_11  and  C_12 
REMARK       I    between atoms: C_12  and  N_13 
REMARK    6  A    between atoms: N_13  and  C_14 
REMARK    7  A    between atoms: C_17  and  O_18 
ROOT
HETATM    1  C   UNL     1     -41.966  56.202 -52.690  1.00  0.00     0.033 A 
HETATM    2  C   UNL     1     -40.904  56.907 -53.269  1.00  0.00     0.020 A 
HETATM    3  C   UNL     1     -41.041  58.272 -53.537  1.00  0.00     0.038 A 
HETATM    4  C   UNL     1     -42.236  58.935 -53.248  1.00  0.00     0.069 A 
HETATM    5  C   UNL     1     -43.287  58.241 -52.647  1.00  0.00     0.038 A 
HETATM    6  C   UNL     1     -43.150  56.878 -52.365  1.00  0.00     0.020 A 
ENDROOT
BRANCH   4   7
HETATM    7  O   UNL     1     -42.250  60.275 -53.518  1.00  0.00    -0.342 OA
BRANCH   7   8
HETATM    8  C   UNL     1     -43.018  60.667 -54.654  1.00  0.00     0.278 C 
BRANCH   8   9
HETATM    9  C   UNL     1     -42.744  59.860 -55.928  1.00  0.00     0.246 C 
HETATM   10  N   UNL     1     -43.732  58.933 -56.205  1.00  0.00    -0.325 N 
HETATM   11  H   UNL     1     -44.483  58.887 -55.522  1.00  0.00     0.169 HD
HETATM   12  O   UNL     1     -41.731  60.072 -56.588  1.00  0.00    -0.271 OA
BRANCH  10  13
HETATM   13  C   UNL     1     -43.782  58.015 -57.270  1.00  0.00     0.035 A 
HETATM   14  C   UNL     1     -44.471  58.238 -58.460  1.00  0.00     0.032 A 
HETATM   15  C   UNL     1     -44.454  57.278 -59.478  1.00  0.00     0.039 A 
HETATM   16  C   UNL     1     -43.743  56.088 -59.327  1.00  0.00     0.068 A 
HETATM   17  C   UNL     1     -43.066  55.851 -58.133  1.00  0.00     0.039 A 
HETATM   18  C   UNL     1     -43.088  56.809 -57.111  1.00  0.00     0.032 A 
BRANCH  16  19
HETATM   19  O   UNL     1     -43.796  55.246 -60.403  1.00  0.00    -0.356 OA
HETATM   20  C   UNL     1     -45.050  55.134 -61.063  1.00  0.00     0.210 C 
ENDBRANCH  16  19
ENDBRANCH  10  13
ENDBRANCH   8   9
ENDBRANCH   7   8
ENDBRANCH   4   7
BRANCH   1  21
HETATM   21  C   UNL     1     -41.860  54.754 -52.364  1.00  0.00     0.270 C 
HETATM   22  N   UNL     1     -40.579  54.273 -52.239  1.00  0.00    -0.259 N 
HETATM   23  H   UNL     1     -39.759  54.790 -52.513  1.00  0.00     0.191 HD
HETATM   24  O   UNL     1     -42.883  54.088 -52.258  1.00  0.00    -0.266 OA
BRANCH  22  25
HETATM   25  N   UNL     1     -40.379  52.961 -52.019  1.00  0.00    -0.263 N 
HETATM   26  C   UNL     1     -40.199  52.429 -50.773  1.00  0.00     0.030 A 
HETATM   27  C   UNL     1     -40.405  53.195 -49.517  1.00  0.00     0.070 C 
HETATM   28  C   UNL     1     -39.831  51.109 -50.960  1.00  0.00     0.028 A 
HETATM   29  C   UNL     1     -39.761  50.874 -52.357  1.00  0.00     0.028 A 
HETATM   30  C   UNL     1     -40.086  52.055 -53.000  1.00  0.00     0.030 A 
HETATM   31  C   UNL     1     -40.172  52.357 -54.452  1.00  0.00     0.070 C 
ENDBRANCH  22  25
ENDBRANCH   1  21
TORSDOF 7
ENDMDL
MODEL 3
REMARK VINA RESULT:      -7.7      5.221      9.768
REMARK  7 active torsions:
REMARK  status: ('A' for Active; 'I' for Inactive)
REMARK    1  A    between atoms: N_3  and  N_4 
REMARK       I    between atoms: N_4  and  C_5 
REMARK    2  A    between atoms: C_5  and  C_6 
REMARK    3  A    between atoms: C_9  and  O_10 
REMARK    4  A    between atoms: O_10  and  C_11 
REMARK    5  A    between atoms: C_11  and  C_12 
REMARK       I    between atoms: C_12  and  N_13 
REMARK    6  A    between atoms: N_13  and  C_14 
REMARK    7  A    between atoms: C_17  and  O_18 
ROOT
HETATM    1  C   UNL     1     -43.417  58.229 -55.579  1.00  0.00     0.033 A 
HETATM    2  C   UNL     1     -42.091  57.855 -55.330  1.00  0.00     0.020 A 
HETATM    3  C   UNL     1     -41.617  57.815 -54.016  1.00  0.00     0.038 A 
HETATM    4  C   UNL     1     -42.451  58.161 -52.951  1.00  0.00     0.069 A 
HETATM    5  C   UNL     1     -43.780  58.508 -53.194  1.00  0.00     0.038 A 
HETATM    6  C   UNL     1     -44.262  58.539 -54.506  1.00  0.00     0.020 A 
ENDROOT
BRANCH   4   7
HETATM    7  O   UNL     1     -41.896  58.053 -51.705  1.00  0.00    -0.342 OA
BRANCH   7   8
HETATM    8  C   UNL     1     -42.504  57.095 -50.841  1.00  0.00     0.278 C 
BRANCH   8   9
HETATM    9  C   UNL     1     -42.380  55.638 -51.304  1.00  0.00     0.246 C 
HETATM   10  N   UNL     1     -41.072  55.256 -51.540  1.00  0.00    -0.325 N 
HETATM   11  H   UNL     1     -40.378  55.987 -51.409  1.00  0.00     0.169 HD
HETATM   12  O   UNL     1     -43.382  54.940 -51.426  1.00  0.00    -0.271 OA
BRANCH  10  13
HETATM   13  C   UNL     1     -40.605  54.010 -51.999  1.00  0.00     0.035 A 
HETATM   14  C   UNL     1     -40.128  53.001 -51.166  1.00  0.00     0.032 A 
HETATM   15  C   UNL     1     -39.700  51.782 -51.704  1.00  0.00     0.039 A 
HETATM   16  C   UNL     1     -39.750  51.551 -53.079  1.00  0.00     0.068 A 
HETATM   17  C   UNL     1     -40.209  52.562 -53.919  1.00  0.00     0.039 A 
HETATM   18  C   UNL     1     -40.632  53.785 -53.381  1.00  0.00     0.032 A 
BRANCH  16  19
HETATM   19  O   UNL     1     -39.317  50.315 -53.470  1.00  0.00    -0.356 OA
HETATM   20  C   UNL     1     -39.897  49.780 -54.653  1.00  0.00     0.210 C 
ENDBRANCH  16  19
ENDBRANCH  10  13
ENDBRANCH   8   9
ENDBRANCH   7   8
ENDBRANCH   4   7
BRANCH   1  21
HETATM   21  C   UNL     1     -43.975  58.265 -56.959  1.00  0.00     0.270 C 
HETATM   22  N   UNL     1     -44.853  57.253 -57.263  1.00  0.00    -0.259 N 
HETATM   23  H   UNL     1     -44.992  56.440 -56.685  1.00  0.00     0.191 HD
HETATM   24  O   UNL     1     -43.611  59.146 -57.728  1.00  0.00    -0.266 OA
BRANCH  22  25
HETATM   25  N   UNL     1     -45.353  57.158 -58.509  1.00  0.00    -0.263 N 
HETATM   26  C   UNL     1     -46.574  57.658 -58.866  1.00  0.00     0.030 A 
HETATM   27  C   UNL     1     -47.392  58.531 -57.987  1.00  0.00     0.070 C 
HETATM   28  C   UNL     1     -46.823  57.201 -60.148  1.00  0.00     0.028 A 
HETATM   29  C   UNL     1     -45.731  56.384 -60.537  1.00  0.00     0.028 A 
HETATM   30  C   UNL     1     -44.833  56.353 -59.485  1.00  0.00     0.030 A 
HETATM   31  C   UNL     1     -43.526  55.657 -59.367  1.00  0.00     0.070 C 
ENDBRANCH  22  25
ENDBRANCH   1  21
TORSDOF 7
ENDMDL
MODEL 4
REMARK VINA RESULT:      -7.5      0.281      1.516
REMARK  7 active torsions:
REMARK  status: ('A' for Active; 'I' for Inactive)
REMARK    1  A    between atoms: N_3  and  N_4 
REMARK       I    between atoms: N_4  and  C_5 
REMARK    2  A    between atoms: C_5  and  C_6 
REMARK    3  A    between atoms: C_9  and  O_10 
REMARK    4  A    between atoms: O_10  and  C_11 
REMARK    5  A    between atoms: C_11  and  C_12 
REMARK       I    between atoms: C_12  and  N_13 
REMARK    6  A    between atoms: N_13  and  C_14 
REMARK    7  A    between atoms: C_17  and  O_18 
ROOT
HETATM    1  C   UNL     1     -42.860  56.450 -52.034  1.00  0.00     0.033 A 
HETATM    2  C   UNL     1     -42.012  57.563 -51.987  1.00  0.00     0.020 A 
HETATM    3  C   UNL     1     -42.548  58.835 -51.773  1.00  0.00     0.038 A 
HETATM    4  C   UNL     1     -43.926  59.007 -51.622  1.00  0.00     0.069 A 
HETATM    5  C   UNL     1     -44.770  57.897 -51.642  1.00  0.00     0.038 A 
HETATM    6  C   UNL     1     -44.237  56.620 -51.845  1.00  0.00     0.020 A 
ENDROOT
BRANCH   4   7
HETATM    7  O   UNL     1     -44.340  60.289 -51.382  1.00  0.00    -0.342 OA
BRANCH   7   8
HETATM    8  C   UNL     1     -45.218  60.454 -50.271  1.00  0.00     0.278 C 
BRANCH   8   9
HETATM    9  C   UNL     1     -44.656  61.304 -49.125  1.00  0.00     0.246 C 
HETATM   10  N   UNL     1     -45.302  61.086 -47.922  1.00  0.00    -0.325 N 
HETATM   11  H   UNL     1     -46.073  60.424 -47.961  1.00  0.00     0.169 HD
HETATM   12  O   UNL     1     -43.724  62.077 -49.328  1.00  0.00    -0.271 OA
BRANCH  10  13
HETATM   13  C   UNL     1     -45.063  61.714 -46.686  1.00  0.00     0.035 A 
HETATM   14  C   UNL     1     -45.347  63.052 -46.423  1.00  0.00     0.032 A 
HETATM   15  C   UNL     1     -45.095  63.593 -45.157  1.00  0.00     0.039 A 
HETATM   16  C   UNL     1     -44.565  62.806 -44.135  1.00  0.00     0.068 A 
HETATM   17  C   UNL     1     -44.263  61.471 -44.397  1.00  0.00     0.039 A 
HETATM   18  C   UNL     1     -44.509  60.931 -45.666  1.00  0.00     0.032 A 
BRANCH  16  19
HETATM   19  O   UNL     1     -44.383  63.454 -42.946  1.00  0.00    -0.356 OA
HETATM   20  C   UNL     1     -43.066  63.445 -42.409  1.00  0.00     0.210 C 
ENDBRANCH  16  19
ENDBRANCH  10  13
ENDBRANCH   8   9
ENDBRANCH   7   8
ENDBRANCH   4   7
BRANCH   1  21
HETATM   21  C   UNL     1     -42.333  55.072 -52.237  1.00  0.00     0.270 C 
HETATM   22  N   UNL     1     -40.979  54.987 -52.449  1.00  0.00    -0.259 N 
HETATM   23  H   UNL     1     -40.390  55.784 -52.635  1.00  0.00     0.191 HD
HETATM   24  O   UNL     1     -43.113  54.127 -52.232  1.00  0.00    -0.266 OA
BRANCH  22  25
HETATM   25  N   UNL     1     -40.420  53.793 -52.716  1.00  0.00    -0.263 N 
HETATM   26  C   UNL     1     -40.328  53.274 -53.977  1.00  0.00     0.030 A 
HETATM   27  C   UNL     1     -40.644  54.044 -55.206  1.00  0.00     0.070 C 
HETATM   28  C   UNL     1     -39.885  51.971 -53.832  1.00  0.00     0.028 A 
HETATM   29  C   UNL     1     -39.747  51.713 -52.444  1.00  0.00     0.028 A 
HETATM   30  C   UNL     1     -40.109  52.861 -51.763  1.00  0.00     0.030 A 
HETATM   31  C   UNL     1     -40.140  53.135 -50.304  1.00  0.00     0.070 C 
ENDBRANCH  22  25
ENDBRANCH   1  21
TORSDOF 7
ENDMDL
MODEL 5
REMARK VINA RESULT:      -7.5      4.970      8.370
REMARK  7 active torsions:
REMARK  status: ('A' for Active; 'I' for Inactive)
REMARK    1  A    between atoms: N_3  and  N_4 
REMARK       I    between atoms: N_4  and  C_5 
REMARK    2  A    between atoms: C_5  and  C_6 
REMARK    3  A    between atoms: C_9  and  O_10 
REMARK    4  A    between atoms: O_10  and  C_11 
REMARK    5  A    between atoms: C_11  and  C_12 
REMARK       I    between atoms: C_12  and  N_13 
REMARK    6  A    between atoms: N_13  and  C_14 
REMARK    7  A    between atoms: C_17  and  O_18 
ROOT
HETATM    1  C   UNL     1     -42.819  56.218 -52.282  1.00  0.00     0.033 A 
HETATM    2  C   UNL     1     -43.988  56.675 -51.660  1.00  0.00     0.020 A 
HETATM    3  C   UNL     1     -44.364  58.014 -51.788  1.00  0.00     0.038 A 
HETATM    4  C   UNL     1     -43.574  58.906 -52.518  1.00  0.00     0.069 A 
HETATM    5  C   UNL     1     -42.423  58.448 -53.160  1.00  0.00     0.038 A 
HETATM    6  C   UNL     1     -42.049  57.106 -53.044  1.00  0.00     0.020 A 
ENDROOT
BRANCH   4   7
HETATM    7  O   UNL     1     -44.053  60.184 -52.608  1.00  0.00    -0.342 OA
BRANCH   7   8
HETATM    8  C   UNL     1     -45.322  60.323 -53.242  1.00  0.00     0.278 C 
BRANCH   8   9
HETATM    9  C   UNL     1     -45.306  60.151 -54.766  1.00  0.00     0.246 C 
HETATM   10  N   UNL     1     -45.616  58.865 -55.168  1.00  0.00    -0.325 N 
HETATM   11  H   UNL     1     -45.781  58.205 -54.413  1.00  0.00     0.169 HD
HETATM   12  O   UNL     1     -45.039  61.103 -55.493  1.00  0.00    -0.271 OA
BRANCH  10  13
HETATM   13  C   UNL     1     -45.662  58.357 -56.480  1.00  0.00     0.035 A 
HETATM   14  C   UNL     1     -46.807  58.352 -57.274  1.00  0.00     0.032 A 
HETATM   15  C   UNL     1     -46.761  57.844 -58.577  1.00  0.00     0.039 A 
HETATM   16  C   UNL     1     -45.572  57.344 -59.109  1.00  0.00     0.068 A 
HETATM   17  C   UNL     1     -44.428  57.331 -58.314  1.00  0.00     0.039 A 
HETATM   18  C   UNL     1     -44.475  57.833 -57.007  1.00  0.00     0.032 A 
BRANCH  16  19
HETATM   19  O   UNL     1     -45.663  56.894 -60.396  1.00  0.00    -0.356 OA
HETATM   20  C   UNL     1     -46.836  56.168 -60.737  1.00  0.00     0.210 C 
ENDBRANCH  16  19
ENDBRANCH  10  13
ENDBRANCH   8   9
ENDBRANCH   7   8
ENDBRANCH   4   7
BRANCH   1  21
HETATM   21  C   UNL     1     -42.389  54.796 -52.194  1.00  0.00     0.270 C 
HETATM   22  N   UNL     1     -41.034  54.587 -52.275  1.00  0.00    -0.259 N 
HETATM   23  H   UNL     1     -40.374  55.297 -52.550  1.00  0.00     0.191 HD
HETATM   24  O   UNL     1     -43.238  53.920 -52.085  1.00  0.00    -0.266 OA
BRANCH  22  25
HETATM   25  N   UNL     1     -40.553  53.330 -52.279  1.00  0.00    -0.263 N 
HETATM   26  C   UNL     1     -40.157  52.676 -51.146  1.00  0.00     0.030 A 
HETATM   27  C   UNL     1     -40.399  53.191 -49.775  1.00  0.00     0.070 C 
HETATM   28  C   UNL     1     -39.547  51.506 -51.563  1.00  0.00     0.028 A 
HETATM   29  C   UNL     1     -39.559  51.494 -52.981  1.00  0.00     0.028 A 
HETATM   30  C   UNL     1     -40.173  52.658 -53.408  1.00  0.00     0.030 A 
HETATM   31  C   UNL     1     -40.450  53.140 -54.785  1.00  0.00     0.070 C 
ENDBRANCH  22  25
ENDBRANCH   1  21
TORSDOF 7
ENDMDL
MODEL 6
REMARK VINA RESULT:      -7.4     19.019     21.360
REMARK  7 active torsions:
REMARK  status: ('A' for Active; 'I' for Inactive)
REMARK    1  A    between atoms: N_3  and  N_4 
REMARK       I    between atoms: N_4  and  C_5 
REMARK    2  A    between atoms: C_5  and  C_6 
REMARK    3  A    between atoms: C_9  and  O_10 
REMARK    4  A    between atoms: O_10  and  C_11 
REMARK    5  A    between atoms: C_11  and  C_12 
REMARK       I    between atoms: C_12  and  N_13 
REMARK    6  A    between atoms: N_13  and  C_14 
REMARK    7  A    between atoms: C_17  and  O_18 
ROOT
HETATM    1  C   UNL     1     -37.781  39.656 -58.725  1.00  0.00     0.033 A 
HETATM    2  C   UNL     1     -37.306  40.919 -59.100  1.00  0.00     0.020 A 
HETATM    3  C   UNL     1     -36.981  41.857 -58.117  1.00  0.00     0.038 A 
HETATM    4  C   UNL     1     -37.142  41.551 -56.764  1.00  0.00     0.069 A 
HETATM    5  C   UNL     1     -37.590  40.285 -56.387  1.00  0.00     0.038 A 
HETATM    6  C   UNL     1     -37.905  39.338 -57.367  1.00  0.00     0.020 A 
ENDROOT
BRANCH   4   7
HETATM    7  O   UNL     1     -36.761  42.529 -55.886  1.00  0.00    -0.342 OA
BRANCH   7   8
HETATM    8  C   UNL     1     -35.422  42.434 -55.403  1.00  0.00     0.278 C 
BRANCH   8   9
HETATM    9  C   UNL     1     -35.296  42.101 -53.912  1.00  0.00     0.246 C 
HETATM   10  N   UNL     1     -34.227  41.270 -53.632  1.00  0.00    -0.325 N 
HETATM   11  H   UNL     1     -33.692  40.968 -54.442  1.00  0.00     0.169 HD
HETATM   12  O   UNL     1     -36.096  42.565 -53.104  1.00  0.00    -0.271 OA
BRANCH  10  13
HETATM   13  C   UNL     1     -33.841  40.748 -52.384  1.00  0.00     0.035 A 
HETATM   14  C   UNL     1     -34.736  40.374 -51.384  1.00  0.00     0.032 A 
HETATM   15  C   UNL     1     -34.267  39.845 -50.177  1.00  0.00     0.039 A 
HETATM   16  C   UNL     1     -32.901  39.674 -49.953  1.00  0.00     0.068 A 
HETATM   17  C   UNL     1     -32.000  40.062 -50.941  1.00  0.00     0.039 A 
HETATM   18  C   UNL     1     -32.469  40.598 -52.148  1.00  0.00     0.032 A 
BRANCH  16  19
HETATM   19  O   UNL     1     -32.581  39.133 -48.739  1.00  0.00    -0.356 OA
HETATM   20  C   UNL     1     -31.482  39.717 -48.051  1.00  0.00     0.210 C 
ENDBRANCH  16  19
ENDBRANCH  10  13
ENDBRANCH   8   9
ENDBRANCH   7   8
ENDBRANCH   4   7
BRANCH   1  21
HETATM   21  C   UNL     1     -38.119  38.615 -59.735  1.00  0.00     0.270 C 
HETATM   22  N   UNL     1     -38.717  39.081 -60.880  1.00  0.00    -0.259 N 
HETATM   23  H   UNL     1     -39.072  40.019 -60.984  1.00  0.00     0.191 HD
HETATM   24  O   UNL     1     -37.879  37.440 -59.485  1.00  0.00    -0.266 OA
BRANCH  22  25
HETATM   25  N   UNL     1     -39.127  38.210 -61.820  1.00  0.00    -0.263 N 
HETATM   26  C   UNL     1     -38.418  37.948 -62.958  1.00  0.00     0.030 A 
HETATM   27  C   UNL     1     -37.035  38.433 -63.193  1.00  0.00     0.070 C 
HETATM   28  C   UNL     1     -39.236  37.168 -63.757  1.00  0.00     0.028 A 
HETATM   29  C   UNL     1     -40.469  36.998 -63.078  1.00  0.00     0.028 A 
HETATM   30  C   UNL     1     -40.386  37.680 -61.876  1.00  0.00     0.030 A 
HETATM   31  C   UNL     1     -41.388  37.820 -60.789  1.00  0.00     0.070 C 
ENDBRANCH  22  25
ENDBRANCH   1  21
TORSDOF 7
ENDMDL
MODEL 7
REMARK VINA RESULT:      -7.3      5.165      8.754
REMARK  7 active torsions:
REMARK  status: ('A' for Active; 'I' for Inactive)
REMARK    1  A    between atoms: N_3  and  N_4 
REMARK       I    between atoms: N_4  and  C_5 
REMARK    2  A    between atoms: C_5  and  C_6 
REMARK    3  A    between atoms: C_9  and  O_10 
REMARK    4  A    between atoms: O_10  and  C_11 
REMARK    5  A    between atoms: C_11  and  C_12 
REMARK       I    between atoms: C_12  and  N_13 
REMARK    6  A    between atoms: N_13  and  C_14 
REMARK    7  A    between atoms: C_17  and  O_18 
ROOT
HETATM    1  C   UNL     1     -42.806  56.434 -52.564  1.00  0.00     0.033 A 
HETATM    2  C   UNL     1     -44.065  56.782 -52.058  1.00  0.00     0.020 A 
HETATM    3  C   UNL     1     -44.530  58.092 -52.193  1.00  0.00     0.038 A 
HETATM    4  C   UNL     1     -43.741  59.063 -52.814  1.00  0.00     0.069 A 
HETATM    5  C   UNL     1     -42.498  58.714 -53.343  1.00  0.00     0.038 A 
HETATM    6  C   UNL     1     -42.033  57.401 -53.220  1.00  0.00     0.020 A 
ENDROOT
BRANCH   4   7
HETATM    7  O   UNL     1     -44.306  60.304 -52.925  1.00  0.00    -0.342 OA
BRANCH   7   8
HETATM    8  C   UNL     1     -45.458  60.383 -53.762  1.00  0.00     0.278 C 
BRANCH   8   9
HETATM    9  C   UNL     1     -45.207  60.051 -55.238  1.00  0.00     0.246 C 
HETATM   10  N   UNL     1     -45.791  58.861 -55.631  1.00  0.00    -0.325 N 
HETATM   11  H   UNL     1     -46.276  58.355 -54.895  1.00  0.00     0.169 HD
HETATM   12  O   UNL     1     -44.549  60.813 -55.941  1.00  0.00    -0.271 OA
BRANCH  10  13
HETATM   13  C   UNL     1     -45.736  58.247 -56.896  1.00  0.00     0.035 A 
HETATM   14  C   UNL     1     -44.586  57.673 -57.435  1.00  0.00     0.032 A 
HETATM   15  C   UNL     1     -44.623  57.065 -58.694  1.00  0.00     0.039 A 
HETATM   16  C   UNL     1     -45.808  57.013 -59.429  1.00  0.00     0.068 A 
HETATM   17  C   UNL     1     -46.957  57.599 -58.903  1.00  0.00     0.039 A 
HETATM   18  C   UNL     1     -46.919  58.214 -57.645  1.00  0.00     0.032 A 
BRANCH  16  19
HETATM   19  O   UNL     1     -45.709  56.377 -60.635  1.00  0.00    -0.356 OA
HETATM   20  C   UNL     1     -44.567  55.552 -60.829  1.00  0.00     0.210 C 
ENDBRANCH  16  19
ENDBRANCH  10  13
ENDBRANCH   8   9
ENDBRANCH   7   8
ENDBRANCH   4   7
BRANCH   1  21
HETATM   21  C   UNL     1     -42.277  55.046 -52.464  1.00  0.00     0.270 C 
HETATM   22  N   UNL     1     -40.908  54.937 -52.496  1.00  0.00    -0.259 N 
HETATM   23  H   UNL     1     -40.292  55.694 -52.745  1.00  0.00     0.191 HD
HETATM   24  O   UNL     1     -43.064  54.111 -52.389  1.00  0.00    -0.266 OA
BRANCH  22  25
HETATM   25  N   UNL     1     -40.337  53.718 -52.486  1.00  0.00    -0.263 N 
HETATM   26  C   UNL     1     -40.180  52.956 -53.609  1.00  0.00     0.030 A 
HETATM   27  C   UNL     1     -40.430  53.459 -54.984  1.00  0.00     0.070 C 
HETATM   28  C   UNL     1     -39.747  51.714 -53.181  1.00  0.00     0.028 A 
HETATM   29  C   UNL     1     -39.682  51.743 -51.765  1.00  0.00     0.028 A 
HETATM   30  C   UNL     1     -40.079  53.002 -51.350  1.00  0.00     0.030 A 
HETATM   31  C   UNL     1     -40.186  53.564 -49.980  1.00  0.00     0.070 C 
ENDBRANCH  22  25
ENDBRANCH   1  21
TORSDOF 7
ENDMDL
MODEL 8
REMARK VINA RESULT:      -7.3      5.325      9.911
REMARK  7 active torsions:
REMARK  status: ('A' for Active; 'I' for Inactive)
REMARK    1  A    between atoms: N_3  and  N_4 
REMARK       I    between atoms: N_4  and  C_5 
REMARK    2  A    between atoms: C_5  and  C_6 
REMARK    3  A    between atoms: C_9  and  O_10 
REMARK    4  A    between atoms: O_10  and  C_11 
REMARK    5  A    between atoms: C_11  and  C_12 
REMARK       I    between atoms: C_12  and  N_13 
REMARK    6  A    between atoms: N_13  and  C_14 
REMARK    7  A    between atoms: C_17  and  O_18 
ROOT
HETATM    1  C   UNL     1     -43.668  58.615 -55.853  1.00  0.00     0.033 A 
HETATM    2  C   UNL     1     -42.644  58.817 -54.920  1.00  0.00     0.020 A 
HETATM    3  C   UNL     1     -42.838  58.451 -53.585  1.00  0.00     0.038 A 
HETATM    4  C   UNL     1     -44.053  57.901 -53.171  1.00  0.00     0.069 A 
HETATM    5  C   UNL     1     -45.066  57.674 -54.103  1.00  0.00     0.038 A 
HETATM    6  C   UNL     1     -44.871  58.027 -55.442  1.00  0.00     0.020 A 
ENDROOT
BRANCH   4   7
HETATM    7  O   UNL     1     -44.124  57.546 -51.852  1.00  0.00    -0.342 OA
BRANCH   7   8
HETATM    8  C   UNL     1     -42.909  57.072 -51.276  1.00  0.00     0.278 C 
BRANCH   8   9
HETATM    9  C   UNL     1     -42.653  55.570 -51.454  1.00  0.00     0.246 C 
HETATM   10  N   UNL     1     -41.471  55.298 -52.119  1.00  0.00    -0.325 N 
HETATM   11  H   UNL     1     -40.950  56.116 -52.424  1.00  0.00     0.169 HD
HETATM   12  O   UNL     1     -43.457  54.750 -51.022  1.00  0.00    -0.271 OA
BRANCH  10  13
HETATM   13  C   UNL     1     -40.948  54.041 -52.474  1.00  0.00     0.035 A 
HETATM   14  C   UNL     1     -41.090  53.465 -53.734  1.00  0.00     0.032 A 
HETATM   15  C   UNL     1     -40.522  52.216 -54.009  1.00  0.00     0.039 A 
HETATM   16  C   UNL     1     -39.797  51.530 -53.034  1.00  0.00     0.068 A 
HETATM   17  C   UNL     1     -39.665  52.093 -51.767  1.00  0.00     0.039 A 
HETATM   18  C   UNL     1     -40.240  53.341 -51.490  1.00  0.00     0.032 A 
BRANCH  16  19
HETATM   19  O   UNL     1     -39.282  50.330 -53.439  1.00  0.00    -0.356 OA
HETATM   20  C   UNL     1     -39.771  49.809 -54.668  1.00  0.00     0.210 C 
ENDBRANCH  16  19
ENDBRANCH  10  13
ENDBRANCH   8   9
ENDBRANCH   7   8
ENDBRANCH   4   7
BRANCH   1  21
HETATM   21  C   UNL     1     -43.500  58.967 -57.289  1.00  0.00     0.270 C 
HETATM   22  N   UNL     1     -42.200  59.046 -57.726  1.00  0.00    -0.259 N 
HETATM   23  H   UNL     1     -41.403  59.048 -57.110  1.00  0.00     0.191 HD
HETATM   24  O   UNL     1     -44.494  59.186 -57.972  1.00  0.00    -0.266 OA
BRANCH  22  25
HETATM   25  N   UNL     1     -41.944  59.430 -58.989  1.00  0.00    -0.263 N 
HETATM   26  C   UNL     1     -41.808  60.738 -59.362  1.00  0.00     0.030 A 
HETATM   27  C   UNL     1     -41.723  61.862 -58.395  1.00  0.00     0.070 C 
HETATM   28  C   UNL     1     -41.752  60.748 -60.744  1.00  0.00     0.028 A 
HETATM   29  C   UNL     1     -41.893  59.409 -61.192  1.00  0.00     0.028 A 
HETATM   30  C   UNL     1     -42.036  58.604 -60.076  1.00  0.00     0.030 A 
HETATM   31  C   UNL     1     -42.208  57.133 -59.978  1.00  0.00     0.070 C 
ENDBRANCH  22  25
ENDBRANCH   1  21
TORSDOF 7
ENDMDL
MODEL 9
REMARK VINA RESULT:      -7.3      4.488      7.690
REMARK  7 active torsions:
REMARK  status: ('A' for Active; 'I' for Inactive)
REMARK    1  A    between atoms: N_3  and  N_4 
REMARK       I    between atoms: N_4  and  C_5 
REMARK    2  A    between atoms: C_5  and  C_6 
REMARK    3  A    between atoms: C_9  and  O_10 
REMARK    4  A    between atoms: O_10  and  C_11 
REMARK    5  A    between atoms: C_11  and  C_12 
REMARK       I    between atoms: C_12  and  N_13 
REMARK    6  A    between atoms: N_13  and  C_14 
REMARK    7  A    between atoms: C_17  and  O_18 
ROOT
HETATM    1  C   UNL     1     -42.413  56.158 -51.829  1.00  0.00     0.033 A 
HETATM    2  C   UNL     1     -41.430  57.093 -51.484  1.00  0.00     0.020 A 
HETATM    3  C   UNL     1     -41.786  58.427 -51.268  1.00  0.00     0.038 A 
HETATM    4  C   UNL     1     -43.114  58.838 -51.410  1.00  0.00     0.069 A 
HETATM    5  C   UNL     1     -44.100  57.903 -51.728  1.00  0.00     0.038 A 
HETATM    6  C   UNL     1     -43.749  56.565 -51.933  1.00  0.00     0.020 A 
ENDROOT
BRANCH   4   7
HETATM    7  O   UNL     1     -43.358  60.156 -51.141  1.00  0.00    -0.342 OA
BRANCH   7   8
HETATM    8  C   UNL     1     -42.852  61.084 -52.099  1.00  0.00     0.278 C 
BRANCH   8   9
HETATM    9  C   UNL     1     -43.255  60.798 -53.550  1.00  0.00     0.246 C 
HETATM   10  N   UNL     1     -42.254  60.181 -54.278  1.00  0.00    -0.325 N 
HETATM   11  H   UNL     1     -41.385  60.028 -53.773  1.00  0.00     0.169 HD
HETATM   12  O   UNL     1     -44.371  61.109 -53.955  1.00  0.00    -0.271 OA
BRANCH  10  13
HETATM   13  C   UNL     1     -42.276  59.807 -55.634  1.00  0.00     0.035 A 
HETATM   14  C   UNL     1     -42.110  60.698 -56.692  1.00  0.00     0.032 A 
HETATM   15  C   UNL     1     -42.127  60.238 -58.014  1.00  0.00     0.039 A 
HETATM   16  C   UNL     1     -42.301  58.883 -58.298  1.00  0.00     0.068 A 
HETATM   17  C   UNL     1     -42.485  57.990 -57.245  1.00  0.00     0.039 A 
HETATM   18  C   UNL     1     -42.474  58.451 -55.922  1.00  0.00     0.032 A 
BRANCH  16  19
HETATM   19  O   UNL     1     -42.282  58.568 -59.628  1.00  0.00    -0.356 OA
HETATM   20  C   UNL     1     -41.876  57.248 -59.964  1.00  0.00     0.210 C 
ENDBRANCH  16  19
ENDBRANCH  10  13
ENDBRANCH   8   9
ENDBRANCH   7   8
ENDBRANCH   4   7
BRANCH   1  21
HETATM   21  C   UNL     1     -42.086  54.722 -52.046  1.00  0.00     0.270 C 
HETATM   22  N   UNL     1     -40.752  54.444 -52.219  1.00  0.00    -0.259 N 
HETATM   23  H   UNL     1     -40.049  55.150 -52.370  1.00  0.00     0.191 HD
HETATM   24  O   UNL     1     -42.995  53.901 -52.085  1.00  0.00    -0.266 OA
BRANCH  22  25
HETATM   25  N   UNL     1     -40.365  53.185 -52.496  1.00  0.00    -0.263 N 
HETATM   26  C   UNL     1     -40.023  52.278 -51.533  1.00  0.00     0.030 A 
HETATM   27  C   UNL     1     -40.233  52.505 -50.081  1.00  0.00     0.070 C 
HETATM   28  C   UNL     1     -39.499  51.183 -52.195  1.00  0.00     0.028 A 
HETATM   29  C   UNL     1     -39.504  51.474 -53.584  1.00  0.00     0.028 A 
HETATM   30  C   UNL     1     -40.029  52.743 -53.746  1.00  0.00     0.030 A 
HETATM   31  C   UNL     1     -40.264  53.526 -54.986  1.00  0.00     0.070 C 
ENDBRANCH  22  25
ENDBRANCH   1  21
TORSDOF 7
ENDMDL
MODEL 10
REMARK VINA RESULT:      -7.2      4.456      7.780
REMARK  7 active torsions:
REMARK  status: ('A' for Active; 'I' for Inactive)
REMARK    1  A    between atoms: N_3  and  N_4 
REMARK       I    between atoms: N_4  and  C_5 
REMARK    2  A    between atoms: C_5  and  C_6 
REMARK    3  A    between atoms: C_9  and  O_10 
REMARK    4  A    between atoms: O_10  and  C_11 
REMARK    5  A    between atoms: C_11  and  C_12 
REMARK       I    between atoms: C_12  and  N_13 
REMARK    6  A    between atoms: N_13  and  C_14 
REMARK    7  A    between atoms: C_17  and  O_18 
ROOT
HETATM    1  C   UNL     1     -42.335  56.141 -51.957  1.00  0.00     0.033 A 
HETATM    2  C   UNL     1     -41.366  57.080 -51.583  1.00  0.00     0.020 A 
HETATM    3  C   UNL     1     -41.747  58.392 -51.291  1.00  0.00     0.038 A 
HETATM    4  C   UNL     1     -43.086  58.779 -51.386  1.00  0.00     0.069 A 
HETATM    5  C   UNL     1     -44.057  57.839 -51.733  1.00  0.00     0.038 A 
HETATM    6  C   UNL     1     -43.681  56.521 -52.014  1.00  0.00     0.020 A 
ENDROOT
BRANCH   4   7
HETATM    7  O   UNL     1     -43.354  60.076 -51.044  1.00  0.00    -0.342 OA
BRANCH   7   8
HETATM    8  C   UNL     1     -43.056  61.049 -52.042  1.00  0.00     0.278 C 
BRANCH   8   9
HETATM    9  C   UNL     1     -43.381  60.622 -53.478  1.00  0.00     0.246 C 
HETATM   10  N   UNL     1     -42.290  60.093 -54.145  1.00  0.00    -0.325 N 
HETATM   11  H   UNL     1     -41.423  60.085 -53.614  1.00  0.00     0.169 HD
HETATM   12  O   UNL     1     -44.516  60.762 -53.924  1.00  0.00    -0.271 OA
BRANCH  10  13
HETATM   13  C   UNL     1     -42.229  59.633 -55.473  1.00  0.00     0.035 A 
HETATM   14  C   UNL     1     -42.005  60.457 -56.574  1.00  0.00     0.032 A 
HETATM   15  C   UNL     1     -41.940  59.913 -57.862  1.00  0.00     0.039 A 
HETATM   16  C   UNL     1     -42.087  58.542 -58.068  1.00  0.00     0.068 A 
HETATM   17  C   UNL     1     -42.328  57.715 -56.973  1.00  0.00     0.039 A 
HETATM   18  C   UNL     1     -42.400  58.259 -55.684  1.00  0.00     0.032 A 
BRANCH  16  19
HETATM   19  O   UNL     1     -41.986  58.142 -59.372  1.00  0.00    -0.356 OA
HETATM   20  C   UNL     1     -42.625  56.920 -59.716  1.00  0.00     0.210 C 
ENDBRANCH  16  19
ENDBRANCH  10  13
ENDBRANCH   8   9
ENDBRANCH   7   8
ENDBRANCH   4   7
BRANCH   1  21
HETATM   21  C   UNL     1     -41.980  54.726 -52.255  1.00  0.00     0.270 C 
HETATM   22  N   UNL     1     -40.634  54.460 -52.317  1.00  0.00    -0.259 N 
HETATM   23  H   UNL     1     -39.923  55.173 -52.340  1.00  0.00     0.191 HD
HETATM   24  O   UNL     1     -42.876  53.913 -52.450  1.00  0.00    -0.266 OA
BRANCH  22  25
HETATM   25  N   UNL     1     -40.214  53.226 -52.653  1.00  0.00    -0.263 N 
HETATM   26  C   UNL     1     -40.093  52.804 -53.947  1.00  0.00     0.030 A 
HETATM   27  C   UNL     1     -40.212  53.707 -55.120  1.00  0.00     0.070 C 
HETATM   28  C   UNL     1     -39.833  51.446 -53.892  1.00  0.00     0.028 A 
HETATM   29  C   UNL     1     -39.836  51.060 -52.528  1.00  0.00     0.028 A 
HETATM   30  C   UNL     1     -40.100  52.188 -51.771  1.00  0.00     0.030 A 
HETATM   31  C   UNL     1     -40.208  52.343 -50.298  1.00  0.00     0.070 C 
ENDBRANCH  22  25
ENDBRANCH   1  21
TORSDOF 7
ENDMDL
