MODEL 1
REMARK VINA RESULT:      -8.8      0.000      0.000
REMARK  4 active torsions:
REMARK  status: ('A' for Active; 'I' for Inactive)
REMARK    1  A    between atoms: C_7  and  C_8 
REMARK    2  A    between atoms: N_9  and  C_10 
REMARK    3  A    between atoms: C_10  and  C_11 
REMARK       I    between atoms: C_11  and  N_12 
REMARK    4  A    between atoms: N_12  and  C_13 
ROOT
HETATM    1  C   UNL     1     -40.740  55.345 -52.709  1.00  0.00     0.158 A 
HETATM    2  N   UNL     1     -40.664  54.191 -53.589  1.00  0.00    -0.326 N 
HETATM    3  C   UNL     1     -40.433  53.019 -52.902  1.00  0.00     0.255 A 
HETATM    4  O   UNL     1     -40.187  51.921 -53.363  1.00  0.00    -0.267 OA
HETATM    5  C   UNL     1     -40.478  53.345 -51.471  1.00  0.00     0.040 A 
HETATM    6  C   UNL     1     -40.671  54.724 -51.344  1.00  0.00    -0.015 A 
HETATM    7  C   UNL     1     -40.370  52.497 -50.385  1.00  0.00     0.017 A 
HETATM    8  C   UNL     1     -40.459  53.070 -49.116  1.00  0.00     0.001 A 
HETATM    9  C   UNL     1     -40.643  54.458 -48.967  1.00  0.00     0.001 A 
HETATM   10  C   UNL     1     -40.745  55.295 -50.083  1.00  0.00     0.011 A 
ENDROOT
BRANCH   1  11
HETATM   11  C   UNL     1     -42.050  56.064 -52.812  1.00  0.00     0.004 A 
HETATM   12  C   UNL     1     -43.330  55.623 -52.478  1.00  0.00     0.015 A 
HETATM   13  C   UNL     1     -43.813  54.335 -51.911  1.00  0.00     0.069 C 
HETATM   14  N   UNL     1     -44.212  56.636 -52.765  1.00  0.00    -0.359 N 
HETATM   15  H   UNL     1     -45.211  56.591 -52.628  1.00  0.00     0.166 HD
HETATM   16  C   UNL     1     -43.552  57.728 -53.272  1.00  0.00     0.043 A 
HETATM   17  C   UNL     1     -42.199  57.406 -53.314  1.00  0.00     0.001 A 
HETATM   18  C   UNL     1     -44.056  58.966 -53.692  1.00  0.00     0.030 A 
HETATM   19  C   UNL     1     -41.298  58.377 -53.803  1.00  0.00     0.014 A 
HETATM   20  C   UNL     1     -41.782  59.621 -54.226  1.00  0.00     0.001 A 
HETATM   21  C   UNL     1     -43.144  59.908 -54.171  1.00  0.00     0.002 A 
ENDBRANCH   1  11
BRANCH   2  22
HETATM   22  C   UNL     1     -40.672  54.312 -55.040  1.00  0.00     0.229 C 
BRANCH  22  23
HETATM   23  C   UNL     1     -42.041  54.631 -55.647  1.00  0.00     0.235 C 
HETATM   24  N   UNL     1     -42.058  55.715 -56.500  1.00  0.00    -0.355 N 
HETATM   25  H   UNL     1     -41.146  56.058 -56.785  1.00  0.00     0.162 HD
HETATM   26  O   UNL     1     -43.001  53.886 -55.472  1.00  0.00    -0.272 OA
BRANCH  24  27
HETATM   27  C   UNL     1     -43.189  56.078 -57.351  1.00  0.00     0.084 C 
HETATM   28  C   UNL     1     -43.735  57.484 -57.039  1.00  0.00     0.025 C 
HETATM   29  C   UNL     1     -43.443  58.502 -58.138  1.00  0.00     0.002 C 
HETATM   30  C   UNL     1     -43.955  58.056 -59.508  1.00  0.00     0.000 C 
HETATM   31  C   UNL     1     -43.966  56.539 -59.703  1.00  0.00     0.002 C 
HETATM   32  C   UNL     1     -42.919  55.841 -58.845  1.00  0.00     0.025 C 
ENDBRANCH  24  27
ENDBRANCH  22  23
ENDBRANCH   2  22
TORSDOF 4
ENDMDL
MODEL 2
REMARK VINA RESULT:      -8.4      1.945      6.441
REMARK  4 active torsions:
REMARK  status: ('A' for Active; 'I' for Inactive)
REMARK    1  A    between atoms: C_7  and  C_8 
REMARK    2  A    between atoms: N_9  and  C_10 
REMARK    3  A    between atoms: C_10  and  C_11 
REMARK       I    between atoms: C_11  and  N_12 
REMARK    4  A    between atoms: N_12  and  C_13 
ROOT
HETATM    1  C   UNL     1     -43.564  57.131 -54.002  1.00  0.00     0.158 A 
HETATM    2  N   UNL     1     -42.970  57.172 -55.328  1.00  0.00    -0.326 N 
HETATM    3  C   UNL     1     -43.412  58.246 -56.070  1.00  0.00     0.255 A 
HETATM    4  O   UNL     1     -43.207  58.473 -57.247  1.00  0.00    -0.267 OA
HETATM    5  C   UNL     1     -44.250  59.062 -55.184  1.00  0.00     0.040 A 
HETATM    6  C   UNL     1     -44.338  58.416 -53.948  1.00  0.00    -0.015 A 
HETATM    7  C   UNL     1     -44.867  60.271 -55.445  1.00  0.00     0.017 A 
HETATM    8  C   UNL     1     -45.605  60.849 -54.412  1.00  0.00     0.001 A 
HETATM    9  C   UNL     1     -45.714  60.208 -53.164  1.00  0.00     0.001 A 
HETATM   10  C   UNL     1     -45.084  58.982 -52.925  1.00  0.00     0.011 A 
ENDROOT
BRANCH   1  11
HETATM   11  C   UNL     1     -42.538  57.175 -52.910  1.00  0.00     0.004 A 
HETATM   12  C   UNL     1     -41.469  58.052 -52.736  1.00  0.00     0.015 A 
HETATM   13  C   UNL     1     -41.003  59.213 -53.542  1.00  0.00     0.069 C 
HETATM   14  N   UNL     1     -40.804  57.683 -51.593  1.00  0.00    -0.359 N 
HETATM   15  H   UNL     1     -39.982  58.142 -51.225  1.00  0.00     0.166 HD
HETATM   16  C   UNL     1     -41.405  56.596 -51.008  1.00  0.00     0.043 A 
HETATM   17  C   UNL     1     -42.494  56.253 -51.805  1.00  0.00     0.001 A 
HETATM   18  C   UNL     1     -41.063  55.900 -49.842  1.00  0.00     0.030 A 
HETATM   19  C   UNL     1     -43.285  55.152 -51.412  1.00  0.00     0.014 A 
HETATM   20  C   UNL     1     -42.960  54.444 -50.248  1.00  0.00     0.001 A 
HETATM   21  C   UNL     1     -41.863  54.815 -49.476  1.00  0.00     0.002 A 
ENDBRANCH   1  11
BRANCH   2  22
HETATM   22  C   UNL     1     -42.132  56.099 -55.844  1.00  0.00     0.229 C 
BRANCH  22  23
HETATM   23  C   UNL     1     -42.325  54.748 -55.148  1.00  0.00     0.235 C 
HETATM   24  N   UNL     1     -41.207  54.265 -54.500  1.00  0.00    -0.355 N 
HETATM   25  H   UNL     1     -40.449  54.931 -54.386  1.00  0.00     0.162 HD
HETATM   26  O   UNL     1     -43.433  54.223 -55.078  1.00  0.00    -0.272 OA
BRANCH  24  27
HETATM   27  C   UNL     1     -41.207  53.114 -53.601  1.00  0.00     0.084 C 
HETATM   28  C   UNL     1     -41.033  51.779 -54.350  1.00  0.00     0.025 C 
HETATM   29  C   UNL     1     -39.677  51.123 -54.106  1.00  0.00     0.002 C 
HETATM   30  C   UNL     1     -39.383  50.909 -52.622  1.00  0.00     0.000 C 
HETATM   31  C   UNL     1     -40.027  51.948 -51.704  1.00  0.00     0.002 C 
HETATM   32  C   UNL     1     -40.250  53.280 -52.410  1.00  0.00     0.025 C 
ENDBRANCH  24  27
ENDBRANCH  22  23
ENDBRANCH   2  22
TORSDOF 4
ENDMDL
MODEL 3
REMARK VINA RESULT:      -8.2      2.016      6.078
REMARK  4 active torsions:
REMARK  status: ('A' for Active; 'I' for Inactive)
REMARK    1  A    between atoms: C_7  and  C_8 
REMARK    2  A    between atoms: N_9  and  C_10 
REMARK    3  A    between atoms: C_10  and  C_11 
REMARK       I    between atoms: C_11  and  N_12 
REMARK    4  A    between atoms: N_12  and  C_13 
ROOT
HETATM    1  C   UNL     1     -42.074  57.205 -55.146  1.00  0.00     0.158 A 
HETATM    2  N   UNL     1     -42.252  56.000 -54.351  1.00  0.00    -0.326 N 
HETATM    3  C   UNL     1     -42.230  56.254 -52.997  1.00  0.00     0.255 A 
HETATM    4  O   UNL     1     -42.216  55.447 -52.088  1.00  0.00    -0.267 OA
HETATM    5  C   UNL     1     -42.166  57.712 -52.836  1.00  0.00     0.040 A 
HETATM    6  C   UNL     1     -42.084  58.289 -54.107  1.00  0.00    -0.015 A 
HETATM    7  C   UNL     1     -42.190  58.457 -51.672  1.00  0.00     0.017 A 
HETATM    8  C   UNL     1     -42.126  59.845 -51.800  1.00  0.00     0.001 A 
HETATM    9  C   UNL     1     -42.033  60.444 -53.071  1.00  0.00     0.001 A 
HETATM   10  C   UNL     1     -42.006  59.667 -54.234  1.00  0.00     0.011 A 
ENDROOT
BRANCH   1  11
HETATM   11  C   UNL     1     -43.224  57.458 -56.073  1.00  0.00     0.004 A 
HETATM   12  C   UNL     1     -44.586  57.545 -55.791  1.00  0.00     0.015 A 
HETATM   13  C   UNL     1     -45.337  57.434 -54.511  1.00  0.00     0.069 C 
HETATM   14  N   UNL     1     -45.246  57.775 -56.972  1.00  0.00    -0.359 N 
HETATM   15  H   UNL     1     -46.247  57.877 -57.067  1.00  0.00     0.166 HD
HETATM   16  C   UNL     1     -44.362  57.847 -58.019  1.00  0.00     0.043 A 
HETATM   17  C   UNL     1     -43.088  57.653 -57.494  1.00  0.00     0.001 A 
HETATM   18  C   UNL     1     -44.600  58.065 -59.382  1.00  0.00     0.030 A 
HETATM   19  C   UNL     1     -41.990  57.682 -58.381  1.00  0.00     0.014 A 
HETATM   20  C   UNL     1     -42.208  57.901 -59.747  1.00  0.00     0.001 A 
HETATM   21  C   UNL     1     -43.497  58.089 -60.238  1.00  0.00     0.002 A 
ENDBRANCH   1  11
BRANCH   2  22
HETATM   22  C   UNL     1     -42.281  54.670 -54.943  1.00  0.00     0.229 C 
BRANCH  22  23
HETATM   23  C   UNL     1     -40.985  53.871 -54.782  1.00  0.00     0.235 C 
HETATM   24  N   UNL     1     -40.987  52.967 -53.741  1.00  0.00    -0.355 N 
HETATM   25  H   UNL     1     -41.895  52.787 -53.323  1.00  0.00     0.162 HD
HETATM   26  O   UNL     1     -40.081  53.956 -55.609  1.00  0.00    -0.272 OA
BRANCH  24  27
HETATM   27  C   UNL     1     -39.955  51.956 -53.523  1.00  0.00     0.084 C 
HETATM   28  C   UNL     1     -39.441  51.938 -52.072  1.00  0.00     0.025 C 
HETATM   29  C   UNL     1     -39.875  50.699 -51.293  1.00  0.00     0.002 C 
HETATM   30  C   UNL     1     -39.474  49.397 -51.984  1.00  0.00     0.000 C 
HETATM   31  C   UNL     1     -39.417  49.494 -53.509  1.00  0.00     0.002 C 
HETATM   32  C   UNL     1     -40.351  50.568 -54.052  1.00  0.00     0.025 C 
ENDBRANCH  24  27
ENDBRANCH  22  23
ENDBRANCH   2  22
TORSDOF 4
ENDMDL
MODEL 4
REMARK VINA RESULT:      -8.0      2.178      3.329
REMARK  4 active torsions:
REMARK  status: ('A' for Active; 'I' for Inactive)
REMARK    1  A    between atoms: C_7  and  C_8 
REMARK    2  A    between atoms: N_9  and  C_10 
REMARK    3  A    between atoms: C_10  and  C_11 
REMARK       I    between atoms: C_11  and  N_12 
REMARK    4  A    between atoms: N_12  and  C_13 
ROOT
HETATM    1  C   UNL     1     -41.254  55.599 -53.875  1.00  0.00     0.158 A 
HETATM    2  N   UNL     1     -42.422  55.540 -54.739  1.00  0.00    -0.326 N 
HETATM    3  C   UNL     1     -42.673  54.265 -55.199  1.00  0.00     0.255 A 
HETATM    4  O   UNL     1     -43.484  53.922 -56.036  1.00  0.00    -0.267 OA
HETATM    5  C   UNL     1     -41.721  53.372 -54.527  1.00  0.00     0.040 A 
HETATM    6  C   UNL     1     -40.880  54.152 -53.728  1.00  0.00    -0.015 A 
HETATM    7  C   UNL     1     -41.618  51.996 -54.607  1.00  0.00     0.017 A 
HETATM    8  C   UNL     1     -40.620  51.384 -53.848  1.00  0.00     0.001 A 
HETATM    9  C   UNL     1     -39.756  52.154 -53.046  1.00  0.00     0.001 A 
HETATM   10  C   UNL     1     -39.878  53.546 -52.986  1.00  0.00     0.011 A 
ENDROOT
BRANCH   1  11
HETATM   11  C   UNL     1     -41.575  56.123 -52.508  1.00  0.00     0.004 A 
HETATM   12  C   UNL     1     -42.432  55.602 -51.539  1.00  0.00     0.015 A 
HETATM   13  C   UNL     1     -43.281  54.380 -51.528  1.00  0.00     0.069 C 
HETATM   14  N   UNL     1     -42.404  56.445 -50.456  1.00  0.00    -0.359 N 
HETATM   15  H   UNL     1     -42.935  56.316 -49.606  1.00  0.00     0.166 HD
HETATM   16  C   UNL     1     -41.553  57.499 -50.680  1.00  0.00     0.043 A 
HETATM   17  C   UNL     1     -41.018  57.329 -51.954  1.00  0.00     0.001 A 
HETATM   18  C   UNL     1     -41.226  58.580 -49.853  1.00  0.00     0.030 A 
HETATM   19  C   UNL     1     -40.102  58.295 -52.425  1.00  0.00     0.014 A 
HETATM   20  C   UNL     1     -39.761  59.383 -51.611  1.00  0.00     0.001 A 
HETATM   21  C   UNL     1     -40.319  59.521 -50.343  1.00  0.00     0.002 A 
ENDBRANCH   1  11
BRANCH   2  22
HETATM   22  C   UNL     1     -43.129  56.733 -55.182  1.00  0.00     0.229 C 
BRANCH  22  23
HETATM   23  C   UNL     1     -43.097  56.969 -56.694  1.00  0.00     0.235 C 
HETATM   24  N   UNL     1     -44.225  56.551 -57.370  1.00  0.00    -0.355 N 
HETATM   25  H   UNL     1     -45.021  56.318 -56.784  1.00  0.00     0.162 HD
HETATM   26  O   UNL     1     -42.184  57.600 -57.219  1.00  0.00    -0.272 OA
BRANCH  24  27
HETATM   27  C   UNL     1     -44.510  56.858 -58.769  1.00  0.00     0.084 C 
HETATM   28  C   UNL     1     -44.065  55.734 -59.724  1.00  0.00     0.025 C 
HETATM   29  C   UNL     1     -45.232  54.975 -60.348  1.00  0.00     0.002 C 
HETATM   30  C   UNL     1     -46.212  55.895 -61.077  1.00  0.00     0.000 C 
HETATM   31  C   UNL     1     -46.303  57.302 -60.485  1.00  0.00     0.002 C 
HETATM   32  C   UNL     1     -45.956  57.324 -59.001  1.00  0.00     0.025 C 
ENDBRANCH  24  27
ENDBRANCH  22  23
ENDBRANCH   2  22
TORSDOF 4
ENDMDL
MODEL 5
REMARK VINA RESULT:      -7.9      2.388      6.348
REMARK  4 active torsions:
REMARK  status: ('A' for Active; 'I' for Inactive)
REMARK    1  A    between atoms: C_7  and  C_8 
REMARK    2  A    between atoms: N_9  and  C_10 
REMARK    3  A    between atoms: C_10  and  C_11 
REMARK       I    between atoms: C_11  and  N_12 
REMARK    4  A    between atoms: N_12  and  C_13 
ROOT
HETATM    1  C   UNL     1     -44.080  57.243 -53.334  1.00  0.00     0.158 A 
HETATM    2  N   UNL     1     -43.314  56.017 -53.482  1.00  0.00    -0.326 N 
HETATM    3  C   UNL     1     -43.134  55.664 -54.802  1.00  0.00     0.255 A 
HETATM    4  O   UNL     1     -42.661  54.634 -55.240  1.00  0.00    -0.267 OA
HETATM    5  C   UNL     1     -43.683  56.756 -55.615  1.00  0.00     0.040 A 
HETATM    6  C   UNL     1     -44.238  57.706 -54.753  1.00  0.00    -0.015 A 
HETATM    7  C   UNL     1     -43.681  56.899 -56.990  1.00  0.00     0.017 A 
HETATM    8  C   UNL     1     -44.266  58.052 -57.514  1.00  0.00     0.001 A 
HETATM    9  C   UNL     1     -44.840  59.015 -56.662  1.00  0.00     0.001 A 
HETATM   10  C   UNL     1     -44.834  58.845 -55.274  1.00  0.00     0.011 A 
ENDROOT
BRANCH   1  11
HETATM   11  C   UNL     1     -43.327  58.306 -52.593  1.00  0.00     0.004 A 
HETATM   12  C   UNL     1     -41.996  58.701 -52.722  1.00  0.00     0.015 A 
HETATM   13  C   UNL     1     -40.909  58.225 -53.620  1.00  0.00     0.069 C 
HETATM   14  N   UNL     1     -41.765  59.706 -51.816  1.00  0.00    -0.359 N 
HETATM   15  H   UNL     1     -40.882  60.179 -51.686  1.00  0.00     0.166 HD
HETATM   16  C   UNL     1     -42.902  59.988 -51.100  1.00  0.00     0.043 A 
HETATM   17  C   UNL     1     -43.899  59.131 -51.560  1.00  0.00     0.001 A 
HETATM   18  C   UNL     1     -43.115  60.930 -50.086  1.00  0.00     0.030 A 
HETATM   19  C   UNL     1     -45.180  59.225 -50.974  1.00  0.00     0.014 A 
HETATM   20  C   UNL     1     -45.412  60.162 -49.961  1.00  0.00     0.001 A 
HETATM   21  C   UNL     1     -44.391  61.001 -49.524  1.00  0.00     0.002 A 
ENDBRANCH   1  11
BRANCH   2  22
HETATM   22  C   UNL     1     -42.934  55.189 -52.346  1.00  0.00     0.229 C 
BRANCH  22  23
HETATM   23  C   UNL     1     -41.562  54.522 -52.473  1.00  0.00     0.235 C 
HETATM   24  N   UNL     1     -41.595  53.187 -52.820  1.00  0.00    -0.355 N 
HETATM   25  H   UNL     1     -42.496  52.845 -53.142  1.00  0.00     0.162 HD
HETATM   26  O   UNL     1     -40.527  55.179 -52.393  1.00  0.00    -0.272 OA
BRANCH  24  27
HETATM   27  C   UNL     1     -40.423  52.404 -53.201  1.00  0.00     0.084 C 
HETATM   28  C   UNL     1     -39.639  51.883 -51.981  1.00  0.00     0.025 C 
HETATM   29  C   UNL     1     -39.755  50.373 -51.789  1.00  0.00     0.002 C 
HETATM   30  C   UNL     1     -39.335  49.586 -53.030  1.00  0.00     0.000 C 
HETATM   31  C   UNL     1     -39.588  50.320 -54.348  1.00  0.00     0.002 C 
HETATM   32  C   UNL     1     -40.737  51.315 -54.239  1.00  0.00     0.025 C 
ENDBRANCH  24  27
ENDBRANCH  22  23
ENDBRANCH   2  22
TORSDOF 4
ENDMDL
MODEL 6
REMARK VINA RESULT:      -7.8      2.098      6.660
REMARK  4 active torsions:
REMARK  status: ('A' for Active; 'I' for Inactive)
REMARK    1  A    between atoms: C_7  and  C_8 
REMARK    2  A    between atoms: N_9  and  C_10 
REMARK    3  A    between atoms: C_10  and  C_11 
REMARK       I    between atoms: C_11  and  N_12 
REMARK    4  A    between atoms: N_12  and  C_13 
ROOT
HETATM    1  C   UNL     1     -43.936  58.479 -54.029  1.00  0.00     0.158 A 
HETATM    2  N   UNL     1     -43.316  57.310 -54.631  1.00  0.00    -0.326 N 
HETATM    3  C   UNL     1     -42.686  57.601 -55.821  1.00  0.00     0.255 A 
HETATM    4  O   UNL     1     -42.201  56.822 -56.618  1.00  0.00    -0.267 OA
HETATM    5  C   UNL     1     -42.755  59.057 -55.997  1.00  0.00     0.040 A 
HETATM    6  C   UNL     1     -43.487  59.591 -54.932  1.00  0.00    -0.015 A 
HETATM    7  C   UNL     1     -42.211  59.836 -57.000  1.00  0.00     0.017 A 
HETATM    8  C   UNL     1     -42.418  61.214 -56.924  1.00  0.00     0.001 A 
HETATM    9  C   UNL     1     -43.160  61.769 -55.864  1.00  0.00     0.001 A 
HETATM   10  C   UNL     1     -43.705  60.958 -54.863  1.00  0.00     0.011 A 
ENDROOT
BRANCH   1  11
HETATM   11  C   UNL     1     -43.409  58.769 -52.657  1.00  0.00     0.004 A 
HETATM   12  C   UNL     1     -44.105  58.978 -51.468  1.00  0.00     0.015 A 
HETATM   13  C   UNL     1     -45.562  58.972 -51.163  1.00  0.00     0.069 C 
HETATM   14  N   UNL     1     -43.185  59.222 -50.479  1.00  0.00    -0.359 N 
HETATM   15  H   UNL     1     -43.408  59.413 -49.512  1.00  0.00     0.166 HD
HETATM   16  C   UNL     1     -41.907  59.175 -50.979  1.00  0.00     0.043 A 
HETATM   17  C   UNL     1     -42.010  58.893 -52.338  1.00  0.00     0.001 A 
HETATM   18  C   UNL     1     -40.681  59.361 -50.329  1.00  0.00     0.030 A 
HETATM   19  C   UNL     1     -40.818  58.790 -53.089  1.00  0.00     0.014 A 
HETATM   20  C   UNL     1     -39.582  58.972 -52.456  1.00  0.00     0.001 A 
HETATM   21  C   UNL     1     -39.518  59.255 -51.095  1.00  0.00     0.002 A 
ENDBRANCH   1  11
BRANCH   2  22
HETATM   22  C   UNL     1     -43.495  55.967 -54.097  1.00  0.00     0.229 C 
BRANCH  22  23
HETATM   23  C   UNL     1     -42.222  55.326 -53.540  1.00  0.00     0.235 C 
HETATM   24  N   UNL     1     -42.024  55.510 -52.187  1.00  0.00    -0.355 N 
HETATM   25  H   UNL     1     -42.823  55.872 -51.677  1.00  0.00     0.162 HD
HETATM   26  O   UNL     1     -41.518  54.600 -54.239  1.00  0.00    -0.272 OA
BRANCH  24  27
HETATM   27  C   UNL     1     -41.002  54.822 -51.401  1.00  0.00     0.084 C 
HETATM   28  C   UNL     1     -40.603  55.606 -50.136  1.00  0.00     0.025 C 
HETATM   29  C   UNL     1     -41.085  54.951 -48.844  1.00  0.00     0.002 C 
HETATM   30  C   UNL     1     -40.617  53.502 -48.707  1.00  0.00     0.000 C 
HETATM   31  C   UNL     1     -40.443  52.776 -50.041  1.00  0.00     0.002 C 
HETATM   32  C   UNL     1     -41.342  53.348 -51.129  1.00  0.00     0.025 C 
ENDBRANCH  24  27
ENDBRANCH  22  23
ENDBRANCH   2  22
TORSDOF 4
ENDMDL
MODEL 7
REMARK VINA RESULT:      -7.8      2.693      7.330
REMARK  4 active torsions:
REMARK  status: ('A' for Active; 'I' for Inactive)
REMARK    1  A    between atoms: C_7  and  C_8 
REMARK    2  A    between atoms: N_9  and  C_10 
REMARK    3  A    between atoms: C_10  and  C_11 
REMARK       I    between atoms: C_11  and  N_12 
REMARK    4  A    between atoms: N_12  and  C_13 
ROOT
HETATM    1  C   UNL     1     -42.018  58.757 -54.159  1.00  0.00     0.158 A 
HETATM    2  N   UNL     1     -42.676  59.440 -53.057  1.00  0.00    -0.326 N 
HETATM    3  C   UNL     1     -43.141  60.688 -53.413  1.00  0.00     0.255 A 
HETATM    4  O   UNL     1     -43.606  61.545 -52.687  1.00  0.00    -0.267 OA
HETATM    5  C   UNL     1     -42.916  60.833 -54.856  1.00  0.00     0.040 A 
HETATM    6  C   UNL     1     -42.259  59.686 -55.313  1.00  0.00    -0.015 A 
HETATM    7  C   UNL     1     -43.271  61.878 -55.688  1.00  0.00     0.017 A 
HETATM    8  C   UNL     1     -42.945  61.758 -57.040  1.00  0.00     0.001 A 
HETATM    9  C   UNL     1     -42.275  60.615 -57.517  1.00  0.00     0.001 A 
HETATM   10  C   UNL     1     -41.922  59.573 -56.653  1.00  0.00     0.011 A 
ENDROOT
BRANCH   1  11
HETATM   11  C   UNL     1     -42.664  57.446 -54.491  1.00  0.00     0.004 A 
HETATM   12  C   UNL     1     -44.010  57.153 -54.707  1.00  0.00     0.015 A 
HETATM   13  C   UNL     1     -45.222  58.015 -54.694  1.00  0.00     0.069 C 
HETATM   14  N   UNL     1     -44.110  55.808 -54.967  1.00  0.00    -0.359 N 
HETATM   15  H   UNL     1     -44.972  55.317 -55.156  1.00  0.00     0.166 HD
HETATM   16  C   UNL     1     -42.874  55.212 -54.934  1.00  0.00     0.043 A 
HETATM   17  C   UNL     1     -41.947  56.207 -54.640  1.00  0.00     0.001 A 
HETATM   18  C   UNL     1     -42.518  53.873 -55.141  1.00  0.00     0.030 A 
HETATM   19  C   UNL     1     -40.585  55.842 -54.549  1.00  0.00     0.014 A 
HETATM   20  C   UNL     1     -40.209  54.509 -54.755  1.00  0.00     0.001 A 
HETATM   21  C   UNL     1     -41.165  53.540 -55.045  1.00  0.00     0.002 A 
ENDBRANCH   1  11
BRANCH   2  22
HETATM   22  C   UNL     1     -42.683  58.911 -51.700  1.00  0.00     0.229 C 
BRANCH  22  23
HETATM   23  C   UNL     1     -41.534  57.949 -51.385  1.00  0.00     0.235 C 
HETATM   24  N   UNL     1     -41.923  56.657 -51.098  1.00  0.00    -0.355 N 
HETATM   25  H   UNL     1     -42.890  56.435 -51.315  1.00  0.00     0.162 HD
HETATM   26  O   UNL     1     -40.363  58.295 -51.513  1.00  0.00    -0.272 OA
BRANCH  24  27
HETATM   27  C   UNL     1     -41.006  55.527 -50.975  1.00  0.00     0.084 C 
HETATM   28  C   UNL     1     -40.326  55.465 -49.594  1.00  0.00     0.025 C 
HETATM   29  C   UNL     1     -40.812  54.303 -48.733  1.00  0.00     0.002 C 
HETATM   30  C   UNL     1     -40.661  52.950 -49.428  1.00  0.00     0.000 C 
HETATM   31  C   UNL     1     -40.778  53.017 -50.952  1.00  0.00     0.002 C 
HETATM   32  C   UNL     1     -41.631  54.192 -51.412  1.00  0.00     0.025 C 
ENDBRANCH  24  27
ENDBRANCH  22  23
ENDBRANCH   2  22
TORSDOF 4
ENDMDL
MODEL 8
REMARK VINA RESULT:      -7.7      2.386      6.813
REMARK  4 active torsions:
REMARK  status: ('A' for Active; 'I' for Inactive)
REMARK    1  A    between atoms: C_7  and  C_8 
REMARK    2  A    between atoms: N_9  and  C_10 
REMARK    3  A    between atoms: C_10  and  C_11 
REMARK       I    between atoms: C_11  and  N_12 
REMARK    4  A    between atoms: N_12  and  C_13 
ROOT
HETATM    1  C   UNL     1     -42.131  59.569 -55.236  1.00  0.00     0.158 A 
HETATM    2  N   UNL     1     -41.691  59.272 -53.883  1.00  0.00    -0.326 N 
HETATM    3  C   UNL     1     -42.208  60.150 -52.955  1.00  0.00     0.255 A 
HETATM    4  O   UNL     1     -41.921  60.245 -51.778  1.00  0.00    -0.267 OA
HETATM    5  C   UNL     1     -43.153  61.018 -53.669  1.00  0.00     0.040 A 
HETATM    6  C   UNL     1     -43.124  60.674 -55.023  1.00  0.00    -0.015 A 
HETATM    7  C   UNL     1     -43.970  62.011 -53.162  1.00  0.00     0.017 A 
HETATM    8  C   UNL     1     -44.791  62.686 -54.065  1.00  0.00     0.001 A 
HETATM    9  C   UNL     1     -44.769  62.362 -55.435  1.00  0.00     0.001 A 
HETATM   10  C   UNL     1     -43.929  61.355 -55.924  1.00  0.00     0.011 A 
ENDROOT
BRANCH   1  11
HETATM   11  C   UNL     1     -42.860  58.422 -55.869  1.00  0.00     0.004 A 
HETATM   12  C   UNL     1     -43.840  57.591 -55.329  1.00  0.00     0.015 A 
HETATM   13  C   UNL     1     -44.486  57.568 -53.989  1.00  0.00     0.069 C 
HETATM   14  N   UNL     1     -44.193  56.678 -56.292  1.00  0.00    -0.359 N 
HETATM   15  H   UNL     1     -44.881  55.948 -56.174  1.00  0.00     0.166 HD
HETATM   16  C   UNL     1     -43.480  56.886 -57.446  1.00  0.00     0.043 A 
HETATM   17  C   UNL     1     -42.637  57.969 -57.218  1.00  0.00     0.001 A 
HETATM   18  C   UNL     1     -43.522  56.195 -58.664  1.00  0.00     0.030 A 
HETATM   19  C   UNL     1     -41.789  58.386 -58.267  1.00  0.00     0.014 A 
HETATM   20  C   UNL     1     -41.818  57.710 -59.493  1.00  0.00     0.001 A 
HETATM   21  C   UNL     1     -42.673  56.628 -59.685  1.00  0.00     0.002 A 
ENDBRANCH   1  11
BRANCH   2  22
HETATM   22  C   UNL     1     -40.687  58.258 -53.591  1.00  0.00     0.229 C 
BRANCH  22  23
HETATM   23  C   UNL     1     -41.240  56.973 -52.968  1.00  0.00     0.235 C 
HETATM   24  N   UNL     1     -41.024  55.829 -53.708  1.00  0.00    -0.355 N 
HETATM   25  H   UNL     1     -40.363  55.926 -54.474  1.00  0.00     0.162 HD
HETATM   26  O   UNL     1     -41.719  56.972 -51.837  1.00  0.00    -0.272 OA
BRANCH  24  27
HETATM   27  C   UNL     1     -41.271  54.474 -53.224  1.00  0.00     0.084 C 
HETATM   28  C   UNL     1     -41.348  53.443 -54.366  1.00  0.00     0.025 C 
HETATM   29  C   UNL     1     -40.154  52.493 -54.404  1.00  0.00     0.002 C 
HETATM   30  C   UNL     1     -39.940  51.761 -53.080  1.00  0.00     0.000 C 
HETATM   31  C   UNL     1     -40.386  52.555 -51.851  1.00  0.00     0.002 C 
HETATM   32  C   UNL     1     -40.326  54.059 -52.086  1.00  0.00     0.025 C 
ENDBRANCH  24  27
ENDBRANCH  22  23
ENDBRANCH   2  22
TORSDOF 4
ENDMDL
MODEL 9
REMARK VINA RESULT:      -7.7     15.494     18.018
REMARK  4 active torsions:
REMARK  status: ('A' for Active; 'I' for Inactive)
REMARK    1  A    between atoms: C_7  and  C_8 
REMARK    2  A    between atoms: N_9  and  C_10 
REMARK    3  A    between atoms: C_10  and  C_11 
REMARK       I    between atoms: C_11  and  N_12 
REMARK    4  A    between atoms: N_12  and  C_13 
ROOT
HETATM    1  C   UNL     1     -35.127  39.885 -54.572  1.00  0.00     0.158 A 
HETATM    2  N   UNL     1     -35.267  41.331 -54.505  1.00  0.00    -0.326 N 
HETATM    3  C   UNL     1     -35.453  41.783 -53.217  1.00  0.00     0.255 A 
HETATM    4  O   UNL     1     -35.734  42.909 -52.856  1.00  0.00    -0.267 OA
HETATM    5  C   UNL     1     -35.308  40.621 -52.331  1.00  0.00     0.040 A 
HETATM    6  C   UNL     1     -35.103  39.489 -53.124  1.00  0.00    -0.015 A 
HETATM    7  C   UNL     1     -35.343  40.575 -50.950  1.00  0.00     0.017 A 
HETATM    8  C   UNL     1     -35.165  39.330 -50.347  1.00  0.00     0.001 A 
HETATM    9  C   UNL     1     -34.967  38.176 -51.130  1.00  0.00     0.001 A 
HETATM   10  C   UNL     1     -34.940  38.249 -52.527  1.00  0.00     0.011 A 
ENDROOT
BRANCH   1  11
HETATM   11  C   UNL     1     -33.825  39.460 -55.179  1.00  0.00     0.004 A 
HETATM   12  C   UNL     1     -32.528  39.633 -54.700  1.00  0.00     0.015 A 
HETATM   13  C   UNL     1     -32.011  40.267 -53.457  1.00  0.00     0.069 C 
HETATM   14  N   UNL     1     -31.664  39.085 -55.616  1.00  0.00    -0.359 N 
HETATM   15  H   UNL     1     -30.658  39.072 -55.530  1.00  0.00     0.166 HD
HETATM   16  C   UNL     1     -32.353  38.553 -56.678  1.00  0.00     0.043 A 
HETATM   17  C   UNL     1     -33.707  38.770 -56.437  1.00  0.00     0.001 A 
HETATM   18  C   UNL     1     -31.876  37.904 -57.823  1.00  0.00     0.030 A 
HETATM   19  C   UNL     1     -34.635  38.309 -57.397  1.00  0.00     0.014 A 
HETATM   20  C   UNL     1     -34.177  37.656 -58.548  1.00  0.00     0.001 A 
HETATM   21  C   UNL     1     -32.815  37.459 -58.756  1.00  0.00     0.002 A 
ENDBRANCH   1  11
BRANCH   2  22
HETATM   22  C   UNL     1     -35.360  42.164 -55.696  1.00  0.00     0.229 C 
BRANCH  22  23
HETATM   23  C   UNL     1     -36.635  41.960 -56.519  1.00  0.00     0.235 C 
HETATM   24  N   UNL     1     -36.449  41.316 -57.725  1.00  0.00    -0.355 N 
HETATM   25  H   UNL     1     -35.541  40.879 -57.849  1.00  0.00     0.162 HD
HETATM   26  O   UNL     1     -37.738  42.240 -56.060  1.00  0.00    -0.272 OA
BRANCH  24  27
HETATM   27  C   UNL     1     -37.532  40.829 -58.576  1.00  0.00     0.084 C 
HETATM   28  C   UNL     1     -37.214  40.970 -60.076  1.00  0.00     0.025 C 
HETATM   29  C   UNL     1     -36.967  39.632 -60.769  1.00  0.00     0.002 C 
HETATM   30  C   UNL     1     -38.126  38.652 -60.591  1.00  0.00     0.000 C 
HETATM   31  C   UNL     1     -38.892  38.827 -59.279  1.00  0.00     0.002 C 
HETATM   32  C   UNL     1     -38.023  39.427 -58.181  1.00  0.00     0.025 C 
ENDBRANCH  24  27
ENDBRANCH  22  23
ENDBRANCH   2  22
TORSDOF 4
ENDMDL
MODEL 10
REMARK VINA RESULT:      -7.6      2.616      6.152
REMARK  4 active torsions:
REMARK  status: ('A' for Active; 'I' for Inactive)
REMARK    1  A    between atoms: C_7  and  C_8 
REMARK    2  A    between atoms: N_9  and  C_10 
REMARK    3  A    between atoms: C_10  and  C_11 
REMARK       I    between atoms: C_11  and  N_12 
REMARK    4  A    between atoms: N_12  and  C_13 
ROOT
HETATM    1  C   UNL     1     -43.438  58.237 -52.725  1.00  0.00     0.158 A 
HETATM    2  N   UNL     1     -42.824  59.194 -53.631  1.00  0.00    -0.326 N 
HETATM    3  C   UNL     1     -43.517  60.384 -53.690  1.00  0.00     0.255 A 
HETATM    4  O   UNL     1     -43.335  61.316 -54.449  1.00  0.00    -0.267 OA
HETATM    5  C   UNL     1     -44.586  60.306 -52.686  1.00  0.00     0.040 A 
HETATM    6  C   UNL     1     -44.542  59.039 -52.098  1.00  0.00    -0.015 A 
HETATM    7  C   UNL     1     -45.504  61.273 -52.321  1.00  0.00     0.017 A 
HETATM    8  C   UNL     1     -46.416  60.942 -51.319  1.00  0.00     0.001 A 
HETATM    9  C   UNL     1     -46.394  59.667 -50.722  1.00  0.00     0.001 A 
HETATM   10  C   UNL     1     -45.458  58.704 -51.113  1.00  0.00     0.011 A 
ENDROOT
BRANCH   1  11
HETATM   11  C   UNL     1     -42.512  57.807 -51.628  1.00  0.00     0.004 A 
HETATM   12  C   UNL     1     -41.692  58.582 -50.809  1.00  0.00     0.015 A 
HETATM   13  C   UNL     1     -41.472  60.051 -50.739  1.00  0.00     0.069 C 
HETATM   14  N   UNL     1     -41.020  57.733 -49.964  1.00  0.00    -0.359 N 
HETATM   15  H   UNL     1     -40.351  58.021 -49.264  1.00  0.00     0.166 HD
HETATM   16  C   UNL     1     -41.377  56.428 -50.198  1.00  0.00     0.043 A 
HETATM   17  C   UNL     1     -42.309  56.438 -51.232  1.00  0.00     0.001 A 
HETATM   18  C   UNL     1     -40.942  55.253 -49.573  1.00  0.00     0.030 A 
HETATM   19  C   UNL     1     -42.837  55.201 -51.664  1.00  0.00     0.014 A 
HETATM   20  C   UNL     1     -42.416  54.015 -51.050  1.00  0.00     0.001 A 
HETATM   21  C   UNL     1     -41.480  54.044 -50.020  1.00  0.00     0.002 A 
ENDBRANCH   1  11
BRANCH   2  22
HETATM   22  C   UNL     1     -41.700  58.848 -54.490  1.00  0.00     0.229 C 
BRANCH  22  23
HETATM   23  C   UNL     1     -41.878  57.550 -55.283  1.00  0.00     0.235 C 
HETATM   24  N   UNL     1     -41.123  56.488 -54.832  1.00  0.00    -0.355 N 
HETATM   25  H   UNL     1     -40.689  56.617 -53.924  1.00  0.00     0.162 HD
HETATM   26  O   UNL     1     -42.730  57.457 -56.163  1.00  0.00    -0.272 OA
BRANCH  24  27
HETATM   27  C   UNL     1     -41.280  55.110 -55.292  1.00  0.00     0.084 C 
HETATM   28  C   UNL     1     -40.010  54.266 -55.074  1.00  0.00     0.025 C 
HETATM   29  C   UNL     1     -40.167  53.212 -53.981  1.00  0.00     0.002 C 
HETATM   30  C   UNL     1     -41.354  52.281 -54.224  1.00  0.00     0.000 C 
HETATM   31  C   UNL     1     -42.513  52.934 -54.979  1.00  0.00     0.002 C 
HETATM   32  C   UNL     1     -42.560  54.442 -54.766  1.00  0.00     0.025 C 
ENDBRANCH  24  27
ENDBRANCH  22  23
ENDBRANCH   2  22
TORSDOF 4
ENDMDL
