MODEL 1
REMARK VINA RESULT:      -8.3      0.000      0.000
REMARK  3 active torsions:
REMARK  status: ('A' for Active; 'I' for Inactive)
REMARK    1  A    between atoms: C_2  and  O_3 
REMARK    2  A    between atoms: O_3  and  C_4 
REMARK    3  A    between atoms: C_10  and  N_11 
REMARK       I    between atoms: N_11  and  C_12 
REMARK       I    between atoms: C_12  and  N_13 
ROOT
HETATM    1  N   UNL     1     -43.444  57.873 -51.685  1.00  0.00    -0.306 N 
HETATM    2  C   UNL     1     -43.673  57.161 -52.838  1.00  0.00     0.323 C 
HETATM    3  N   UNL     1     -43.050  55.911 -52.912  1.00  0.00    -0.328 N 
HETATM    4  C   UNL     1     -42.405  55.252 -51.762  1.00  0.00     0.185 C 
HETATM    5  C   UNL     1     -41.670  54.036 -52.203  1.00  0.00     0.035 A 
HETATM    6  C   UNL     1     -41.618  53.512 -53.476  1.00  0.00    -0.020 A 
HETATM    7  C   UNL     1     -42.334  54.167 -54.597  1.00  0.00     0.061 C 
HETATM    8  C   UNL     1     -43.470  55.040 -54.037  1.00  0.00     0.132 C 
HETATM    9  N   UNL     1     -40.923  53.229 -51.386  1.00  0.00    -0.357 N 
HETATM   10  H   UNL     1     -40.778  53.359 -50.395  1.00  0.00     0.166 HD
HETATM   11  C   UNL     1     -40.386  52.190 -52.118  1.00  0.00     0.043 A 
HETATM   12  C   UNL     1     -40.810  52.346 -53.440  1.00  0.00    -0.001 A 
HETATM   13  C   UNL     1     -39.562  51.132 -51.712  1.00  0.00     0.030 A 
HETATM   14  C   UNL     1     -39.164  50.210 -52.686  1.00  0.00     0.002 A 
HETATM   15  C   UNL     1     -39.572  50.341 -54.012  1.00  0.00     0.001 A 
HETATM   16  C   UNL     1     -40.395  51.404 -54.402  1.00  0.00     0.014 A 
HETATM   17  O   UNL     1     -44.385  57.566 -53.757  1.00  0.00    -0.247 OA
HETATM   18  H   UNL     1     -42.742  57.547 -51.041  1.00  0.00     0.171 HD
ENDROOT
BRANCH   1  19
HETATM   19  C   UNL     1     -44.040  59.093 -51.276  1.00  0.00     0.071 A 
HETATM   20  C   UNL     1     -43.184  60.200 -51.099  1.00  0.00     0.117 A 
HETATM   21  C   UNL     1     -43.693  61.413 -50.608  1.00  0.00     0.069 A 
HETATM   22 CL   UNL     1     -42.683  62.762 -50.231  1.00  0.00    -0.081 Cl
HETATM   23  C   UNL     1     -45.061  61.547 -50.364  1.00  0.00     0.027 A 
HETATM   24  C   UNL     1     -45.916  60.469 -50.581  1.00  0.00     0.004 A 
HETATM   25  C   UNL     1     -45.406  59.245 -51.024  1.00  0.00     0.032 A 
BRANCH  20  26
HETATM   26  O   UNL     1     -41.845  59.993 -51.361  1.00  0.00    -0.347 OA
BRANCH  26  27
HETATM   27  C   UNL     1     -41.093  59.717 -50.171  1.00  0.00     0.171 C 
HETATM   28  C   UNL     1     -39.626  59.623 -50.550  1.00  0.00     0.034 C 
ENDBRANCH  26  27
ENDBRANCH  20  26
ENDBRANCH   1  19
TORSDOF 3
ENDMDL
MODEL 2
REMARK VINA RESULT:      -8.1      4.429      6.281
REMARK  3 active torsions:
REMARK  status: ('A' for Active; 'I' for Inactive)
REMARK    1  A    between atoms: C_2  and  O_3 
REMARK    2  A    between atoms: O_3  and  C_4 
REMARK    3  A    between atoms: C_10  and  N_11 
REMARK       I    between atoms: N_11  and  C_12 
REMARK       I    between atoms: C_12  and  N_13 
ROOT
HETATM    1  N   UNL     1     -42.172  56.867 -56.748  1.00  0.00    -0.306 N 
HETATM    2  C   UNL     1     -41.995  57.094 -55.404  1.00  0.00     0.323 C 
HETATM    3  N   UNL     1     -41.482  56.019 -54.671  1.00  0.00    -0.328 N 
HETATM    4  C   UNL     1     -40.913  54.808 -55.289  1.00  0.00     0.185 C 
HETATM    5  C   UNL     1     -40.637  53.775 -54.254  1.00  0.00     0.035 A 
HETATM    6  C   UNL     1     -40.803  53.898 -52.891  1.00  0.00    -0.020 A 
HETATM    7  C   UNL     1     -41.317  55.157 -52.300  1.00  0.00     0.061 C 
HETATM    8  C   UNL     1     -41.073  56.319 -53.277  1.00  0.00     0.132 C 
HETATM    9  N   UNL     1     -40.154  52.518 -54.505  1.00  0.00    -0.357 N 
HETATM   10  H   UNL     1     -39.930  52.140 -55.415  1.00  0.00     0.166 HD
HETATM   11  C   UNL     1     -40.008  51.826 -53.321  1.00  0.00     0.043 A 
HETATM   12  C   UNL     1     -40.412  52.676 -52.287  1.00  0.00    -0.001 A 
HETATM   13  C   UNL     1     -39.555  50.522 -53.089  1.00  0.00     0.030 A 
HETATM   14  C   UNL     1     -39.512  50.076 -51.763  1.00  0.00     0.002 A 
HETATM   15  C   UNL     1     -39.908  50.902 -50.713  1.00  0.00     0.001 A 
HETATM   16  C   UNL     1     -40.360  52.203 -50.961  1.00  0.00     0.014 A 
HETATM   17  O   UNL     1     -42.251  58.166 -54.856  1.00  0.00    -0.247 OA
HETATM   18  H   UNL     1     -42.078  55.929 -57.102  1.00  0.00     0.171 HD
ENDROOT
BRANCH   1  19
HETATM   19  C   UNL     1     -42.543  57.798 -57.751  1.00  0.00     0.071 A 
HETATM   20  C   UNL     1     -43.638  57.456 -58.573  1.00  0.00     0.117 A 
HETATM   21  C   UNL     1     -44.002  58.288 -59.643  1.00  0.00     0.069 A 
HETATM   22 CL   UNL     1     -45.236  57.863 -60.775  1.00  0.00    -0.081 Cl
HETATM   23  C   UNL     1     -43.326  59.491 -59.852  1.00  0.00     0.027 A 
HETATM   24  C   UNL     1     -42.273  59.854 -59.015  1.00  0.00     0.004 A 
HETATM   25  C   UNL     1     -41.877  59.005 -57.977  1.00  0.00     0.032 A 
BRANCH  20  26
HETATM   26  O   UNL     1     -44.257  56.252 -58.305  1.00  0.00    -0.347 OA
BRANCH  26  27
HETATM   27  C   UNL     1     -43.665  55.163 -59.026  1.00  0.00     0.171 C 
HETATM   28  C   UNL     1     -44.739  54.530 -59.893  1.00  0.00     0.034 C 
ENDBRANCH  26  27
ENDBRANCH  20  26
ENDBRANCH   1  19
TORSDOF 3
ENDMDL
MODEL 3
REMARK VINA RESULT:      -8.1      4.536      7.670
REMARK  3 active torsions:
REMARK  status: ('A' for Active; 'I' for Inactive)
REMARK    1  A    between atoms: C_2  and  O_3 
REMARK    2  A    between atoms: O_3  and  C_4 
REMARK    3  A    between atoms: C_10  and  N_11 
REMARK       I    between atoms: N_11  and  C_12 
REMARK       I    between atoms: C_12  and  N_13 
ROOT
HETATM    1  N   UNL     1     -41.645  55.500 -52.628  1.00  0.00    -0.306 N 
HETATM    2  C   UNL     1     -42.898  56.025 -52.838  1.00  0.00     0.323 C 
HETATM    3  N   UNL     1     -43.159  56.465 -54.140  1.00  0.00    -0.328 N 
HETATM    4  C   UNL     1     -42.288  56.168 -55.291  1.00  0.00     0.185 C 
HETATM    5  C   UNL     1     -42.729  56.933 -56.490  1.00  0.00     0.035 A 
HETATM    6  C   UNL     1     -43.825  57.762 -56.590  1.00  0.00    -0.020 A 
HETATM    7  C   UNL     1     -44.717  57.985 -55.426  1.00  0.00     0.061 C 
HETATM    8  C   UNL     1     -44.569  56.817 -54.436  1.00  0.00     0.132 C 
HETATM    9  N   UNL     1     -42.101  56.920 -57.707  1.00  0.00    -0.357 N 
HETATM   10  H   UNL     1     -41.269  56.397 -57.939  1.00  0.00     0.166 HD
HETATM   11  C   UNL     1     -42.778  57.733 -58.592  1.00  0.00     0.043 A 
HETATM   12  C   UNL     1     -43.870  58.277 -57.910  1.00  0.00    -0.001 A 
HETATM   13  C   UNL     1     -42.506  58.028 -59.934  1.00  0.00     0.030 A 
HETATM   14  C   UNL     1     -43.376  58.900 -60.596  1.00  0.00     0.002 A 
HETATM   15  C   UNL     1     -44.473  59.457 -59.941  1.00  0.00     0.001 A 
HETATM   16  C   UNL     1     -44.731  59.153 -58.599  1.00  0.00     0.014 A 
HETATM   17  O   UNL     1     -43.757  56.105 -51.961  1.00  0.00    -0.247 OA
HETATM   18  H   UNL     1     -40.948  55.595 -53.349  1.00  0.00     0.171 HD
ENDROOT
BRANCH   1  19
HETATM   19  C   UNL     1     -41.148  54.862 -51.464  1.00  0.00     0.071 A 
HETATM   20  C   UNL     1     -40.900  53.475 -51.547  1.00  0.00     0.117 A 
HETATM   21  C   UNL     1     -40.494  52.763 -50.407  1.00  0.00     0.069 A 
HETATM   22 CL   UNL     1     -40.311  51.045 -50.398  1.00  0.00    -0.081 Cl
HETATM   23  C   UNL     1     -40.265  53.439 -49.207  1.00  0.00     0.027 A 
HETATM   24  C   UNL     1     -40.466  54.816 -49.134  1.00  0.00     0.004 A 
HETATM   25  C   UNL     1     -40.916  55.520 -50.254  1.00  0.00     0.032 A 
BRANCH  20  26
HETATM   26  O   UNL     1     -41.146  52.876 -52.765  1.00  0.00    -0.347 OA
BRANCH  26  27
HETATM   27  C   UNL     1     -39.937  52.523 -53.453  1.00  0.00     0.171 C 
HETATM   28  C   UNL     1     -40.171  51.209 -54.175  1.00  0.00     0.034 C 
ENDBRANCH  26  27
ENDBRANCH  20  26
ENDBRANCH   1  19
TORSDOF 3
ENDMDL
MODEL 4
REMARK VINA RESULT:      -7.9      3.223      8.442
REMARK  3 active torsions:
REMARK  status: ('A' for Active; 'I' for Inactive)
REMARK    1  A    between atoms: C_2  and  O_3 
REMARK    2  A    between atoms: O_3  and  C_4 
REMARK    3  A    between atoms: C_10  and  N_11 
REMARK       I    between atoms: N_11  and  C_12 
REMARK       I    between atoms: C_12  and  N_13 
ROOT
HETATM    1  N   UNL     1     -41.453  55.022 -52.539  1.00  0.00    -0.306 N 
HETATM    2  C   UNL     1     -42.747  55.428 -52.766  1.00  0.00     0.323 C 
HETATM    3  N   UNL     1     -43.034  56.753 -52.425  1.00  0.00    -0.328 N 
HETATM    4  C   UNL     1     -42.002  57.752 -52.093  1.00  0.00     0.185 C 
HETATM    5  C   UNL     1     -42.631  59.003 -51.588  1.00  0.00     0.035 A 
HETATM    6  C   UNL     1     -43.978  59.274 -51.487  1.00  0.00    -0.020 A 
HETATM    7  C   UNL     1     -44.988  58.267 -51.892  1.00  0.00     0.061 C 
HETATM    8  C   UNL     1     -44.350  57.270 -52.873  1.00  0.00     0.132 C 
HETATM    9  N   UNL     1     -41.946  60.104 -51.146  1.00  0.00    -0.357 N 
HETATM   10  H   UNL     1     -40.942  60.202 -51.107  1.00  0.00     0.166 HD
HETATM   11  C   UNL     1     -42.837  61.084 -50.758  1.00  0.00     0.043 A 
HETATM   12  C   UNL     1     -44.125  60.584 -50.962  1.00  0.00    -0.001 A 
HETATM   13  C   UNL     1     -42.599  62.365 -50.243  1.00  0.00     0.030 A 
HETATM   14  C   UNL     1     -43.711  63.155 -49.931  1.00  0.00     0.002 A 
HETATM   15  C   UNL     1     -45.007  62.682 -50.125  1.00  0.00     0.001 A 
HETATM   16  C   UNL     1     -45.228  61.399 -50.640  1.00  0.00     0.014 A 
HETATM   17  O   UNL     1     -43.614  54.699 -53.247  1.00  0.00    -0.247 OA
HETATM   18  H   UNL     1     -40.838  55.622 -52.014  1.00  0.00     0.171 HD
ENDROOT
BRANCH   1  19
HETATM   19  C   UNL     1     -40.844  53.795 -52.905  1.00  0.00     0.071 A 
HETATM   20  C   UNL     1     -40.603  52.864 -51.872  1.00  0.00     0.117 A 
HETATM   21  C   UNL     1     -39.922  51.668 -52.148  1.00  0.00     0.069 A 
HETATM   22 CL   UNL     1     -39.465  50.550 -50.913  1.00  0.00    -0.081 Cl
HETATM   23  C   UNL     1     -39.546  51.365 -53.457  1.00  0.00     0.027 A 
HETATM   24  C   UNL     1     -39.822  52.262 -54.487  1.00  0.00     0.004 A 
HETATM   25  C   UNL     1     -40.458  53.476 -54.209  1.00  0.00     0.032 A 
BRANCH  20  26
HETATM   26  O   UNL     1     -41.004  53.231 -50.604  1.00  0.00    -0.347 OA
BRANCH  26  27
HETATM   27  C   UNL     1     -39.958  53.883 -49.870  1.00  0.00     0.171 C 
HETATM   28  C   UNL     1     -40.371  53.941 -48.410  1.00  0.00     0.034 C 
ENDBRANCH  26  27
ENDBRANCH  20  26
ENDBRANCH   1  19
TORSDOF 3
ENDMDL
MODEL 5
REMARK VINA RESULT:      -7.7      4.537      6.238
REMARK  3 active torsions:
REMARK  status: ('A' for Active; 'I' for Inactive)
REMARK    1  A    between atoms: C_2  and  O_3 
REMARK    2  A    between atoms: O_3  and  C_4 
REMARK    3  A    between atoms: C_10  and  N_11 
REMARK       I    between atoms: N_11  and  C_12 
REMARK       I    between atoms: C_12  and  N_13 
ROOT
HETATM    1  N   UNL     1     -42.659  57.297 -57.151  1.00  0.00    -0.306 N 
HETATM    2  C   UNL     1     -42.775  55.948 -56.912  1.00  0.00     0.323 C 
HETATM    3  N   UNL     1     -42.493  55.538 -55.606  1.00  0.00    -0.328 N 
HETATM    4  C   UNL     1     -42.336  56.470 -54.474  1.00  0.00     0.185 C 
HETATM    5  C   UNL     1     -41.850  55.746 -53.267  1.00  0.00     0.035 A 
HETATM    6  C   UNL     1     -41.627  54.393 -53.143  1.00  0.00    -0.020 A 
HETATM    7  C   UNL     1     -41.858  53.477 -54.286  1.00  0.00     0.061 C 
HETATM    8  C   UNL     1     -42.834  54.132 -55.277  1.00  0.00     0.132 C 
HETATM    9  N   UNL     1     -41.555  56.332 -52.065  1.00  0.00    -0.357 N 
HETATM   10  H   UNL     1     -41.627  57.317 -51.851  1.00  0.00     0.166 HD
HETATM   11  C   UNL     1     -41.140  55.372 -51.165  1.00  0.00     0.043 A 
HETATM   12  C   UNL     1     -41.176  54.139 -51.822  1.00  0.00    -0.001 A 
HETATM   13  C   UNL     1     -40.736  55.502 -49.830  1.00  0.00     0.030 A 
HETATM   14  C   UNL     1     -40.363  54.338 -49.149  1.00  0.00     0.002 A 
HETATM   15  C   UNL     1     -40.389  53.096 -49.780  1.00  0.00     0.001 A 
HETATM   16  C   UNL     1     -40.794  52.983 -51.115  1.00  0.00     0.014 A 
HETATM   17  O   UNL     1     -43.115  55.133 -57.769  1.00  0.00    -0.247 OA
HETATM   18  H   UNL     1     -42.241  57.883 -56.447  1.00  0.00     0.171 HD
ENDROOT
BRANCH   1  19
HETATM   19  C   UNL     1     -43.006  58.011 -58.325  1.00  0.00     0.071 A 
HETATM   20  C   UNL     1     -44.355  58.400 -58.466  1.00  0.00     0.117 A 
HETATM   21  C   UNL     1     -44.786  59.030 -59.645  1.00  0.00     0.069 A 
HETATM   22 CL   UNL     1     -46.445  59.404 -59.947  1.00  0.00    -0.081 Cl
HETATM   23  C   UNL     1     -43.866  59.336 -60.649  1.00  0.00     0.027 A 
HETATM   24  C   UNL     1     -42.525  58.994 -60.493  1.00  0.00     0.004 A 
HETATM   25  C   UNL     1     -42.100  58.324 -59.342  1.00  0.00     0.032 A 
BRANCH  20  26
HETATM   26  O   UNL     1     -45.205  58.065 -57.433  1.00  0.00    -0.347 OA
BRANCH  26  27
HETATM   27  C   UNL     1     -45.522  59.190 -56.602  1.00  0.00     0.171 C 
HETATM   28  C   UNL     1     -45.231  58.811 -55.161  1.00  0.00     0.034 C 
ENDBRANCH  26  27
ENDBRANCH  20  26
ENDBRANCH   1  19
TORSDOF 3
ENDMDL
MODEL 6
REMARK VINA RESULT:      -7.7      1.612      2.317
REMARK  3 active torsions:
REMARK  status: ('A' for Active; 'I' for Inactive)
REMARK    1  A    between atoms: C_2  and  O_3 
REMARK    2  A    between atoms: O_3  and  C_4 
REMARK    3  A    between atoms: C_10  and  N_11 
REMARK       I    between atoms: N_11  and  C_12 
REMARK       I    between atoms: C_12  and  N_13 
ROOT
HETATM    1  N   UNL     1     -42.507  58.830 -53.190  1.00  0.00    -0.306 N 
HETATM    2  C   UNL     1     -42.909  57.917 -54.137  1.00  0.00     0.323 C 
HETATM    3  N   UNL     1     -42.468  56.605 -53.938  1.00  0.00    -0.328 N 
HETATM    4  C   UNL     1     -41.842  56.135 -52.689  1.00  0.00     0.185 C 
HETATM    5  C   UNL     1     -41.310  54.755 -52.859  1.00  0.00     0.035 A 
HETATM    6  C   UNL     1     -41.416  53.956 -53.976  1.00  0.00    -0.020 A 
HETATM    7  C   UNL     1     -42.110  54.440 -55.194  1.00  0.00     0.061 C 
HETATM    8  C   UNL     1     -43.076  55.575 -54.814  1.00  0.00     0.132 C 
HETATM    9  N   UNL     1     -40.626  54.052 -51.903  1.00  0.00    -0.357 N 
HETATM   10  H   UNL     1     -40.399  54.380 -50.975  1.00  0.00     0.166 HD
HETATM   11  C   UNL     1     -40.286  52.807 -52.391  1.00  0.00     0.043 A 
HETATM   12  C   UNL     1     -40.773  52.722 -53.698  1.00  0.00    -0.001 A 
HETATM   13  C   UNL     1     -39.588  51.759 -51.778  1.00  0.00     0.030 A 
HETATM   14  C   UNL     1     -39.385  50.592 -52.523  1.00  0.00     0.002 A 
HETATM   15  C   UNL     1     -39.860  50.480 -53.828  1.00  0.00     0.001 A 
HETATM   16  C   UNL     1     -40.555  51.537 -54.427  1.00  0.00     0.014 A 
HETATM   17  O   UNL     1     -43.619  58.205 -55.100  1.00  0.00    -0.247 OA
HETATM   18  H   UNL     1     -41.814  58.557 -52.512  1.00  0.00     0.171 HD
ENDROOT
BRANCH   1  19
HETATM   19  C   UNL     1     -42.904  60.184 -53.057  1.00  0.00     0.071 A 
HETATM   20  C   UNL     1     -43.602  60.537 -51.882  1.00  0.00     0.117 A 
HETATM   21  C   UNL     1     -44.104  61.839 -51.726  1.00  0.00     0.069 A 
HETATM   22 CL   UNL     1     -45.088  62.303 -50.385  1.00  0.00    -0.081 Cl
HETATM   23  C   UNL     1     -43.850  62.806 -52.701  1.00  0.00     0.027 A 
HETATM   24  C   UNL     1     -43.122  62.472 -53.841  1.00  0.00     0.004 A 
HETATM   25  C   UNL     1     -42.662  61.164 -54.022  1.00  0.00     0.032 A 
BRANCH  20  26
HETATM   26  O   UNL     1     -43.814  59.530 -50.964  1.00  0.00    -0.347 OA
BRANCH  26  27
HETATM   27  C   UNL     1     -45.105  58.921 -51.110  1.00  0.00     0.171 C 
HETATM   28  C   UNL     1     -44.929  57.416 -51.036  1.00  0.00     0.034 C 
ENDBRANCH  26  27
ENDBRANCH  20  26
ENDBRANCH   1  19
TORSDOF 3
ENDMDL
MODEL 7
REMARK VINA RESULT:      -7.7     16.589     18.874
REMARK  3 active torsions:
REMARK  status: ('A' for Active; 'I' for Inactive)
REMARK    1  A    between atoms: C_2  and  O_3 
REMARK    2  A    between atoms: O_3  and  C_4 
REMARK    3  A    between atoms: C_10  and  N_11 
REMARK       I    between atoms: N_11  and  C_12 
REMARK       I    between atoms: C_12  and  N_13 
ROOT
HETATM    1  N   UNL     1     -33.927  39.913 -52.062  1.00  0.00    -0.306 N 
HETATM    2  C   UNL     1     -34.555  41.080 -52.430  1.00  0.00     0.323 C 
HETATM    3  N   UNL     1     -35.146  41.075 -53.697  1.00  0.00    -0.328 N 
HETATM    4  C   UNL     1     -35.337  39.856 -54.504  1.00  0.00     0.185 C 
HETATM    5  C   UNL     1     -35.810  40.204 -55.871  1.00  0.00     0.035 A 
HETATM    6  C   UNL     1     -36.109  41.460 -56.353  1.00  0.00    -0.020 A 
HETATM    7  C   UNL     1     -35.966  42.658 -55.491  1.00  0.00     0.061 C 
HETATM    8  C   UNL     1     -36.017  42.233 -54.013  1.00  0.00     0.132 C 
HETATM    9  N   UNL     1     -36.033  39.304 -56.879  1.00  0.00    -0.357 N 
HETATM   10  H   UNL     1     -35.905  38.304 -56.821  1.00  0.00     0.166 HD
HETATM   11  C   UNL     1     -36.471  39.965 -58.009  1.00  0.00     0.043 A 
HETATM   12  C   UNL     1     -36.527  41.327 -57.702  1.00  0.00    -0.001 A 
HETATM   13  C   UNL     1     -36.818  39.462 -59.270  1.00  0.00     0.030 A 
HETATM   14  C   UNL     1     -37.235  40.379 -60.241  1.00  0.00     0.002 A 
HETATM   15  C   UNL     1     -37.299  41.743 -59.962  1.00  0.00     0.001 A 
HETATM   16  C   UNL     1     -36.948  42.229 -58.698  1.00  0.00     0.014 A 
HETATM   17  O   UNL     1     -34.618  42.075 -51.709  1.00  0.00    -0.247 OA
HETATM   18  H   UNL     1     -33.791  39.193 -52.752  1.00  0.00     0.171 HD
ENDROOT
BRANCH   1  19
HETATM   19  C   UNL     1     -33.365  39.582 -50.803  1.00  0.00     0.071 A 
HETATM   20  C   UNL     1     -34.161  38.818 -49.924  1.00  0.00     0.117 A 
HETATM   21  C   UNL     1     -33.703  38.532 -48.628  1.00  0.00     0.069 A 
HETATM   22 CL   UNL     1     -34.679  37.728 -47.452  1.00  0.00    -0.081 Cl
HETATM   23  C   UNL     1     -32.429  38.941 -48.233  1.00  0.00     0.027 A 
HETATM   24  C   UNL     1     -31.622  39.657 -49.115  1.00  0.00     0.004 A 
HETATM   25  C   UNL     1     -32.093  39.985 -50.389  1.00  0.00     0.032 A 
BRANCH  20  26
HETATM   26  O   UNL     1     -35.408  38.448 -50.385  1.00  0.00    -0.347 OA
BRANCH  26  27
HETATM   27  C   UNL     1     -36.450  39.293 -49.875  1.00  0.00     0.171 C 
HETATM   28  C   UNL     1     -37.498  39.458 -50.961  1.00  0.00     0.034 C 
ENDBRANCH  26  27
ENDBRANCH  20  26
ENDBRANCH   1  19
TORSDOF 3
ENDMDL
MODEL 8
REMARK VINA RESULT:      -7.6      4.525      7.792
REMARK  3 active torsions:
REMARK  status: ('A' for Active; 'I' for Inactive)
REMARK    1  A    between atoms: C_2  and  O_3 
REMARK    2  A    between atoms: O_3  and  C_4 
REMARK    3  A    between atoms: C_10  and  N_11 
REMARK       I    between atoms: N_11  and  C_12 
REMARK       I    between atoms: C_12  and  N_13 
ROOT
HETATM    1  N   UNL     1     -42.290  55.846 -52.533  1.00  0.00    -0.306 N 
HETATM    2  C   UNL     1     -41.748  56.820 -53.338  1.00  0.00     0.323 C 
HETATM    3  N   UNL     1     -42.612  57.367 -54.292  1.00  0.00    -0.328 N 
HETATM    4  C   UNL     1     -44.069  57.139 -54.299  1.00  0.00     0.185 C 
HETATM    5  C   UNL     1     -44.677  57.689 -55.541  1.00  0.00     0.035 A 
HETATM    6  C   UNL     1     -44.035  58.381 -56.544  1.00  0.00    -0.020 A 
HETATM    7  C   UNL     1     -42.578  58.648 -56.471  1.00  0.00     0.061 C 
HETATM    8  C   UNL     1     -42.116  58.568 -55.007  1.00  0.00     0.132 C 
HETATM    9  N   UNL     1     -46.001  57.595 -55.876  1.00  0.00    -0.357 N 
HETATM   10  H   UNL     1     -46.721  57.145 -55.330  1.00  0.00     0.166 HD
HETATM   11  C   UNL     1     -46.223  58.218 -57.088  1.00  0.00     0.043 A 
HETATM   12  C   UNL     1     -44.997  58.721 -57.530  1.00  0.00    -0.001 A 
HETATM   13  C   UNL     1     -47.407  58.369 -57.820  1.00  0.00     0.030 A 
HETATM   14  C   UNL     1     -47.334  59.057 -59.036  1.00  0.00     0.002 A 
HETATM   15  C   UNL     1     -46.125  59.569 -59.502  1.00  0.00     0.001 A 
HETATM   16  C   UNL     1     -44.950  59.409 -58.759  1.00  0.00     0.014 A 
HETATM   17  O   UNL     1     -40.586  57.214 -53.241  1.00  0.00    -0.247 OA
HETATM   18  H   UNL     1     -43.197  55.474 -52.760  1.00  0.00     0.171 HD
ENDROOT
BRANCH   1  19
HETATM   19  C   UNL     1     -41.703  55.216 -51.407  1.00  0.00     0.071 A 
HETATM   20  C   UNL     1     -41.260  53.886 -51.572  1.00  0.00     0.117 A 
HETATM   21  C   UNL     1     -40.753  53.171 -50.475  1.00  0.00     0.069 A 
HETATM   22 CL   UNL     1     -40.327  51.500 -50.569  1.00  0.00    -0.081 Cl
HETATM   23  C   UNL     1     -40.619  53.799 -49.236  1.00  0.00     0.027 A 
HETATM   24  C   UNL     1     -41.014  55.126 -49.080  1.00  0.00     0.004 A 
HETATM   25  C   UNL     1     -41.564  55.826 -50.158  1.00  0.00     0.032 A 
BRANCH  20  26
HETATM   26  O   UNL     1     -41.422  53.333 -52.826  1.00  0.00    -0.347 OA
BRANCH  26  27
HETATM   27  C   UNL     1     -40.180  53.210 -53.532  1.00  0.00     0.171 C 
HETATM   28  C   UNL     1     -40.375  53.760 -54.933  1.00  0.00     0.034 C 
ENDBRANCH  26  27
ENDBRANCH  20  26
ENDBRANCH   1  19
TORSDOF 3
ENDMDL
MODEL 9
REMARK VINA RESULT:      -7.4     16.874     18.948
REMARK  3 active torsions:
REMARK  status: ('A' for Active; 'I' for Inactive)
REMARK    1  A    between atoms: C_2  and  O_3 
REMARK    2  A    between atoms: O_3  and  C_4 
REMARK    3  A    between atoms: C_10  and  N_11 
REMARK       I    between atoms: N_11  and  C_12 
REMARK       I    between atoms: C_12  and  N_13 
ROOT
HETATM    1  N   UNL     1     -35.525  40.575 -54.717  1.00  0.00    -0.306 N 
HETATM    2  C   UNL     1     -35.732  41.352 -55.832  1.00  0.00     0.323 C 
HETATM    3  N   UNL     1     -36.459  40.749 -56.863  1.00  0.00    -0.328 N 
HETATM    4  C   UNL     1     -37.192  39.479 -56.711  1.00  0.00     0.185 C 
HETATM    5  C   UNL     1     -37.696  39.006 -58.029  1.00  0.00     0.035 A 
HETATM    6  C   UNL     1     -37.584  39.650 -59.241  1.00  0.00    -0.020 A 
HETATM    7  C   UNL     1     -36.894  40.959 -59.345  1.00  0.00     0.061 C 
HETATM    8  C   UNL     1     -36.885  41.643 -57.968  1.00  0.00     0.132 C 
HETATM    9  N   UNL     1     -38.372  37.833 -58.237  1.00  0.00    -0.357 N 
HETATM   10  H   UNL     1     -38.608  37.151 -57.531  1.00  0.00     0.166 HD
HETATM   11  C   UNL     1     -38.696  37.711 -59.573  1.00  0.00     0.043 A 
HETATM   12  C   UNL     1     -38.209  38.845 -60.228  1.00  0.00    -0.001 A 
HETATM   13  C   UNL     1     -39.377  36.688 -60.245  1.00  0.00     0.030 A 
HETATM   14  C   UNL     1     -39.566  36.832 -61.624  1.00  0.00     0.002 A 
HETATM   15  C   UNL     1     -39.091  37.952 -62.302  1.00  0.00     0.001 A 
HETATM   16  C   UNL     1     -38.411  38.966 -61.617  1.00  0.00     0.014 A 
HETATM   17  O   UNL     1     -35.327  42.509 -55.939  1.00  0.00    -0.247 OA
HETATM   18  H   UNL     1     -35.759  39.597 -54.753  1.00  0.00     0.171 HD
ENDROOT
BRANCH   1  19
HETATM   19  C   UNL     1     -34.948  40.957 -53.479  1.00  0.00     0.071 A 
HETATM   20  C   UNL     1     -33.709  40.373 -53.141  1.00  0.00     0.117 A 
HETATM   21  C   UNL     1     -33.125  40.636 -51.891  1.00  0.00     0.069 A 
HETATM   22 CL   UNL     1     -31.687  39.847 -51.351  1.00  0.00    -0.081 Cl
HETATM   23  C   UNL     1     -33.735  41.532 -51.011  1.00  0.00     0.027 A 
HETATM   24  C   UNL     1     -34.936  42.145 -51.362  1.00  0.00     0.004 A 
HETATM   25  C   UNL     1     -35.544  41.849 -52.585  1.00  0.00     0.032 A 
BRANCH  20  26
HETATM   26  O   UNL     1     -33.167  39.499 -54.060  1.00  0.00    -0.347 OA
BRANCH  26  27
HETATM   27  C   UNL     1     -32.156  40.118 -54.869  1.00  0.00     0.171 C 
HETATM   28  C   UNL     1     -31.088  39.081 -55.167  1.00  0.00     0.034 C 
ENDBRANCH  26  27
ENDBRANCH  20  26
ENDBRANCH   1  19
TORSDOF 3
ENDMDL
MODEL 10
REMARK VINA RESULT:      -7.3      4.800      6.171
REMARK  3 active torsions:
REMARK  status: ('A' for Active; 'I' for Inactive)
REMARK    1  A    between atoms: C_2  and  O_3 
REMARK    2  A    between atoms: O_3  and  C_4 
REMARK    3  A    between atoms: C_10  and  N_11 
REMARK       I    between atoms: N_11  and  C_12 
REMARK       I    between atoms: C_12  and  N_13 
ROOT
HETATM    1  N   UNL     1     -43.600  57.313 -57.140  1.00  0.00    -0.306 N 
HETATM    2  C   UNL     1     -43.200  56.005 -57.001  1.00  0.00     0.323 C 
HETATM    3  N   UNL     1     -42.802  55.627 -55.715  1.00  0.00    -0.328 N 
HETATM    4  C   UNL     1     -43.028  56.453 -54.515  1.00  0.00     0.185 C 
HETATM    5  C   UNL     1     -42.323  55.871 -53.340  1.00  0.00     0.035 A 
HETATM    6  C   UNL     1     -41.604  54.697 -53.301  1.00  0.00    -0.020 A 
HETATM    7  C   UNL     1     -41.453  53.857 -54.514  1.00  0.00     0.061 C 
HETATM    8  C   UNL     1     -42.590  54.175 -55.500  1.00  0.00     0.132 C 
HETATM    9  N   UNL     1     -42.291  56.426 -52.088  1.00  0.00    -0.357 N 
HETATM   10  H   UNL     1     -42.735  57.289 -51.811  1.00  0.00     0.166 HD
HETATM   11  C   UNL     1     -41.556  55.623 -51.240  1.00  0.00     0.043 A 
HETATM   12  C   UNL     1     -41.111  54.526 -51.981  1.00  0.00    -0.001 A 
HETATM   13  C   UNL     1     -41.253  55.787 -49.882  1.00  0.00     0.030 A 
HETATM   14  C   UNL     1     -40.476  54.799 -49.268  1.00  0.00     0.002 A 
HETATM   15  C   UNL     1     -40.019  53.694 -49.983  1.00  0.00     0.001 A 
HETATM   16  C   UNL     1     -40.330  53.546 -51.340  1.00  0.00     0.014 A 
HETATM   17  O   UNL     1     -43.191  55.194 -57.927  1.00  0.00    -0.247 OA
HETATM   18  H   UNL     1     -43.447  57.954 -56.379  1.00  0.00     0.171 HD
ENDROOT
BRANCH   1  19
HETATM   19  C   UNL     1     -44.174  57.936 -58.277  1.00  0.00     0.071 A 
HETATM   20  C   UNL     1     -43.370  58.860 -58.978  1.00  0.00     0.117 A 
HETATM   21  C   UNL     1     -43.904  59.581 -60.057  1.00  0.00     0.069 A 
HETATM   22 CL   UNL     1     -43.028  60.828 -60.869  1.00  0.00    -0.081 Cl
HETATM   23  C   UNL     1     -45.210  59.332 -60.484  1.00  0.00     0.027 A 
HETATM   24  C   UNL     1     -45.992  58.388 -59.821  1.00  0.00     0.004 A 
HETATM   25  C   UNL     1     -45.479  57.702 -58.716  1.00  0.00     0.032 A 
BRANCH  20  26
HETATM   26  O   UNL     1     -42.090  59.052 -58.499  1.00  0.00    -0.347 OA
BRANCH  26  27
HETATM   27  C   UNL     1     -42.023  60.113 -57.536  1.00  0.00     0.171 C 
HETATM   28  C   UNL     1     -41.087  61.181 -58.073  1.00  0.00     0.034 C 
ENDBRANCH  26  27
ENDBRANCH  20  26
ENDBRANCH   1  19
TORSDOF 3
ENDMDL
