MODEL 1
REMARK VINA RESULT:      -8.7      0.000      0.000
REMARK  6 active torsions:
REMARK  status: ('A' for Active; 'I' for Inactive)
REMARK    1  A    between atoms: C_2  and  O_3 
REMARK    2  A    between atoms: O_3  and  C_4 
REMARK    3  A    between atoms: C_13  and  C_14 
REMARK       I    between atoms: C_14  and  N_15 
REMARK    4  A    between atoms: N_15  and  N_16 
REMARK       I    between atoms: N_16  and  C_17 
REMARK    5  A    between atoms: C_17  and  C_18 
REMARK    6  A    between atoms: C_18  and  C_19 
ROOT
HETATM    1  C   UNL     1     -41.034  53.088 -54.242  1.00  0.00     0.069 A 
HETATM    2  C   UNL     1     -41.948  53.646 -53.348  1.00  0.00     0.050 A 
HETATM    3  C   UNL     1     -42.022  55.038 -53.163  1.00  0.00    -0.004 A 
HETATM    4  C   UNL     1     -41.167  55.897 -53.880  1.00  0.00     0.068 A 
HETATM    5  N   UNL     1     -41.185  57.229 -53.769  1.00  0.00    -0.240 NA
HETATM    6  C   UNL     1     -42.091  57.731 -52.908  1.00  0.00     0.111 A 
HETATM    7  C   UNL     1     -42.985  57.008 -52.130  1.00  0.00     0.028 A 
HETATM    8  C   UNL     1     -42.943  55.605 -52.272  1.00  0.00     0.030 A 
HETATM    9  S   UNL     1     -42.234  59.411 -52.682  1.00  0.00    -0.062 SA
HETATM   10  C   UNL     1     -43.486  59.228 -51.522  1.00  0.00     0.103 A 
HETATM   11  C   UNL     1     -43.782  57.889 -51.327  1.00  0.00     0.062 A 
HETATM   12  N   UNL     1     -44.730  57.454 -50.467  1.00  0.00    -0.397 N 
HETATM   13  C   UNL     1     -40.257  55.319 -54.752  1.00  0.00     0.035 A 
HETATM   14  C   UNL     1     -40.180  53.931 -54.941  1.00  0.00     0.039 A 
HETATM   15  H   UNL     1     -45.199  58.108 -49.835  1.00  0.00     0.156 HD
HETATM   16  H   UNL     1     -44.840  56.481 -50.204  1.00  0.00     0.156 HD
ENDROOT
BRANCH  10  17
HETATM   17  C   UNL     1     -44.086  60.379 -50.861  1.00  0.00     0.279 C 
HETATM   18  N   UNL     1     -43.768  60.560 -49.525  1.00  0.00    -0.263 N 
HETATM   19  H   UNL     1     -43.174  59.916 -49.006  1.00  0.00     0.190 HD
HETATM   20  O   UNL     1     -44.843  61.173 -51.429  1.00  0.00    -0.265 OA
BRANCH  18  21
HETATM   21  N   UNL     1     -44.397  61.577 -48.802  1.00  0.00    -0.267 N 
HETATM   22  C   UNL     1     -45.444  61.241 -47.969  1.00  0.00     0.240 C 
HETATM   23  O   UNL     1     -45.868  60.091 -47.865  1.00  0.00    -0.272 OA
HETATM   24  H   UNL     1     -43.928  62.482 -48.773  1.00  0.00     0.190 HD
BRANCH  22  25
HETATM   25  C   UNL     1     -46.072  62.418 -47.249  1.00  0.00     0.143 C 
BRANCH  25  26
HETATM   26  C   UNL     1     -45.394  62.763 -45.947  1.00  0.00    -0.049 A 
HETATM   27  C   UNL     1     -45.329  64.092 -45.504  1.00  0.00     0.007 A 
HETATM   28  C   UNL     1     -44.720  64.401 -44.287  1.00  0.00     0.001 A 
HETATM   29  C   UNL     1     -44.172  63.389 -43.501  1.00  0.00     0.000 A 
HETATM   30  C   UNL     1     -44.231  62.065 -43.932  1.00  0.00     0.001 A 
HETATM   31  C   UNL     1     -44.839  61.752 -45.149  1.00  0.00     0.007 A 
ENDBRANCH  25  26
ENDBRANCH  22  25
ENDBRANCH  18  21
ENDBRANCH  10  17
BRANCH   1  32
HETATM   32  O   UNL     1     -41.079  51.726 -54.333  1.00  0.00    -0.351 OA
BRANCH  32  33
HETATM   33  C   UNL     1     -39.947  51.004 -53.850  1.00  0.00     0.171 C 
HETATM   34  C   UNL     1     -39.750  49.792 -54.741  1.00  0.00     0.034 C 
ENDBRANCH  32  33
ENDBRANCH   1  32
TORSDOF 6
ENDMDL
MODEL 2
REMARK VINA RESULT:      -8.3      1.801      2.294
REMARK  6 active torsions:
REMARK  status: ('A' for Active; 'I' for Inactive)
REMARK    1  A    between atoms: C_2  and  O_3 
REMARK    2  A    between atoms: O_3  and  C_4 
REMARK    3  A    between atoms: C_13  and  C_14 
REMARK       I    between atoms: C_14  and  N_15 
REMARK    4  A    between atoms: N_15  and  N_16 
REMARK       I    between atoms: N_16  and  C_17 
REMARK    5  A    between atoms: C_17  and  C_18 
REMARK    6  A    between atoms: C_18  and  C_19 
ROOT
HETATM    1  C   UNL     1     -40.057  51.973 -53.209  1.00  0.00     0.069 A 
HETATM    2  C   UNL     1     -40.053  53.027 -52.296  1.00  0.00     0.050 A 
HETATM    3  C   UNL     1     -40.890  54.143 -52.475  1.00  0.00    -0.004 A 
HETATM    4  C   UNL     1     -41.750  54.216 -53.587  1.00  0.00     0.068 A 
HETATM    5  N   UNL     1     -42.583  55.235 -53.820  1.00  0.00    -0.240 NA
HETATM    6  C   UNL     1     -42.561  56.227 -52.908  1.00  0.00     0.111 A 
HETATM    7  C   UNL     1     -41.762  56.294 -51.776  1.00  0.00     0.028 A 
HETATM    8  C   UNL     1     -40.896  55.202 -51.557  1.00  0.00     0.030 A 
HETATM    9  S   UNL     1     -43.583  57.576 -53.072  1.00  0.00    -0.062 SA
HETATM   10  C   UNL     1     -42.978  58.307 -51.641  1.00  0.00     0.103 A 
HETATM   11  C   UNL     1     -42.010  57.508 -51.055  1.00  0.00     0.062 A 
HETATM   12  N   UNL     1     -41.364  57.839 -49.914  1.00  0.00    -0.397 N 
HETATM   13  C   UNL     1     -41.726  53.163 -54.489  1.00  0.00     0.035 A 
HETATM   14  C   UNL     1     -40.894  52.047 -54.315  1.00  0.00     0.039 A 
HETATM   15  H   UNL     1     -41.491  58.762 -49.493  1.00  0.00     0.156 HD
HETATM   16  H   UNL     1     -40.549  57.341 -49.571  1.00  0.00     0.156 HD
ENDROOT
BRANCH  10  17
HETATM   17  C   UNL     1     -43.458  59.605 -51.187  1.00  0.00     0.279 C 
HETATM   18  N   UNL     1     -44.831  59.785 -51.166  1.00  0.00    -0.263 N 
HETATM   19  H   UNL     1     -45.487  59.070 -51.477  1.00  0.00     0.190 HD
HETATM   20  O   UNL     1     -42.708  60.522 -50.833  1.00  0.00    -0.265 OA
BRANCH  18  21
HETATM   21  N   UNL     1     -45.353  61.042 -50.851  1.00  0.00    -0.267 N 
HETATM   22  C   UNL     1     -45.832  61.254 -49.575  1.00  0.00     0.240 C 
HETATM   23  O   UNL     1     -45.852  60.372 -48.717  1.00  0.00    -0.272 OA
HETATM   24  H   UNL     1     -45.173  61.796 -51.512  1.00  0.00     0.190 HD
BRANCH  22  25
HETATM   25  C   UNL     1     -46.397  62.641 -49.342  1.00  0.00     0.143 C 
BRANCH  25  26
HETATM   26  C   UNL     1     -46.304  63.100 -47.909  1.00  0.00    -0.049 A 
HETATM   27  C   UNL     1     -47.426  63.059 -47.070  1.00  0.00     0.007 A 
HETATM   28  C   UNL     1     -47.328  63.465 -45.738  1.00  0.00     0.001 A 
HETATM   29  C   UNL     1     -46.110  63.914 -45.231  1.00  0.00     0.000 A 
HETATM   30  C   UNL     1     -44.987  63.960 -46.057  1.00  0.00     0.001 A 
HETATM   31  C   UNL     1     -45.083  63.555 -47.390  1.00  0.00     0.007 A 
ENDBRANCH  25  26
ENDBRANCH  22  25
ENDBRANCH  18  21
ENDBRANCH  10  17
BRANCH   1  32
HETATM   32  O   UNL     1     -39.206  50.949 -52.906  1.00  0.00    -0.351 OA
BRANCH  32  33
HETATM   33  C   UNL     1     -39.789  49.742 -52.415  1.00  0.00     0.171 C 
HETATM   34  C   UNL     1     -39.655  49.740 -50.903  1.00  0.00     0.034 C 
ENDBRANCH  32  33
ENDBRANCH   1  32
TORSDOF 6
ENDMDL
MODEL 3
REMARK VINA RESULT:      -8.3      4.626      5.499
REMARK  6 active torsions:
REMARK  status: ('A' for Active; 'I' for Inactive)
REMARK    1  A    between atoms: C_2  and  O_3 
REMARK    2  A    between atoms: O_3  and  C_4 
REMARK    3  A    between atoms: C_13  and  C_14 
REMARK       I    between atoms: C_14  and  N_15 
REMARK    4  A    between atoms: N_15  and  N_16 
REMARK       I    between atoms: N_16  and  C_17 
REMARK    5  A    between atoms: C_17  and  C_18 
REMARK    6  A    between atoms: C_18  and  C_19 
ROOT
HETATM    1  C   UNL     1     -40.305  52.770 -51.903  1.00  0.00     0.069 A 
HETATM    2  C   UNL     1     -41.097  53.322 -52.909  1.00  0.00     0.050 A 
HETATM    3  C   UNL     1     -41.728  54.567 -52.733  1.00  0.00    -0.004 A 
HETATM    4  C   UNL     1     -41.571  55.279 -51.529  1.00  0.00     0.068 A 
HETATM    5  N   UNL     1     -42.127  56.471 -51.290  1.00  0.00    -0.240 NA
HETATM    6  C   UNL     1     -42.872  56.979 -52.292  1.00  0.00     0.111 A 
HETATM    7  C   UNL     1     -43.121  56.386 -53.521  1.00  0.00     0.028 A 
HETATM    8  C   UNL     1     -42.519  55.130 -53.743  1.00  0.00     0.030 A 
HETATM    9  S   UNL     1     -43.623  58.496 -52.129  1.00  0.00    -0.062 SA
HETATM   10  C   UNL     1     -44.323  58.405 -53.695  1.00  0.00     0.103 A 
HETATM   11  C   UNL     1     -43.969  57.222 -54.321  1.00  0.00     0.062 A 
HETATM   12  N   UNL     1     -44.380  56.887 -55.565  1.00  0.00    -0.397 N 
HETATM   13  C   UNL     1     -40.791  54.704 -50.537  1.00  0.00     0.035 A 
HETATM   14  C   UNL     1     -40.158  53.464 -50.708  1.00  0.00     0.039 A 
HETATM   15  H   UNL     1     -45.071  57.459 -56.056  1.00  0.00     0.156 HD
HETATM   16  H   UNL     1     -44.258  55.961 -55.962  1.00  0.00     0.156 HD
ENDROOT
BRANCH  10  17
HETATM   17  C   UNL     1     -45.181  59.464 -54.208  1.00  0.00     0.279 C 
HETATM   18  N   UNL     1     -45.898  60.188 -53.270  1.00  0.00    -0.263 N 
HETATM   19  H   UNL     1     -45.866  59.985 -52.272  1.00  0.00     0.190 HD
HETATM   20  O   UNL     1     -45.289  59.731 -55.410  1.00  0.00    -0.265 OA
BRANCH  18  21
HETATM   21  N   UNL     1     -46.825  61.141 -53.701  1.00  0.00    -0.267 N 
HETATM   22  C   UNL     1     -47.352  62.014 -52.772  1.00  0.00     0.240 C 
HETATM   23  O   UNL     1     -47.067  61.964 -51.576  1.00  0.00    -0.272 OA
HETATM   24  H   UNL     1     -46.916  61.274 -54.707  1.00  0.00     0.190 HD
BRANCH  22  25
HETATM   25  C   UNL     1     -48.363  62.991 -53.337  1.00  0.00     0.143 C 
BRANCH  25  26
HETATM   26  C   UNL     1     -49.776  62.734 -52.877  1.00  0.00    -0.049 A 
HETATM   27  C   UNL     1     -50.303  63.410 -51.768  1.00  0.00     0.007 A 
HETATM   28  C   UNL     1     -51.618  63.183 -51.361  1.00  0.00     0.001 A 
HETATM   29  C   UNL     1     -52.420  62.281 -52.057  1.00  0.00     0.000 A 
HETATM   30  C   UNL     1     -51.907  61.602 -53.161  1.00  0.00     0.001 A 
HETATM   31  C   UNL     1     -50.591  61.826 -53.570  1.00  0.00     0.007 A 
ENDBRANCH  25  26
ENDBRANCH  22  25
ENDBRANCH  18  21
ENDBRANCH  10  17
BRANCH   1  32
HETATM   32  O   UNL     1     -39.742  51.565 -52.212  1.00  0.00    -0.351 OA
BRANCH  32  33
HETATM   33  C   UNL     1     -39.464  51.311 -53.589  1.00  0.00     0.171 C 
HETATM   34  C   UNL     1     -39.630  49.822 -53.833  1.00  0.00     0.034 C 
ENDBRANCH  32  33
ENDBRANCH   1  32
TORSDOF 6
ENDMDL
MODEL 4
REMARK VINA RESULT:      -8.3      7.871     11.527
REMARK  6 active torsions:
REMARK  status: ('A' for Active; 'I' for Inactive)
REMARK    1  A    between atoms: C_2  and  O_3 
REMARK    2  A    between atoms: O_3  and  C_4 
REMARK    3  A    between atoms: C_13  and  C_14 
REMARK       I    between atoms: C_14  and  N_15 
REMARK    4  A    between atoms: N_15  and  N_16 
REMARK       I    between atoms: N_16  and  C_17 
REMARK    5  A    between atoms: C_17  and  C_18 
REMARK    6  A    between atoms: C_18  and  C_19 
ROOT
HETATM    1  C   UNL     1     -48.976  58.945 -61.816  1.00  0.00     0.069 A 
HETATM    2  C   UNL     1     -48.164  59.320 -60.747  1.00  0.00     0.050 A 
HETATM    3  C   UNL     1     -47.171  58.454 -60.253  1.00  0.00    -0.004 A 
HETATM    4  C   UNL     1     -46.983  57.185 -60.833  1.00  0.00     0.068 A 
HETATM    5  N   UNL     1     -46.055  56.312 -60.428  1.00  0.00    -0.240 NA
HETATM    6  C   UNL     1     -45.280  56.716 -59.403  1.00  0.00     0.111 A 
HETATM    7  C   UNL     1     -45.360  57.928 -58.732  1.00  0.00     0.028 A 
HETATM    8  C   UNL     1     -46.347  58.828 -59.183  1.00  0.00     0.030 A 
HETATM    9  S   UNL     1     -44.048  55.711 -58.800  1.00  0.00    -0.062 SA
HETATM   10  C   UNL     1     -43.589  56.857 -57.607  1.00  0.00     0.103 A 
HETATM   11  C   UNL     1     -44.378  57.992 -57.688  1.00  0.00     0.062 A 
HETATM   12  N   UNL     1     -44.236  59.057 -56.868  1.00  0.00    -0.397 N 
HETATM   13  C   UNL     1     -47.812  56.828 -61.885  1.00  0.00     0.035 A 
HETATM   14  C   UNL     1     -48.802  57.688 -62.383  1.00  0.00     0.039 A 
HETATM   15  H   UNL     1     -43.598  59.017 -56.069  1.00  0.00     0.156 HD
HETATM   16  H   UNL     1     -44.907  59.816 -56.818  1.00  0.00     0.156 HD
ENDROOT
BRANCH  10  17
HETATM   17  C   UNL     1     -42.518  56.581 -56.659  1.00  0.00     0.279 C 
HETATM   18  N   UNL     1     -42.086  55.267 -56.578  1.00  0.00    -0.263 N 
HETATM   19  H   UNL     1     -42.504  54.514 -57.121  1.00  0.00     0.190 HD
HETATM   20  O   UNL     1     -41.999  57.448 -55.947  1.00  0.00    -0.265 OA
BRANCH  18  21
HETATM   21  N   UNL     1     -41.142  54.914 -55.610  1.00  0.00    -0.267 N 
HETATM   22  C   UNL     1     -41.575  54.248 -54.482  1.00  0.00     0.240 C 
HETATM   23  O   UNL     1     -42.760  53.987 -54.278  1.00  0.00    -0.272 OA
HETATM   24  H   UNL     1     -40.160  54.988 -55.873  1.00  0.00     0.190 HD
BRANCH  22  25
HETATM   25  C   UNL     1     -40.479  53.932 -53.484  1.00  0.00     0.143 C 
BRANCH  25  26
HETATM   26  C   UNL     1     -40.211  52.456 -53.326  1.00  0.00    -0.049 A 
HETATM   27  C   UNL     1     -40.394  51.576 -54.402  1.00  0.00     0.007 A 
HETATM   28  C   UNL     1     -40.124  50.215 -54.255  1.00  0.00     0.001 A 
HETATM   29  C   UNL     1     -39.668  49.720 -53.034  1.00  0.00     0.000 A 
HETATM   30  C   UNL     1     -39.483  50.586 -51.958  1.00  0.00     0.001 A 
HETATM   31  C   UNL     1     -39.753  51.948 -52.101  1.00  0.00     0.007 A 
ENDBRANCH  25  26
ENDBRANCH  22  25
ENDBRANCH  18  21
ENDBRANCH  10  17
BRANCH   1  32
HETATM   32  O   UNL     1     -49.887  59.887 -62.202  1.00  0.00    -0.351 OA
BRANCH  32  33
HETATM   33  C   UNL     1     -51.251  59.476 -62.287  1.00  0.00     0.171 C 
HETATM   34  C   UNL     1     -52.084  60.444 -61.467  1.00  0.00     0.034 C 
ENDBRANCH  32  33
ENDBRANCH   1  32
TORSDOF 6
ENDMDL
MODEL 5
REMARK VINA RESULT:      -8.2     18.818     22.144
REMARK  6 active torsions:
REMARK  status: ('A' for Active; 'I' for Inactive)
REMARK    1  A    between atoms: C_2  and  O_3 
REMARK    2  A    between atoms: O_3  and  C_4 
REMARK    3  A    between atoms: C_13  and  C_14 
REMARK       I    between atoms: C_14  and  N_15 
REMARK    4  A    between atoms: N_15  and  N_16 
REMARK       I    between atoms: N_16  and  C_17 
REMARK    5  A    between atoms: C_17  and  C_18 
REMARK    6  A    between atoms: C_18  and  C_19 
ROOT
HETATM    1  C   UNL     1     -30.638  38.814 -46.231  1.00  0.00     0.069 A 
HETATM    2  C   UNL     1     -30.814  39.499 -47.432  1.00  0.00     0.050 A 
HETATM    3  C   UNL     1     -31.975  39.320 -48.206  1.00  0.00    -0.004 A 
HETATM    4  C   UNL     1     -32.985  38.438 -47.777  1.00  0.00     0.068 A 
HETATM    5  N   UNL     1     -34.120  38.222 -48.449  1.00  0.00    -0.240 NA
HETATM    6  C   UNL     1     -34.260  38.915 -49.597  1.00  0.00     0.111 A 
HETATM    7  C   UNL     1     -33.347  39.805 -50.143  1.00  0.00     0.028 A 
HETATM    8  C   UNL     1     -32.160  40.012 -49.410  1.00  0.00     0.030 A 
HETATM    9  S   UNL     1     -35.664  38.750 -50.542  1.00  0.00    -0.062 SA
HETATM   10  C   UNL     1     -35.092  39.853 -51.726  1.00  0.00     0.103 A 
HETATM   11  C   UNL     1     -33.840  40.336 -51.381  1.00  0.00     0.062 A 
HETATM   12  N   UNL     1     -33.151  41.222 -52.134  1.00  0.00    -0.397 N 
HETATM   13  C   UNL     1     -32.782  37.756 -46.587  1.00  0.00     0.035 A 
HETATM   14  C   UNL     1     -31.626  37.931 -45.811  1.00  0.00     0.039 A 
HETATM   15  H   UNL     1     -33.490  41.491 -53.062  1.00  0.00     0.156 HD
HETATM   16  H   UNL     1     -32.177  41.454 -51.971  1.00  0.00     0.156 HD
ENDROOT
BRANCH  10  17
HETATM   17  C   UNL     1     -35.871  40.165 -52.916  1.00  0.00     0.279 C 
HETATM   18  N   UNL     1     -36.127  41.506 -53.154  1.00  0.00    -0.263 N 
HETATM   19  H   UNL     1     -35.822  42.247 -52.525  1.00  0.00     0.190 HD
HETATM   20  O   UNL     1     -36.299  39.306 -53.694  1.00  0.00    -0.265 OA
BRANCH  18  21
HETATM   21  N   UNL     1     -36.963  41.866 -54.214  1.00  0.00    -0.267 N 
HETATM   22  C   UNL     1     -36.386  42.232 -55.412  1.00  0.00     0.240 C 
HETATM   23  O   UNL     1     -35.167  42.289 -55.573  1.00  0.00    -0.272 OA
HETATM   24  H   UNL     1     -37.954  41.652 -54.114  1.00  0.00     0.190 HD
BRANCH  22  25
HETATM   25  C   UNL     1     -37.377  42.627 -56.489  1.00  0.00     0.143 C 
BRANCH  25  26
HETATM   26  C   UNL     1     -37.497  41.617 -57.602  1.00  0.00    -0.049 A 
HETATM   27  C   UNL     1     -37.993  40.330 -57.350  1.00  0.00     0.007 A 
HETATM   28  C   UNL     1     -38.122  39.407 -58.389  1.00  0.00     0.001 A 
HETATM   29  C   UNL     1     -37.758  39.759 -59.687  1.00  0.00     0.000 A 
HETATM   30  C   UNL     1     -37.263  41.036 -59.949  1.00  0.00     0.001 A 
HETATM   31  C   UNL     1     -37.133  41.961 -58.912  1.00  0.00     0.007 A 
ENDBRANCH  25  26
ENDBRANCH  22  25
ENDBRANCH  18  21
ENDBRANCH  10  17
BRANCH   1  32
HETATM   32  O   UNL     1     -29.472  39.092 -45.576  1.00  0.00    -0.351 OA
BRANCH  32  33
HETATM   33  C   UNL     1     -29.574  39.505 -44.214  1.00  0.00     0.171 C 
HETATM   34  C   UNL     1     -29.884  40.990 -44.196  1.00  0.00     0.034 C 
ENDBRANCH  32  33
ENDBRANCH   1  32
TORSDOF 6
ENDMDL
MODEL 6
REMARK VINA RESULT:      -8.0      4.411      5.408
REMARK  6 active torsions:
REMARK  status: ('A' for Active; 'I' for Inactive)
REMARK    1  A    between atoms: C_2  and  O_3 
REMARK    2  A    between atoms: O_3  and  C_4 
REMARK    3  A    between atoms: C_13  and  C_14 
REMARK       I    between atoms: C_14  and  N_15 
REMARK    4  A    between atoms: N_15  and  N_16 
REMARK       I    between atoms: N_16  and  C_17 
REMARK    5  A    between atoms: C_17  and  C_18 
REMARK    6  A    between atoms: C_18  and  C_19 
ROOT
HETATM    1  C   UNL     1     -40.304  52.788 -53.567  1.00  0.00     0.069 A 
HETATM    2  C   UNL     1     -41.154  53.420 -52.660  1.00  0.00     0.050 A 
HETATM    3  C   UNL     1     -41.826  54.607 -53.003  1.00  0.00    -0.004 A 
HETATM    4  C   UNL     1     -41.647  55.182 -54.275  1.00  0.00     0.068 A 
HETATM    5  N   UNL     1     -42.258  56.301 -54.680  1.00  0.00    -0.240 NA
HETATM    6  C   UNL     1     -43.083  56.873 -53.781  1.00  0.00     0.111 A 
HETATM    7  C   UNL     1     -43.344  56.426 -52.494  1.00  0.00     0.028 A 
HETATM    8  C   UNL     1     -42.686  55.243 -52.098  1.00  0.00     0.030 A 
HETATM    9  S   UNL     1     -43.938  58.291 -54.171  1.00  0.00    -0.062 SA
HETATM   10  C   UNL     1     -44.676  58.365 -52.622  1.00  0.00     0.103 A 
HETATM   11  C   UNL     1     -44.265  57.304 -51.832  1.00  0.00     0.062 A 
HETATM   12  N   UNL     1     -44.689  57.113 -50.563  1.00  0.00    -0.397 N 
HETATM   13  C   UNL     1     -40.786  54.545 -55.156  1.00  0.00     0.035 A 
HETATM   14  C   UNL     1     -40.115  53.360 -54.820  1.00  0.00     0.039 A 
HETATM   15  H   UNL     1     -45.258  57.822 -50.093  1.00  0.00     0.156 HD
HETATM   16  H   UNL     1     -44.273  56.437 -49.931  1.00  0.00     0.156 HD
ENDROOT
BRANCH  10  17
HETATM   17  C   UNL     1     -45.583  59.446 -52.262  1.00  0.00     0.279 C 
HETATM   18  N   UNL     1     -46.107  60.188 -53.308  1.00  0.00    -0.263 N 
HETATM   19  H   UNL     1     -45.859  60.023 -54.282  1.00  0.00     0.190 HD
HETATM   20  O   UNL     1     -45.891  59.717 -51.096  1.00  0.00    -0.265 OA
BRANCH  18  21
HETATM   21  N   UNL     1     -46.892  61.309 -53.027  1.00  0.00    -0.267 N 
HETATM   22  C   UNL     1     -47.227  62.154 -54.064  1.00  0.00     0.240 C 
HETATM   23  O   UNL     1     -46.832  61.981 -55.217  1.00  0.00    -0.272 OA
HETATM   24  H   UNL     1     -47.343  61.340 -52.113  1.00  0.00     0.190 HD
BRANCH  22  25
HETATM   25  C   UNL     1     -48.060  63.351 -53.651  1.00  0.00     0.143 C 
BRANCH  25  26
HETATM   26  C   UNL     1     -49.466  62.996 -53.235  1.00  0.00    -0.049 A 
HETATM   27  C   UNL     1     -49.996  63.470 -52.027  1.00  0.00     0.007 A 
HETATM   28  C   UNL     1     -51.305  63.156 -51.659  1.00  0.00     0.001 A 
HETATM   29  C   UNL     1     -52.097  62.368 -52.492  1.00  0.00     0.000 A 
HETATM   30  C   UNL     1     -51.579  61.891 -53.695  1.00  0.00     0.001 A 
HETATM   31  C   UNL     1     -50.270  62.203 -54.066  1.00  0.00     0.007 A 
ENDBRANCH  25  26
ENDBRANCH  22  25
ENDBRANCH  18  21
ENDBRANCH  10  17
BRANCH   1  32
HETATM   32  O   UNL     1     -39.729  51.637 -53.109  1.00  0.00    -0.351 OA
BRANCH  32  33
HETATM   33  C   UNL     1     -39.391  51.586 -51.723  1.00  0.00     0.171 C 
HETATM   34  C   UNL     1     -39.516  50.145 -51.264  1.00  0.00     0.034 C 
ENDBRANCH  32  33
ENDBRANCH   1  32
TORSDOF 6
ENDMDL
MODEL 7
REMARK VINA RESULT:      -7.9      2.184     10.812
REMARK  6 active torsions:
REMARK  status: ('A' for Active; 'I' for Inactive)
REMARK    1  A    between atoms: C_2  and  O_3 
REMARK    2  A    between atoms: O_3  and  C_4 
REMARK    3  A    between atoms: C_13  and  C_14 
REMARK       I    between atoms: C_14  and  N_15 
REMARK    4  A    between atoms: N_15  and  N_16 
REMARK       I    between atoms: N_16  and  C_17 
REMARK    5  A    between atoms: C_17  and  C_18 
REMARK    6  A    between atoms: C_18  and  C_19 
ROOT
HETATM    1  C   UNL     1     -46.059  63.409 -48.144  1.00  0.00     0.069 A 
HETATM    2  C   UNL     1     -44.913  62.617 -48.195  1.00  0.00     0.050 A 
HETATM    3  C   UNL     1     -44.601  61.867 -49.344  1.00  0.00    -0.004 A 
HETATM    4  C   UNL     1     -45.449  61.903 -50.467  1.00  0.00     0.068 A 
HETATM    5  N   UNL     1     -45.216  61.230 -51.598  1.00  0.00    -0.240 NA
HETATM    6  C   UNL     1     -44.091  60.489 -51.615  1.00  0.00     0.111 A 
HETATM    7  C   UNL     1     -43.174  60.351 -50.583  1.00  0.00     0.028 A 
HETATM    8  C   UNL     1     -43.447  61.075 -49.404  1.00  0.00     0.030 A 
HETATM    9  S   UNL     1     -43.663  59.595 -52.998  1.00  0.00    -0.062 SA
HETATM   10  C   UNL     1     -42.242  58.979 -52.257  1.00  0.00     0.103 A 
HETATM   11  C   UNL     1     -42.111  59.467 -50.968  1.00  0.00     0.062 A 
HETATM   12  N   UNL     1     -41.083  59.146 -50.151  1.00  0.00    -0.397 N 
HETATM   13  C   UNL     1     -46.591  62.687 -50.388  1.00  0.00     0.035 A 
HETATM   14  C   UNL     1     -46.906  63.437 -49.245  1.00  0.00     0.039 A 
HETATM   15  H   UNL     1     -40.406  58.429 -50.424  1.00  0.00     0.156 HD
HETATM   16  H   UNL     1     -41.065  59.370 -49.162  1.00  0.00     0.156 HD
ENDROOT
BRANCH  10  17
HETATM   17  C   UNL     1     -41.361  58.052 -52.953  1.00  0.00     0.279 C 
HETATM   18  N   UNL     1     -41.841  56.767 -53.145  1.00  0.00    -0.263 N 
HETATM   19  H   UNL     1     -42.747  56.458 -52.797  1.00  0.00     0.190 HD
HETATM   20  O   UNL     1     -40.237  58.360 -53.365  1.00  0.00    -0.265 OA
BRANCH  18  21
HETATM   21  N   UNL     1     -41.004  55.798 -53.704  1.00  0.00    -0.267 N 
HETATM   22  C   UNL     1     -41.574  54.647 -54.207  1.00  0.00     0.240 C 
HETATM   23  O   UNL     1     -42.783  54.425 -54.150  1.00  0.00    -0.272 OA
HETATM   24  H   UNL     1     -40.041  56.073 -53.892  1.00  0.00     0.190 HD
BRANCH  22  25
HETATM   25  C   UNL     1     -40.579  53.652 -54.769  1.00  0.00     0.143 C 
BRANCH  25  26
HETATM   26  C   UNL     1     -40.225  52.542 -53.810  1.00  0.00    -0.049 A 
HETATM   27  C   UNL     1     -40.078  52.801 -52.440  1.00  0.00     0.007 A 
HETATM   28  C   UNL     1     -39.772  51.765 -51.555  1.00  0.00     0.001 A 
HETATM   29  C   UNL     1     -39.612  50.464 -52.028  1.00  0.00     0.000 A 
HETATM   30  C   UNL     1     -39.755  50.197 -53.389  1.00  0.00     0.001 A 
HETATM   31  C   UNL     1     -40.060  51.230 -54.276  1.00  0.00     0.007 A 
ENDBRANCH  25  26
ENDBRANCH  22  25
ENDBRANCH  18  21
ENDBRANCH  10  17
BRANCH   1  32
HETATM   32  O   UNL     1     -46.232  64.093 -46.974  1.00  0.00    -0.351 OA
BRANCH  32  33
HETATM   33  C   UNL     1     -46.412  63.320 -45.788  1.00  0.00     0.171 C 
HETATM   34  C   UNL     1     -45.528  63.910 -44.706  1.00  0.00     0.034 C 
ENDBRANCH  32  33
ENDBRANCH   1  32
TORSDOF 6
ENDMDL
MODEL 8
REMARK VINA RESULT:      -7.8      3.724     10.490
REMARK  6 active torsions:
REMARK  status: ('A' for Active; 'I' for Inactive)
REMARK    1  A    between atoms: C_2  and  O_3 
REMARK    2  A    between atoms: O_3  and  C_4 
REMARK    3  A    between atoms: C_13  and  C_14 
REMARK       I    between atoms: C_14  and  N_15 
REMARK    4  A    between atoms: N_15  and  N_16 
REMARK       I    between atoms: N_16  and  C_17 
REMARK    5  A    between atoms: C_17  and  C_18 
REMARK    6  A    between atoms: C_18  and  C_19 
ROOT
HETATM    1  C   UNL     1     -48.083  63.823 -51.389  1.00  0.00     0.069 A 
HETATM    2  C   UNL     1     -47.828  62.509 -51.780  1.00  0.00     0.050 A 
HETATM    3  C   UNL     1     -46.572  61.916 -51.554  1.00  0.00    -0.004 A 
HETATM    4  C   UNL     1     -45.545  62.646 -50.927  1.00  0.00     0.068 A 
HETATM    5  N   UNL     1     -44.331  62.151 -50.667  1.00  0.00    -0.240 NA
HETATM    6  C   UNL     1     -44.128  60.874 -51.046  1.00  0.00     0.111 A 
HETATM    7  C   UNL     1     -45.040  60.043 -51.680  1.00  0.00     0.028 A 
HETATM    8  C   UNL     1     -46.313  60.594 -51.939  1.00  0.00     0.030 A 
HETATM    9  S   UNL     1     -42.634  60.112 -50.760  1.00  0.00    -0.062 SA
HETATM   10  C   UNL     1     -43.152  58.647 -51.490  1.00  0.00     0.103 A 
HETATM   11  C   UNL     1     -44.458  58.758 -51.937  1.00  0.00     0.062 A 
HETATM   12  N   UNL     1     -45.121  57.753 -52.553  1.00  0.00    -0.397 N 
HETATM   13  C   UNL     1     -45.816  63.956 -50.560  1.00  0.00     0.035 A 
HETATM   14  C   UNL     1     -47.067  64.551 -50.782  1.00  0.00     0.039 A 
HETATM   15  H   UNL     1     -44.634  56.892 -52.814  1.00  0.00     0.156 HD
HETATM   16  H   UNL     1     -46.012  57.878 -53.021  1.00  0.00     0.156 HD
ENDROOT
BRANCH  10  17
HETATM   17  C   UNL     1     -42.264  57.498 -51.605  1.00  0.00     0.279 C 
HETATM   18  N   UNL     1     -41.776  56.973 -50.420  1.00  0.00    -0.263 N 
HETATM   19  H   UNL     1     -41.989  57.374 -49.508  1.00  0.00     0.190 HD
HETATM   20  O   UNL     1     -41.941  56.993 -52.686  1.00  0.00    -0.265 OA
BRANCH  18  21
HETATM   21  N   UNL     1     -40.832  55.944 -50.464  1.00  0.00    -0.267 N 
HETATM   22  C   UNL     1     -41.259  54.649 -50.253  1.00  0.00     0.240 C 
HETATM   23  O   UNL     1     -42.429  54.370 -49.992  1.00  0.00    -0.272 OA
HETATM   24  H   UNL     1     -39.915  56.174 -50.844  1.00  0.00     0.190 HD
BRANCH  22  25
HETATM   25  C   UNL     1     -40.155  53.612 -50.299  1.00  0.00     0.143 C 
BRANCH  25  26
HETATM   26  C   UNL     1     -40.087  52.857 -51.603  1.00  0.00    -0.049 A 
HETATM   27  C   UNL     1     -39.605  51.541 -51.643  1.00  0.00     0.007 A 
HETATM   28  C   UNL     1     -39.565  50.840 -52.850  1.00  0.00     0.001 A 
HETATM   29  C   UNL     1     -40.007  51.445 -54.025  1.00  0.00     0.000 A 
HETATM   30  C   UNL     1     -40.488  52.753 -53.996  1.00  0.00     0.001 A 
HETATM   31  C   UNL     1     -40.529  53.456 -52.791  1.00  0.00     0.007 A 
ENDBRANCH  25  26
ENDBRANCH  22  25
ENDBRANCH  18  21
ENDBRANCH  10  17
BRANCH   1  32
HETATM   32  O   UNL     1     -49.346  64.267 -51.656  1.00  0.00    -0.351 OA
BRANCH  32  33
HETATM   33  C   UNL     1     -50.166  63.438 -52.480  1.00  0.00     0.171 C 
HETATM   34  C   UNL     1     -51.410  63.077 -51.690  1.00  0.00     0.034 C 
ENDBRANCH  32  33
ENDBRANCH   1  32
TORSDOF 6
ENDMDL
MODEL 9
REMARK VINA RESULT:      -7.7      3.258     10.802
REMARK  6 active torsions:
REMARK  status: ('A' for Active; 'I' for Inactive)
REMARK    1  A    between atoms: C_2  and  O_3 
REMARK    2  A    between atoms: O_3  and  C_4 
REMARK    3  A    between atoms: C_13  and  C_14 
REMARK       I    between atoms: C_14  and  N_15 
REMARK    4  A    between atoms: N_15  and  N_16 
REMARK       I    between atoms: N_16  and  C_17 
REMARK    5  A    between atoms: C_17  and  C_18 
REMARK    6  A    between atoms: C_18  and  C_19 
ROOT
HETATM    1  C   UNL     1     -47.481  63.352 -50.953  1.00  0.00     0.069 A 
HETATM    2  C   UNL     1     -46.305  62.747 -50.509  1.00  0.00     0.050 A 
HETATM    3  C   UNL     1     -45.737  61.667 -51.208  1.00  0.00    -0.004 A 
HETATM    4  C   UNL     1     -46.353  61.172 -52.373  1.00  0.00     0.068 A 
HETATM    5  N   UNL     1     -45.871  60.158 -53.098  1.00  0.00    -0.240 NA
HETATM    6  C   UNL     1     -44.725  59.611 -52.647  1.00  0.00     0.111 A 
HETATM    7  C   UNL     1     -44.018  59.986 -51.514  1.00  0.00     0.028 A 
HETATM    8  C   UNL     1     -44.552  61.060 -50.771  1.00  0.00     0.030 A 
HETATM    9  S   UNL     1     -43.992  58.325 -53.483  1.00  0.00    -0.062 SA
HETATM   10  C   UNL     1     -42.709  58.214 -52.347  1.00  0.00     0.103 A 
HETATM   11  C   UNL     1     -42.855  59.163 -51.349  1.00  0.00     0.062 A 
HETATM   12  N   UNL     1     -41.988  59.302 -50.322  1.00  0.00    -0.397 N 
HETATM   13  C   UNL     1     -47.530  61.779 -52.787  1.00  0.00     0.035 A 
HETATM   14  C   UNL     1     -48.099  62.858 -52.095  1.00  0.00     0.039 A 
HETATM   15  H   UNL     1     -41.233  58.625 -50.183  1.00  0.00     0.156 HD
HETATM   16  H   UNL     1     -42.173  59.882 -49.510  1.00  0.00     0.156 HD
ENDROOT
BRANCH  10  17
HETATM   17  C   UNL     1     -41.661  57.211 -52.477  1.00  0.00     0.279 C 
HETATM   18  N   UNL     1     -41.689  56.166 -51.568  1.00  0.00    -0.263 N 
HETATM   19  H   UNL     1     -42.378  56.101 -50.821  1.00  0.00     0.190 HD
HETATM   20  O   UNL     1     -40.777  57.257 -53.339  1.00  0.00    -0.265 OA
BRANCH  18  21
HETATM   21  N   UNL     1     -40.649  55.232 -51.565  1.00  0.00    -0.267 N 
HETATM   22  C   UNL     1     -40.913  53.956 -51.113  1.00  0.00     0.240 C 
HETATM   23  O   UNL     1     -42.014  53.619 -50.679  1.00  0.00    -0.272 OA
HETATM   24  H   UNL     1     -39.805  55.479 -52.079  1.00  0.00     0.190 HD
BRANCH  22  25
HETATM   25  C   UNL     1     -39.715  53.028 -51.128  1.00  0.00     0.143 C 
BRANCH  25  26
HETATM   26  C   UNL     1     -39.808  51.935 -52.163  1.00  0.00    -0.049 A 
HETATM   27  C   UNL     1     -39.515  50.605 -51.828  1.00  0.00     0.007 A 
HETATM   28  C   UNL     1     -39.625  49.595 -52.786  1.00  0.00     0.001 A 
HETATM   29  C   UNL     1     -40.030  49.902 -54.083  1.00  0.00     0.000 A 
HETATM   30  C   UNL     1     -40.323  51.221 -54.427  1.00  0.00     0.001 A 
HETATM   31  C   UNL     1     -40.213  52.233 -53.473  1.00  0.00     0.007 A 
ENDBRANCH  25  26
ENDBRANCH  22  25
ENDBRANCH  18  21
ENDBRANCH  10  17
BRANCH   1  32
HETATM   32  O   UNL     1     -47.912  64.397 -50.188  1.00  0.00    -0.351 OA
BRANCH  32  33
HETATM   33  C   UNL     1     -48.901  64.115 -49.198  1.00  0.00     0.171 C 
HETATM   34  C   UNL     1     -48.251  64.253 -47.834  1.00  0.00     0.034 C 
ENDBRANCH  32  33
ENDBRANCH   1  32
TORSDOF 6
ENDMDL
MODEL 10
REMARK VINA RESULT:      -7.7     18.867     22.256
REMARK  6 active torsions:
REMARK  status: ('A' for Active; 'I' for Inactive)
REMARK    1  A    between atoms: C_2  and  O_3 
REMARK    2  A    between atoms: O_3  and  C_4 
REMARK    3  A    between atoms: C_13  and  C_14 
REMARK       I    between atoms: C_14  and  N_15 
REMARK    4  A    between atoms: N_15  and  N_16 
REMARK       I    between atoms: N_16  and  C_17 
REMARK    5  A    between atoms: C_17  and  C_18 
REMARK    6  A    between atoms: C_18  and  C_19 
ROOT
HETATM    1  C   UNL     1     -30.922  37.966 -45.866  1.00  0.00     0.069 A 
HETATM    2  C   UNL     1     -32.072  37.666 -46.596  1.00  0.00     0.050 A 
HETATM    3  C   UNL     1     -32.460  38.455 -47.694  1.00  0.00    -0.004 A 
HETATM    4  C   UNL     1     -31.690  39.570 -48.075  1.00  0.00     0.068 A 
HETATM    5  N   UNL     1     -31.985  40.360 -49.112  1.00  0.00    -0.240 NA
HETATM    6  C   UNL     1     -33.094  40.029 -49.801  1.00  0.00     0.111 A 
HETATM    7  C   UNL     1     -33.950  38.971 -49.534  1.00  0.00     0.028 A 
HETATM    8  C   UNL     1     -33.611  38.154 -48.435  1.00  0.00     0.030 A 
HETATM    9  S   UNL     1     -33.577  40.939 -51.154  1.00  0.00    -0.062 SA
HETATM   10  C   UNL     1     -34.960  39.957 -51.420  1.00  0.00     0.103 A 
HETATM   11  C   UNL     1     -35.031  38.945 -50.476  1.00  0.00     0.062 A 
HETATM   12  N   UNL     1     -36.019  38.023 -50.447  1.00  0.00    -0.397 N 
HETATM   13  C   UNL     1     -30.558  39.858 -47.326  1.00  0.00     0.035 A 
HETATM   14  C   UNL     1     -30.166  39.074 -46.231  1.00  0.00     0.039 A 
HETATM   15  H   UNL     1     -36.827  38.107 -51.069  1.00  0.00     0.156 HD
HETATM   16  H   UNL     1     -36.164  37.385 -49.672  1.00  0.00     0.156 HD
ENDROOT
BRANCH  10  17
HETATM   17  C   UNL     1     -35.895  40.235 -52.502  1.00  0.00     0.279 C 
HETATM   18  N   UNL     1     -35.864  41.514 -53.033  1.00  0.00    -0.263 N 
HETATM   19  H   UNL     1     -35.250  42.245 -52.678  1.00  0.00     0.190 HD
HETATM   20  O   UNL     1     -36.689  39.399 -52.947  1.00  0.00    -0.265 OA
BRANCH  18  21
HETATM   21  N   UNL     1     -36.810  41.880 -53.993  1.00  0.00    -0.267 N 
HETATM   22  C   UNL     1     -36.409  41.974 -55.309  1.00  0.00     0.240 C 
HETATM   23  O   UNL     1     -35.246  41.785 -55.665  1.00  0.00    -0.272 OA
HETATM   24  H   UNL     1     -37.788  41.866 -53.707  1.00  0.00     0.190 HD
BRANCH  22  25
HETATM   25  C   UNL     1     -37.503  42.400 -56.267  1.00  0.00     0.143 C 
BRANCH  25  26
HETATM   26  C   UNL     1     -37.567  41.568 -57.524  1.00  0.00    -0.049 A 
HETATM   27  C   UNL     1     -37.194  42.111 -58.761  1.00  0.00     0.007 A 
HETATM   28  C   UNL     1     -37.234  41.328 -59.916  1.00  0.00     0.001 A 
HETATM   29  C   UNL     1     -37.645  39.999 -59.847  1.00  0.00     0.000 A 
HETATM   30  C   UNL     1     -38.018  39.449 -58.621  1.00  0.00     0.001 A 
HETATM   31  C   UNL     1     -37.979  40.229 -57.465  1.00  0.00     0.007 A 
ENDBRANCH  25  26
ENDBRANCH  22  25
ENDBRANCH  18  21
ENDBRANCH  10  17
BRANCH   1  32
HETATM   32  O   UNL     1     -30.657  37.110 -44.836  1.00  0.00    -0.351 OA
BRANCH  32  33
HETATM   33  C   UNL     1     -30.394  37.691 -43.559  1.00  0.00     0.171 C 
HETATM   34  C   UNL     1     -31.721  37.883 -42.850  1.00  0.00     0.034 C 
ENDBRANCH  32  33
ENDBRANCH   1  32
TORSDOF 6
ENDMDL
