MODEL 1
REMARK VINA RESULT:      -7.1      0.000      0.000
REMARK  5 active torsions:
REMARK  status: ('A' for Active; 'I' for Inactive)
REMARK    1  A    between atoms: C_2  and  C_3 
REMARK    2  A    between atoms: C_3  and  N_4 
REMARK    3  A    between atoms: C_10  and  C_11 
REMARK       I    between atoms: C_11  and  N_12 
REMARK    4  A    between atoms: N_12  and  C_13 
REMARK    5  A    between atoms: C_14  and  O_15 
ROOT
HETATM    1  C   UNL     1     -41.132  55.093 -53.460  1.00  0.00     0.256 C 
HETATM    2  N   UNL     1     -42.178  55.524 -52.677  1.00  0.00    -0.320 N 
HETATM    3  O   UNL     1     -40.572  55.775 -54.314  1.00  0.00    -0.267 OA
HETATM    4  H   UNL     1     -42.462  54.928 -51.914  1.00  0.00     0.169 HD
ENDROOT
BRANCH   1   5
HETATM    5  C   UNL     1     -40.633  53.690 -53.256  1.00  0.00     0.032 A 
HETATM    6  C   UNL     1     -40.205  53.174 -52.028  1.00  0.00     0.017 A 
HETATM    7  C   UNL     1     -39.808  51.832 -51.918  1.00  0.00     0.010 A 
HETATM    8  C   UNL     1     -39.849  50.974 -53.027  1.00  0.00    -0.033 A 
HETATM    9  C   UNL     1     -40.272  51.492 -54.258  1.00  0.00     0.010 A 
HETATM   10  C   UNL     1     -40.655  52.831 -54.368  1.00  0.00     0.017 A 
BRANCH   8  11
HETATM   11  C   UNL     1     -39.449  49.532 -52.905  1.00  0.00     0.268 C 
BRANCH  11  12
HETATM   12  N   UNL     1     -39.430  49.090 -51.495  1.00  0.00    -0.075 N 
HETATM   13  H   UNL     1     -39.380  49.894 -50.857  1.00  0.00     0.274 HD
HETATM   14  H   UNL     1     -40.287  48.572 -51.263  1.00  0.00     0.274 HD
HETATM   15  H   UNL     1     -38.626  48.481 -51.301  1.00  0.00     0.274 HD
ENDBRANCH  11  12
ENDBRANCH   8  11
ENDBRANCH   1   5
BRANCH   2  16
HETATM   16  C   UNL     1     -42.929  56.732 -52.763  1.00  0.00     0.069 A 
HETATM   17  C   UNL     1     -44.100  56.966 -53.502  1.00  0.00     0.092 A 
HETATM   18  C   UNL     1     -44.752  58.205 -53.444  1.00  0.00     0.040 A 
HETATM   19  C   UNL     1     -44.251  59.237 -52.655  1.00  0.00     0.022 A 
HETATM   20  C   UNL     1     -43.092  59.023 -51.923  1.00  0.00     0.013 A 
HETATM   21 BR   UNL     1     -42.396  60.408 -50.840  1.00  0.00    -0.051 Br
HETATM   22  C   UNL     1     -42.437  57.788 -51.974  1.00  0.00     0.051 A 
BRANCH  17  23
HETATM   23  O   UNL     1     -44.730  56.066 -54.311  1.00  0.00    -0.358 OA
HETATM   24  H   UNL     1     -44.315  56.089 -55.198  1.00  0.00     0.218 HD
ENDBRANCH  17  23
ENDBRANCH   2  16
TORSDOF 5
ENDMDL
MODEL 2
REMARK VINA RESULT:      -7.0      1.874      1.931
REMARK  5 active torsions:
REMARK  status: ('A' for Active; 'I' for Inactive)
REMARK    1  A    between atoms: C_2  and  C_3 
REMARK    2  A    between atoms: C_3  and  N_4 
REMARK    3  A    between atoms: C_10  and  C_11 
REMARK       I    between atoms: C_11  and  N_12 
REMARK    4  A    between atoms: N_12  and  C_13 
REMARK    5  A    between atoms: C_14  and  O_15 
ROOT
HETATM    1  C   UNL     1     -41.444  55.035 -51.661  1.00  0.00     0.256 C 
HETATM    2  N   UNL     1     -42.522  55.552 -52.344  1.00  0.00    -0.320 N 
HETATM    3  O   UNL     1     -40.965  55.523 -50.642  1.00  0.00    -0.267 OA
HETATM    4  H   UNL     1     -42.915  54.989 -53.083  1.00  0.00     0.169 HD
ENDROOT
BRANCH   1   5
HETATM    5  C   UNL     1     -40.808  53.783 -52.197  1.00  0.00     0.032 A 
HETATM    6  C   UNL     1     -39.997  52.925 -51.445  1.00  0.00     0.017 A 
HETATM    7  C   UNL     1     -39.490  51.745 -52.013  1.00  0.00     0.010 A 
HETATM    8  C   UNL     1     -39.799  51.389 -53.334  1.00  0.00    -0.033 A 
HETATM    9  C   UNL     1     -40.605  52.250 -54.088  1.00  0.00     0.010 A 
HETATM   10  C   UNL     1     -41.098  53.431 -53.525  1.00  0.00     0.017 A 
BRANCH   8  11
HETATM   11  C   UNL     1     -39.278  50.115 -53.934  1.00  0.00     0.268 C 
BRANCH  11  12
HETATM   12  N   UNL     1     -40.169  49.612 -55.002  1.00  0.00    -0.075 N 
HETATM   13  H   UNL     1     -39.799  48.745 -55.411  1.00  0.00     0.274 HD
HETATM   14  H   UNL     1     -41.101  49.397 -54.628  1.00  0.00     0.274 HD
HETATM   15  H   UNL     1     -40.276  50.299 -55.757  1.00  0.00     0.274 HD
ENDBRANCH  11  12
ENDBRANCH   8  11
ENDBRANCH   1   5
BRANCH   2  16
HETATM   16  C   UNL     1     -43.206  56.785 -52.146  1.00  0.00     0.069 A 
HETATM   17  C   UNL     1     -44.305  57.035 -51.309  1.00  0.00     0.092 A 
HETATM   18  C   UNL     1     -44.839  58.325 -51.187  1.00  0.00     0.040 A 
HETATM   19  C   UNL     1     -44.292  59.391 -51.895  1.00  0.00     0.022 A 
HETATM   20  C   UNL     1     -43.209  59.160 -52.730  1.00  0.00     0.013 A 
HETATM   21 BR   UNL     1     -42.446  60.594 -53.699  1.00  0.00    -0.051 Br
HETATM   22  C   UNL     1     -42.669  57.876 -52.856  1.00  0.00     0.051 A 
BRANCH  17  23
HETATM   23  O   UNL     1     -44.950  56.113 -50.538  1.00  0.00    -0.358 OA
HETATM   24  H   UNL     1     -44.732  55.215 -50.864  1.00  0.00     0.218 HD
ENDBRANCH  17  23
ENDBRANCH   2  16
TORSDOF 5
ENDMDL
MODEL 3
REMARK VINA RESULT:      -6.9      3.479      4.022
REMARK  5 active torsions:
REMARK  status: ('A' for Active; 'I' for Inactive)
REMARK    1  A    between atoms: C_2  and  C_3 
REMARK    2  A    between atoms: C_3  and  N_4 
REMARK    3  A    between atoms: C_10  and  C_11 
REMARK       I    between atoms: C_11  and  N_12 
REMARK    4  A    between atoms: N_12  and  C_13 
REMARK    5  A    between atoms: C_14  and  O_15 
ROOT
HETATM    1  C   UNL     1     -40.989  54.938 -54.491  1.00  0.00     0.256 C 
HETATM    2  N   UNL     1     -42.166  54.932 -55.205  1.00  0.00    -0.320 N 
HETATM    3  O   UNL     1     -40.219  55.893 -54.422  1.00  0.00    -0.267 OA
HETATM    4  H   UNL     1     -42.783  54.145 -55.072  1.00  0.00     0.169 HD
ENDROOT
BRANCH   1   5
HETATM    5  C   UNL     1     -40.617  53.692 -53.738  1.00  0.00     0.032 A 
HETATM    6  C   UNL     1     -40.235  52.488 -54.341  1.00  0.00     0.017 A 
HETATM    7  C   UNL     1     -39.850  51.389 -53.557  1.00  0.00     0.010 A 
HETATM    8  C   UNL     1     -39.819  51.476 -52.157  1.00  0.00    -0.033 A 
HETATM    9  C   UNL     1     -40.206  52.678 -51.553  1.00  0.00     0.010 A 
HETATM   10  C   UNL     1     -40.603  53.767 -52.335  1.00  0.00     0.017 A 
BRANCH   8  11
HETATM   11  C   UNL     1     -39.382  50.310 -51.319  1.00  0.00     0.268 C 
BRANCH  11  12
HETATM   12  N   UNL     1     -39.473  49.037 -52.067  1.00  0.00    -0.075 N 
HETATM   13  H   UNL     1     -39.379  49.197 -53.078  1.00  0.00     0.274 HD
HETATM   14  H   UNL     1     -38.718  48.397 -51.790  1.00  0.00     0.274 HD
HETATM   15  H   UNL     1     -40.369  48.566 -51.902  1.00  0.00     0.274 HD
ENDBRANCH  11  12
ENDBRANCH   8  11
ENDBRANCH   1   5
BRANCH   2  16
HETATM   16  C   UNL     1     -42.674  55.906 -56.110  1.00  0.00     0.069 A 
HETATM   17  C   UNL     1     -42.791  57.291 -55.908  1.00  0.00     0.092 A 
HETATM   18  C   UNL     1     -43.272  58.128 -56.924  1.00  0.00     0.040 A 
HETATM   19  C   UNL     1     -43.648  57.606 -58.159  1.00  0.00     0.022 A 
HETATM   20  C   UNL     1     -43.543  56.240 -58.372  1.00  0.00     0.013 A 
HETATM   21 BR   UNL     1     -44.044  55.509 -60.043  1.00  0.00    -0.051 Br
HETATM   22  C   UNL     1     -43.063  55.398 -57.364  1.00  0.00     0.051 A 
BRANCH  17  23
HETATM   23  O   UNL     1     -42.456  57.965 -54.771  1.00  0.00    -0.358 OA
HETATM   24  H   UNL     1     -41.944  57.370 -54.186  1.00  0.00     0.218 HD
ENDBRANCH  17  23
ENDBRANCH   2  16
TORSDOF 5
ENDMDL
MODEL 4
REMARK VINA RESULT:      -6.9      1.401      2.070
REMARK  5 active torsions:
REMARK  status: ('A' for Active; 'I' for Inactive)
REMARK    1  A    between atoms: C_2  and  C_3 
REMARK    2  A    between atoms: C_3  and  N_4 
REMARK    3  A    between atoms: C_10  and  C_11 
REMARK       I    between atoms: C_11  and  N_12 
REMARK    4  A    between atoms: N_12  and  C_13 
REMARK    5  A    between atoms: C_14  and  O_15 
ROOT
HETATM    1  C   UNL     1     -41.445  55.313 -53.479  1.00  0.00     0.256 C 
HETATM    2  N   UNL     1     -41.175  56.247 -52.504  1.00  0.00    -0.320 N 
HETATM    3  O   UNL     1     -42.122  55.526 -54.481  1.00  0.00    -0.267 OA
HETATM    4  H   UNL     1     -40.494  56.001 -51.803  1.00  0.00     0.169 HD
ENDROOT
BRANCH   1   5
HETATM    5  C   UNL     1     -40.869  53.936 -53.310  1.00  0.00     0.032 A 
HETATM    6  C   UNL     1     -40.378  53.427 -52.102  1.00  0.00     0.017 A 
HETATM    7  C   UNL     1     -39.910  52.105 -52.023  1.00  0.00     0.010 A 
HETATM    8  C   UNL     1     -39.940  51.261 -53.143  1.00  0.00    -0.033 A 
HETATM    9  C   UNL     1     -40.426  51.771 -54.353  1.00  0.00     0.010 A 
HETATM   10  C   UNL     1     -40.880  53.091 -54.433  1.00  0.00     0.017 A 
BRANCH   8  11
HETATM   11  C   UNL     1     -39.463  49.840 -53.054  1.00  0.00     0.268 C 
BRANCH  11  12
HETATM   12  N   UNL     1     -39.533  49.328 -51.668  1.00  0.00    -0.075 N 
HETATM   13  H   UNL     1     -39.951  50.025 -51.039  1.00  0.00     0.274 HD
HETATM   14  H   UNL     1     -40.119  48.486 -51.620  1.00  0.00     0.274 HD
HETATM   15  H   UNL     1     -38.602  49.093 -51.306  1.00  0.00     0.274 HD
ENDBRANCH  11  12
ENDBRANCH   8  11
ENDBRANCH   1   5
BRANCH   2  16
HETATM   16  C   UNL     1     -41.708  57.558 -52.342  1.00  0.00     0.069 A 
HETATM   17  C   UNL     1     -41.107  58.780 -52.684  1.00  0.00     0.092 A 
HETATM   18  C   UNL     1     -41.786  59.992 -52.504  1.00  0.00     0.040 A 
HETATM   19  C   UNL     1     -43.075  60.014 -51.977  1.00  0.00     0.022 A 
HETATM   20  C   UNL     1     -43.680  58.816 -51.629  1.00  0.00     0.013 A 
HETATM   21 BR   UNL     1     -45.432  58.821 -50.917  1.00  0.00    -0.051 Br
HETATM   22  C   UNL     1     -43.010  57.602 -51.808  1.00  0.00     0.051 A 
BRANCH  17  23
HETATM   23  O   UNL     1     -39.863  58.937 -53.221  1.00  0.00    -0.358 OA
HETATM   24  H   UNL     1     -39.482  58.055 -53.410  1.00  0.00     0.218 HD
ENDBRANCH  17  23
ENDBRANCH   2  16
TORSDOF 5
ENDMDL
MODEL 5
REMARK VINA RESULT:      -6.6      1.311      1.536
REMARK  5 active torsions:
REMARK  status: ('A' for Active; 'I' for Inactive)
REMARK    1  A    between atoms: C_2  and  C_3 
REMARK    2  A    between atoms: C_3  and  N_4 
REMARK    3  A    between atoms: C_10  and  C_11 
REMARK       I    between atoms: C_11  and  N_12 
REMARK    4  A    between atoms: N_12  and  C_13 
REMARK    5  A    between atoms: C_14  and  O_15 
ROOT
HETATM    1  C   UNL     1     -41.341  55.106 -53.636  1.00  0.00     0.256 C 
HETATM    2  N   UNL     1     -42.568  55.559 -53.205  1.00  0.00    -0.320 N 
HETATM    3  O   UNL     1     -40.682  55.624 -54.532  1.00  0.00    -0.267 OA
HETATM    4  H   UNL     1     -42.948  55.141 -52.369  1.00  0.00     0.169 HD
ENDROOT
BRANCH   1   5
HETATM    5  C   UNL     1     -40.764  53.894 -52.961  1.00  0.00     0.032 A 
HETATM    6  C   UNL     1     -40.647  53.741 -51.574  1.00  0.00     0.017 A 
HETATM    7  C   UNL     1     -40.146  52.548 -51.029  1.00  0.00     0.010 A 
HETATM    8  C   UNL     1     -39.771  51.478 -51.854  1.00  0.00    -0.033 A 
HETATM    9  C   UNL     1     -39.883  51.632 -53.242  1.00  0.00     0.010 A 
HETATM   10  C   UNL     1     -40.369  52.825 -53.784  1.00  0.00     0.017 A 
BRANCH   8  11
HETATM   11  C   UNL     1     -39.260  50.193 -51.271  1.00  0.00     0.268 C 
BRANCH  11  12
HETATM   12  N   UNL     1     -39.478  49.053 -52.188  1.00  0.00    -0.075 N 
HETATM   13  H   UNL     1     -40.457  49.012 -52.496  1.00  0.00     0.274 HD
HETATM   14  H   UNL     1     -38.898  49.148 -53.031  1.00  0.00     0.274 HD
HETATM   15  H   UNL     1     -39.248  48.159 -51.740  1.00  0.00     0.274 HD
ENDBRANCH  11  12
ENDBRANCH   8  11
ENDBRANCH   1   5
BRANCH   2  16
HETATM   16  C   UNL     1     -43.397  56.576 -53.759  1.00  0.00     0.069 A 
HETATM   17  C   UNL     1     -43.826  56.706 -55.089  1.00  0.00     0.092 A 
HETATM   18  C   UNL     1     -44.686  57.746 -55.469  1.00  0.00     0.040 A 
HETATM   19  C   UNL     1     -45.133  58.678 -54.536  1.00  0.00     0.022 A 
HETATM   20  C   UNL     1     -44.713  58.565 -53.219  1.00  0.00     0.013 A 
HETATM   21 BR   UNL     1     -45.311  59.817 -51.933  1.00  0.00    -0.051 Br
HETATM   22  C   UNL     1     -43.857  57.530 -52.831  1.00  0.00     0.051 A 
BRANCH  17  23
HETATM   23  O   UNL     1     -43.498  55.878 -56.121  1.00  0.00    -0.358 OA
HETATM   24  H   UNL     1     -43.695  54.954 -55.864  1.00  0.00     0.218 HD
ENDBRANCH  17  23
ENDBRANCH   2  16
TORSDOF 5
ENDMDL
MODEL 6
REMARK VINA RESULT:      -6.6      4.307      4.833
REMARK  5 active torsions:
REMARK  status: ('A' for Active; 'I' for Inactive)
REMARK    1  A    between atoms: C_2  and  C_3 
REMARK    2  A    between atoms: C_3  and  N_4 
REMARK    3  A    between atoms: C_10  and  C_11 
REMARK       I    between atoms: C_11  and  N_12 
REMARK    4  A    between atoms: N_12  and  C_13 
REMARK    5  A    between atoms: C_14  and  O_15 
ROOT
HETATM    1  C   UNL     1     -42.874  55.496 -55.682  1.00  0.00     0.256 C 
HETATM    2  N   UNL     1     -42.526  55.400 -57.010  1.00  0.00    -0.320 N 
HETATM    3  O   UNL     1     -43.781  56.200 -55.247  1.00  0.00    -0.267 OA
HETATM    4  H   UNL     1     -41.862  54.684 -57.264  1.00  0.00     0.169 HD
ENDROOT
BRANCH   1   5
HETATM    5  C   UNL     1     -42.093  54.679 -54.691  1.00  0.00     0.032 A 
HETATM    6  C   UNL     1     -42.453  54.509 -53.348  1.00  0.00     0.017 A 
HETATM    7  C   UNL     1     -41.693  53.681 -52.507  1.00  0.00     0.010 A 
HETATM    8  C   UNL     1     -40.572  52.992 -52.992  1.00  0.00    -0.033 A 
HETATM    9  C   UNL     1     -40.209  53.166 -54.333  1.00  0.00     0.010 A 
HETATM   10  C   UNL     1     -40.959  54.001 -55.167  1.00  0.00     0.017 A 
BRANCH   8  11
HETATM   11  C   UNL     1     -39.774  52.086 -52.100  1.00  0.00     0.268 C 
BRANCH  11  12
HETATM   12  N   UNL     1     -40.215  52.183 -50.691  1.00  0.00    -0.075 N 
HETATM   13  H   UNL     1     -40.821  51.393 -50.440  1.00  0.00     0.274 HD
HETATM   14  H   UNL     1     -39.408  52.161 -50.055  1.00  0.00     0.274 HD
HETATM   15  H   UNL     1     -40.736  53.050 -50.518  1.00  0.00     0.274 HD
ENDBRANCH  11  12
ENDBRANCH   8  11
ENDBRANCH   1   5
BRANCH   2  16
HETATM   16  C   UNL     1     -42.992  56.162 -58.120  1.00  0.00     0.069 A 
HETATM   17  C   UNL     1     -43.924  55.777 -59.097  1.00  0.00     0.092 A 
HETATM   18  C   UNL     1     -44.317  56.667 -60.106  1.00  0.00     0.040 A 
HETATM   19  C   UNL     1     -43.789  57.954 -60.166  1.00  0.00     0.022 A 
HETATM   20  C   UNL     1     -42.863  58.346 -59.211  1.00  0.00     0.013 A 
HETATM   21 BR   UNL     1     -42.137  60.092 -59.269  1.00  0.00    -0.051 Br
HETATM   22  C   UNL     1     -42.468  57.466 -58.199  1.00  0.00     0.051 A 
BRANCH  17  23
HETATM   23  O   UNL     1     -44.546  54.566 -59.178  1.00  0.00    -0.358 OA
HETATM   24  H   UNL     1     -45.098  54.544 -59.986  1.00  0.00     0.218 HD
ENDBRANCH  17  23
ENDBRANCH   2  16
TORSDOF 5
ENDMDL
MODEL 7
REMARK VINA RESULT:      -6.6      4.382      7.430
REMARK  5 active torsions:
REMARK  status: ('A' for Active; 'I' for Inactive)
REMARK    1  A    between atoms: C_2  and  C_3 
REMARK    2  A    between atoms: C_3  and  N_4 
REMARK    3  A    between atoms: C_10  and  C_11 
REMARK       I    between atoms: C_11  and  N_12 
REMARK    4  A    between atoms: N_12  and  C_13 
REMARK    5  A    between atoms: C_14  and  O_15 
ROOT
HETATM    1  C   UNL     1     -42.690  55.212 -54.777  1.00  0.00     0.256 C 
HETATM    2  N   UNL     1     -41.437  54.641 -54.765  1.00  0.00    -0.320 N 
HETATM    3  O   UNL     1     -43.489  55.162 -53.846  1.00  0.00    -0.267 OA
HETATM    4  H   UNL     1     -40.818  54.868 -55.527  1.00  0.00     0.169 HD
ENDROOT
BRANCH   1   5
HETATM    5  C   UNL     1     -43.111  55.954 -56.014  1.00  0.00     0.032 A 
HETATM    6  C   UNL     1     -43.585  57.271 -56.024  1.00  0.00     0.017 A 
HETATM    7  C   UNL     1     -43.903  57.905 -57.235  1.00  0.00     0.010 A 
HETATM    8  C   UNL     1     -43.737  57.244 -58.462  1.00  0.00    -0.033 A 
HETATM    9  C   UNL     1     -43.269  55.924 -58.452  1.00  0.00     0.010 A 
HETATM   10  C   UNL     1     -42.965  55.290 -57.244  1.00  0.00     0.017 A 
BRANCH   8  11
HETATM   11  C   UNL     1     -44.053  57.929 -59.759  1.00  0.00     0.268 C 
BRANCH  11  12
HETATM   12  N   UNL     1     -44.586  56.981 -60.760  1.00  0.00    -0.075 N 
HETATM   13  H   UNL     1     -45.612  56.954 -60.732  1.00  0.00     0.274 HD
HETATM   14  H   UNL     1     -44.316  57.264 -61.711  1.00  0.00     0.274 HD
HETATM   15  H   UNL     1     -44.239  56.028 -60.599  1.00  0.00     0.274 HD
ENDBRANCH  11  12
ENDBRANCH   8  11
ENDBRANCH   1   5
BRANCH   2  16
HETATM   16  C   UNL     1     -40.854  53.772 -53.798  1.00  0.00     0.069 A 
HETATM   17  C   UNL     1     -40.659  54.014 -52.430  1.00  0.00     0.092 A 
HETATM   18  C   UNL     1     -40.110  53.031 -51.595  1.00  0.00     0.040 A 
HETATM   19  C   UNL     1     -39.742  51.789 -52.106  1.00  0.00     0.022 A 
HETATM   20  C   UNL     1     -39.924  51.536 -53.457  1.00  0.00     0.013 A 
HETATM   21 BR   UNL     1     -39.436  49.854 -54.172  1.00  0.00    -0.051 Br
HETATM   22  C   UNL     1     -40.473  52.511 -54.296  1.00  0.00     0.051 A 
BRANCH  17  23
HETATM   23  O   UNL     1     -40.975  55.164 -51.767  1.00  0.00    -0.358 OA
HETATM   24  H   UNL     1     -41.388  54.935 -50.909  1.00  0.00     0.218 HD
ENDBRANCH  17  23
ENDBRANCH   2  16
TORSDOF 5
ENDMDL
MODEL 8
REMARK VINA RESULT:      -6.6      4.469      5.079
REMARK  5 active torsions:
REMARK  status: ('A' for Active; 'I' for Inactive)
REMARK    1  A    between atoms: C_2  and  C_3 
REMARK    2  A    between atoms: C_3  and  N_4 
REMARK    3  A    between atoms: C_10  and  C_11 
REMARK       I    between atoms: C_11  and  N_12 
REMARK    4  A    between atoms: N_12  and  C_13 
REMARK    5  A    between atoms: C_14  and  O_15 
ROOT
HETATM    1  C   UNL     1     -42.745  55.453 -55.273  1.00  0.00     0.256 C 
HETATM    2  N   UNL     1     -42.364  55.470 -56.596  1.00  0.00    -0.320 N 
HETATM    3  O   UNL     1     -43.721  56.044 -54.820  1.00  0.00    -0.267 OA
HETATM    4  H   UNL     1     -41.632  54.835 -56.875  1.00  0.00     0.169 HD
ENDROOT
BRANCH   1   5
HETATM    5  C   UNL     1     -41.910  54.654 -54.312  1.00  0.00     0.032 A 
HETATM    6  C   UNL     1     -41.960  54.790 -52.920  1.00  0.00     0.017 A 
HETATM    7  C   UNL     1     -41.184  53.960 -52.095  1.00  0.00     0.010 A 
HETATM    8  C   UNL     1     -40.359  52.966 -52.642  1.00  0.00    -0.033 A 
HETATM    9  C   UNL     1     -40.305  52.834 -54.035  1.00  0.00     0.010 A 
HETATM   10  C   UNL     1     -41.068  53.670 -54.855  1.00  0.00     0.017 A 
BRANCH   8  11
HETATM   11  C   UNL     1     -39.548  52.062 -51.760  1.00  0.00     0.268 C 
BRANCH  11  12
HETATM   12  N   UNL     1     -40.259  51.746 -50.503  1.00  0.00    -0.075 N 
HETATM   13  H   UNL     1     -40.688  50.814 -50.547  1.00  0.00     0.274 HD
HETATM   14  H   UNL     1     -39.609  51.743 -49.707  1.00  0.00     0.274 HD
HETATM   15  H   UNL     1     -41.001  52.428 -50.308  1.00  0.00     0.274 HD
ENDBRANCH  11  12
ENDBRANCH   8  11
ENDBRANCH   1   5
BRANCH   2  16
HETATM   16  C   UNL     1     -42.878  56.251 -57.670  1.00  0.00     0.069 A 
HETATM   17  C   UNL     1     -42.740  57.633 -57.872  1.00  0.00     0.092 A 
HETATM   18  C   UNL     1     -43.269  58.250 -59.014  1.00  0.00     0.040 A 
HETATM   19  C   UNL     1     -43.947  57.507 -59.976  1.00  0.00     0.022 A 
HETATM   20  C   UNL     1     -44.096  56.141 -59.788  1.00  0.00     0.013 A 
HETATM   21 BR   UNL     1     -45.010  55.109 -61.083  1.00  0.00    -0.051 Br
HETATM   22  C   UNL     1     -43.570  55.517 -58.652  1.00  0.00     0.051 A 
BRANCH  17  23
HETATM   23  O   UNL     1     -42.096  58.503 -57.042  1.00  0.00    -0.358 OA
HETATM   24  H   UNL     1     -42.203  59.413 -57.389  1.00  0.00     0.218 HD
ENDBRANCH  17  23
ENDBRANCH   2  16
TORSDOF 5
ENDMDL
MODEL 9
REMARK VINA RESULT:      -6.5      2.226      2.756
REMARK  5 active torsions:
REMARK  status: ('A' for Active; 'I' for Inactive)
REMARK    1  A    between atoms: C_2  and  C_3 
REMARK    2  A    between atoms: C_3  and  N_4 
REMARK    3  A    between atoms: C_10  and  C_11 
REMARK       I    between atoms: C_11  and  N_12 
REMARK    4  A    between atoms: N_12  and  C_13 
REMARK    5  A    between atoms: C_14  and  O_15 
ROOT
HETATM    1  C   UNL     1     -41.192  55.214 -54.089  1.00  0.00     0.256 C 
HETATM    2  N   UNL     1     -42.443  55.265 -54.660  1.00  0.00    -0.320 N 
HETATM    3  O   UNL     1     -40.410  56.159 -54.034  1.00  0.00    -0.267 OA
HETATM    4  H   UNL     1     -43.049  54.471 -54.520  1.00  0.00     0.169 HD
ENDROOT
BRANCH   1   5
HETATM    5  C   UNL     1     -40.748  53.911 -53.485  1.00  0.00     0.032 A 
HETATM    6  C   UNL     1     -40.406  52.773 -54.224  1.00  0.00     0.017 A 
HETATM    7  C   UNL     1     -39.947  51.614 -53.577  1.00  0.00     0.010 A 
HETATM    8  C   UNL     1     -39.803  51.575 -52.182  1.00  0.00    -0.033 A 
HETATM    9  C   UNL     1     -40.151  52.712 -51.442  1.00  0.00     0.010 A 
HETATM   10  C   UNL     1     -40.620  53.860 -52.086  1.00  0.00     0.017 A 
BRANCH   8  11
HETATM   11  C   UNL     1     -39.289  50.346 -51.491  1.00  0.00     0.268 C 
BRANCH  11  12
HETATM   12  N   UNL     1     -39.517  49.130 -52.302  1.00  0.00    -0.075 N 
HETATM   13  H   UNL     1     -39.275  49.294 -53.287  1.00  0.00     0.274 HD
HETATM   14  H   UNL     1     -38.928  48.356 -51.970  1.00  0.00     0.274 HD
HETATM   15  H   UNL     1     -40.497  48.828 -52.261  1.00  0.00     0.274 HD
ENDBRANCH  11  12
ENDBRANCH   8  11
ENDBRANCH   1   5
BRANCH   2  16
HETATM   16  C   UNL     1     -43.043  56.309 -55.421  1.00  0.00     0.069 A 
HETATM   17  C   UNL     1     -43.104  56.429 -56.819  1.00  0.00     0.092 A 
HETATM   18  C   UNL     1     -43.777  57.501 -57.420  1.00  0.00     0.040 A 
HETATM   19  C   UNL     1     -44.400  58.475 -56.645  1.00  0.00     0.022 A 
HETATM   20  C   UNL     1     -44.344  58.373 -55.263  1.00  0.00     0.013 A 
HETATM   21 BR   UNL     1     -45.187  59.683 -54.190  1.00  0.00    -0.051 Br
HETATM   22  C   UNL     1     -43.676  57.305 -54.655  1.00  0.00     0.051 A 
BRANCH  17  23
HETATM   23  O   UNL     1     -42.563  55.561 -57.722  1.00  0.00    -0.358 OA
HETATM   24  H   UNL     1     -42.055  54.876 -57.241  1.00  0.00     0.218 HD
ENDBRANCH  17  23
ENDBRANCH   2  16
TORSDOF 5
ENDMDL
MODEL 10
REMARK VINA RESULT:      -6.4      2.531      2.931
REMARK  5 active torsions:
REMARK  status: ('A' for Active; 'I' for Inactive)
REMARK    1  A    between atoms: C_2  and  C_3 
REMARK    2  A    between atoms: C_3  and  N_4 
REMARK    3  A    between atoms: C_10  and  C_11 
REMARK       I    between atoms: C_11  and  N_12 
REMARK    4  A    between atoms: N_12  and  C_13 
REMARK    5  A    between atoms: C_14  and  O_15 
ROOT
HETATM    1  C   UNL     1     -41.325  55.911 -52.984  1.00  0.00     0.256 C 
HETATM    2  N   UNL     1     -41.759  56.460 -54.170  1.00  0.00    -0.320 N 
HETATM    3  O   UNL     1     -41.339  56.489 -51.901  1.00  0.00    -0.267 OA
HETATM    4  H   UNL     1     -41.833  55.845 -54.965  1.00  0.00     0.169 HD
ENDROOT
BRANCH   1   5
HETATM    5  C   UNL     1     -40.799  54.504 -53.013  1.00  0.00     0.032 A 
HETATM    6  C   UNL     1     -40.453  53.765 -51.876  1.00  0.00     0.017 A 
HETATM    7  C   UNL     1     -40.022  52.434 -51.994  1.00  0.00     0.010 A 
HETATM    8  C   UNL     1     -39.946  51.808 -53.247  1.00  0.00    -0.033 A 
HETATM    9  C   UNL     1     -40.286  52.549 -54.386  1.00  0.00     0.010 A 
HETATM   10  C   UNL     1     -40.702  53.878 -54.268  1.00  0.00     0.017 A 
BRANCH   8  11
HETATM   11  C   UNL     1     -39.510  50.378 -53.372  1.00  0.00     0.268 C 
BRANCH  11  12
HETATM   12  N   UNL     1     -39.761  49.849 -54.730  1.00  0.00    -0.075 N 
HETATM   13  H   UNL     1     -39.037  49.173 -55.002  1.00  0.00     0.274 HD
HETATM   14  H   UNL     1     -40.664  49.358 -54.769  1.00  0.00     0.274 HD
HETATM   15  H   UNL     1     -39.774  50.599 -55.431  1.00  0.00     0.274 HD
ENDBRANCH  11  12
ENDBRANCH   8  11
ENDBRANCH   1   5
BRANCH   2  16
HETATM   16  C   UNL     1     -42.157  57.799 -54.448  1.00  0.00     0.069 A 
HETATM   17  C   UNL     1     -41.481  58.984 -54.118  1.00  0.00     0.092 A 
HETATM   18  C   UNL     1     -41.985  60.233 -54.509  1.00  0.00     0.040 A 
HETATM   19  C   UNL     1     -43.171  60.328 -55.231  1.00  0.00     0.022 A 
HETATM   20  C   UNL     1     -43.853  59.166 -55.560  1.00  0.00     0.013 A 
HETATM   21 BR   UNL     1     -45.464  59.270 -56.546  1.00  0.00    -0.051 Br
HETATM   22  C   UNL     1     -43.356  57.916 -55.177  1.00  0.00     0.051 A 
BRANCH  17  23
HETATM   23  O   UNL     1     -40.307  59.072 -53.431  1.00  0.00    -0.358 OA
HETATM   24  H   UNL     1     -40.091  60.016 -53.286  1.00  0.00     0.218 HD
ENDBRANCH  17  23
ENDBRANCH   2  16
TORSDOF 5
ENDMDL
