MODEL 1
REMARK VINA RESULT:      -8.5      0.000      0.000
REMARK  7 active torsions:
REMARK  status: ('A' for Active; 'I' for Inactive)
REMARK    1  A    between atoms: C_3  and  N_4 
REMARK    2  A    between atoms: N_7  and  C_9 
REMARK    3  A    between atoms: N_12  and  C_13 
REMARK    4  A    between atoms: C_16  and  C_17 
REMARK       I    between atoms: C_17  and  N_18 
REMARK    5  A    between atoms: C_20  and  C_21 
REMARK    6  A    between atoms: C_21  and  O_22 
REMARK    7  A    between atoms: C_33  and  O_34 
ROOT
HETATM    1  C   UNL     1     -42.597  58.159 -54.083  1.00  0.00     0.191 C 
HETATM    2  C   UNL     1     -43.861  58.137 -54.961  1.00  0.00     0.053 C 
HETATM    3  C   UNL     1     -45.088  58.698 -54.246  1.00  0.00     0.125 C 
HETATM    4  N   UNL     1     -44.755  60.020 -53.722  1.00  0.00    -0.381 N 
HETATM    5  C   UNL     1     -43.638  60.093 -52.789  1.00  0.00     0.125 C 
HETATM    6  C   UNL     1     -42.395  59.569 -53.506  1.00  0.00     0.053 C 
ENDROOT
BRANCH   4   7
HETATM    7  C   UNL     1     -45.829  60.901 -53.562  1.00  0.00     0.030 A 
HETATM    8  C   UNL     1     -46.223  61.824 -54.543  1.00  0.00     0.030 A 
HETATM    9  C   UNL     1     -47.335  62.657 -54.358  1.00  0.00     0.019 A 
HETATM   10  C   UNL     1     -48.095  62.551 -53.193  1.00  0.00     0.032 A 
HETATM   11  C   UNL     1     -47.709  61.663 -52.190  1.00  0.00     0.019 A 
HETATM   12  C   UNL     1     -46.590  60.847 -52.381  1.00  0.00     0.030 A 
BRANCH  10  13
HETATM   13  C   UNL     1     -49.268  63.416 -52.944  1.00  0.00     0.253 C 
HETATM   14  N   UNL     1     -50.511  63.079 -53.490  1.00  0.00    -0.348 N 
HETATM   15  C   UNL     1     -50.723  62.010 -54.474  1.00  0.00     0.132 C 
HETATM   16  C   UNL     1     -51.574  64.078 -53.379  1.00  0.00     0.126 C 
HETATM   17  C   UNL     1     -52.118  61.374 -54.379  1.00  0.00     0.027 C 
HETATM   18  C   UNL     1     -53.204  62.456 -54.389  1.00  0.00     0.010 C 
HETATM   19  C   UNL     1     -52.957  63.449 -53.260  1.00  0.00     0.020 C 
HETATM   20  O   UNL     1     -49.082  64.393 -52.220  1.00  0.00    -0.267 OA
BRANCH  17  21
HETATM   21  C   UNL     1     -52.326  60.347 -55.495  1.00  0.00     0.170 C 
BRANCH  21  22
HETATM   22  O   UNL     1     -52.929  59.156 -55.006  1.00  0.00    -0.400 OA
HETATM   23  H   UNL     1     -53.247  59.338 -54.104  1.00  0.00     0.209 HD
ENDBRANCH  21  22
ENDBRANCH  17  21
ENDBRANCH  10  13
ENDBRANCH   4   7
BRANCH   1  24
HETATM   24  N   UNL     1     -42.637  57.061 -52.995  1.00  0.00    -0.064 N 
HETATM   25  C   UNL     1     -43.126  55.708 -53.571  1.00  0.00     0.255 C 
HETATM   26  C   UNL     1     -43.218  54.634 -52.471  1.00  0.00     0.150 C 
HETATM   27  N   UNL     1     -41.924  54.452 -51.775  1.00  0.00    -0.375 N 
HETATM   28  C   UNL     1     -41.336  55.695 -51.255  1.00  0.00     0.150 C 
HETATM   29  C   UNL     1     -41.279  56.830 -52.303  1.00  0.00     0.255 C 
HETATM   30  H   UNL     1     -43.303  57.338 -52.262  1.00  0.00     0.280 HD
BRANCH  27  31
HETATM   31  C   UNL     1     -41.091  53.469 -52.336  1.00  0.00     0.063 A 
HETATM   32  C   UNL     1     -40.963  53.235 -53.710  1.00  0.00     0.032 A 
HETATM   33  C   UNL     1     -40.149  52.202 -54.199  1.00  0.00     0.002 A 
HETATM   34  C   UNL     1     -39.431  51.391 -53.324  1.00  0.00     0.003 A 
HETATM   35  C   UNL     1     -39.504  51.622 -51.956  1.00  0.00     0.039 A 
HETATM   36  C   UNL     1     -40.307  52.657 -51.487  1.00  0.00     0.092 A 
BRANCH  36  37
HETATM   37  O   UNL     1     -40.264  52.926 -50.142  1.00  0.00    -0.358 OA
HETATM   38  H   UNL     1     -39.701  52.220 -49.776  1.00  0.00     0.218 HD
ENDBRANCH  36  37
ENDBRANCH  27  31
ENDBRANCH   1  24
TORSDOF 7
ENDMDL
MODEL 2
REMARK VINA RESULT:      -8.0      3.751     10.760
REMARK  7 active torsions:
REMARK  status: ('A' for Active; 'I' for Inactive)
REMARK    1  A    between atoms: C_3  and  N_4 
REMARK    2  A    between atoms: N_7  and  C_9 
REMARK    3  A    between atoms: N_12  and  C_13 
REMARK    4  A    between atoms: C_16  and  C_17 
REMARK       I    between atoms: C_17  and  N_18 
REMARK    5  A    between atoms: C_20  and  C_21 
REMARK    6  A    between atoms: C_21  and  O_22 
REMARK    7  A    between atoms: C_33  and  O_34 
ROOT
HETATM    1  C   UNL     1     -44.743  62.070 -53.273  1.00  0.00     0.191 C 
HETATM    2  C   UNL     1     -43.263  61.795 -52.953  1.00  0.00     0.053 C 
HETATM    3  C   UNL     1     -43.079  60.747 -51.858  1.00  0.00     0.125 C 
HETATM    4  N   UNL     1     -43.837  59.553 -52.227  1.00  0.00    -0.381 N 
HETATM    5  C   UNL     1     -45.270  59.723 -52.428  1.00  0.00     0.125 C 
HETATM    6  C   UNL     1     -45.466  60.742 -53.549  1.00  0.00     0.053 C 
ENDROOT
BRANCH   4   7
HETATM    7  C   UNL     1     -43.366  58.346 -51.702  1.00  0.00     0.030 A 
HETATM    8  C   UNL     1     -44.188  57.232 -51.469  1.00  0.00     0.030 A 
HETATM    9  C   UNL     1     -43.665  56.027 -50.983  1.00  0.00     0.019 A 
HETATM   10  C   UNL     1     -42.293  55.907 -50.755  1.00  0.00     0.032 A 
HETATM   11  C   UNL     1     -41.459  57.005 -50.951  1.00  0.00     0.019 A 
HETATM   12  C   UNL     1     -41.994  58.207 -51.423  1.00  0.00     0.030 A 
BRANCH  10  13
HETATM   13  C   UNL     1     -41.695  54.661 -50.230  1.00  0.00     0.253 C 
HETATM   14  N   UNL     1     -41.147  53.724 -51.113  1.00  0.00    -0.348 N 
HETATM   15  C   UNL     1     -41.286  53.782 -52.574  1.00  0.00     0.132 C 
HETATM   16  C   UNL     1     -40.761  52.431 -50.548  1.00  0.00     0.126 C 
HETATM   17  C   UNL     1     -40.099  53.149 -53.315  1.00  0.00     0.027 C 
HETATM   18  C   UNL     1     -39.810  51.745 -52.770  1.00  0.00     0.010 C 
HETATM   19  C   UNL     1     -39.568  51.813 -51.267  1.00  0.00     0.020 C 
HETATM   20  O   UNL     1     -41.682  54.535 -49.007  1.00  0.00    -0.267 OA
BRANCH  17  21
HETATM   21  C   UNL     1     -40.345  53.134 -54.827  1.00  0.00     0.170 C 
BRANCH  21  22
HETATM   22  O   UNL     1     -40.132  54.415 -55.404  1.00  0.00    -0.400 OA
HETATM   23  H   UNL     1     -39.324  54.363 -55.945  1.00  0.00     0.209 HD
ENDBRANCH  21  22
ENDBRANCH  17  21
ENDBRANCH  10  13
ENDBRANCH   4   7
BRANCH   1  24
HETATM   24  N   UNL     1     -45.421  62.908 -52.165  1.00  0.00    -0.064 N 
HETATM   25  C   UNL     1     -46.524  62.101 -51.436  1.00  0.00     0.255 C 
HETATM   26  C   UNL     1     -47.235  62.960 -50.373  1.00  0.00     0.150 C 
HETATM   27  N   UNL     1     -46.276  63.512 -49.388  1.00  0.00    -0.375 N 
HETATM   28  C   UNL     1     -45.145  64.236 -49.986  1.00  0.00     0.150 C 
HETATM   29  C   UNL     1     -44.435  63.443 -51.107  1.00  0.00     0.255 C 
HETATM   30  H   UNL     1     -45.875  63.727 -52.592  1.00  0.00     0.280 HD
BRANCH  27  31
HETATM   31  C   UNL     1     -46.068  62.705 -48.257  1.00  0.00     0.063 A 
HETATM   32  C   UNL     1     -44.913  61.948 -48.032  1.00  0.00     0.032 A 
HETATM   33  C   UNL     1     -44.793  61.124 -46.901  1.00  0.00     0.002 A 
HETATM   34  C   UNL     1     -45.820  61.054 -45.963  1.00  0.00     0.003 A 
HETATM   35  C   UNL     1     -46.963  61.824 -46.137  1.00  0.00     0.039 A 
HETATM   36  C   UNL     1     -47.063  62.644 -47.256  1.00  0.00     0.092 A 
BRANCH  36  37
HETATM   37  O   UNL     1     -48.153  63.473 -47.333  1.00  0.00    -0.358 OA
HETATM   38  H   UNL     1     -48.403  63.624 -46.403  1.00  0.00     0.218 HD
ENDBRANCH  36  37
ENDBRANCH  27  31
ENDBRANCH   1  24
TORSDOF 7
ENDMDL
MODEL 3
REMARK VINA RESULT:      -7.9      4.841     10.799
REMARK  7 active torsions:
REMARK  status: ('A' for Active; 'I' for Inactive)
REMARK    1  A    between atoms: C_3  and  N_4 
REMARK    2  A    between atoms: N_7  and  C_9 
REMARK    3  A    between atoms: N_12  and  C_13 
REMARK    4  A    between atoms: C_16  and  C_17 
REMARK       I    between atoms: C_17  and  N_18 
REMARK    5  A    between atoms: C_20  and  C_21 
REMARK    6  A    between atoms: C_21  and  O_22 
REMARK    7  A    between atoms: C_33  and  O_34 
ROOT
HETATM    1  C   UNL     1     -45.093  62.542 -50.579  1.00  0.00     0.191 C 
HETATM    2  C   UNL     1     -43.584  62.239 -50.601  1.00  0.00     0.053 C 
HETATM    3  C   UNL     1     -43.278  60.771 -50.888  1.00  0.00     0.125 C 
HETATM    4  N   UNL     1     -43.979  60.382 -52.110  1.00  0.00    -0.381 N 
HETATM    5  C   UNL     1     -45.428  60.532 -52.110  1.00  0.00     0.125 C 
HETATM    6  C   UNL     1     -45.745  62.005 -51.862  1.00  0.00     0.053 C 
ENDROOT
BRANCH   4   7
HETATM    7  C   UNL     1     -43.407  59.330 -52.831  1.00  0.00     0.030 A 
HETATM    8  C   UNL     1     -42.079  59.338 -53.286  1.00  0.00     0.030 A 
HETATM    9  C   UNL     1     -41.533  58.241 -53.967  1.00  0.00     0.019 A 
HETATM   10  C   UNL     1     -42.305  57.097 -54.172  1.00  0.00     0.032 A 
HETATM   11  C   UNL     1     -43.635  57.073 -53.756  1.00  0.00     0.019 A 
HETATM   12  C   UNL     1     -44.172  58.178 -53.089  1.00  0.00     0.030 A 
BRANCH  10  13
HETATM   13  C   UNL     1     -41.780  55.920 -54.896  1.00  0.00     0.253 C 
HETATM   14  N   UNL     1     -41.211  54.859 -54.183  1.00  0.00    -0.348 N 
HETATM   15  C   UNL     1     -40.909  54.893 -52.747  1.00  0.00     0.132 C 
HETATM   16  C   UNL     1     -40.530  53.827 -54.965  1.00  0.00     0.126 C 
HETATM   17  C   UNL     1     -40.984  53.509 -52.084  1.00  0.00     0.027 C 
HETATM   18  C   UNL     1     -40.155  52.489 -52.873  1.00  0.00     0.010 C 
HETATM   19  C   UNL     1     -40.624  52.449 -54.322  1.00  0.00     0.020 C 
HETATM   20  O   UNL     1     -41.911  55.929 -56.119  1.00  0.00    -0.267 OA
BRANCH  17  21
HETATM   21  C   UNL     1     -40.552  53.583 -50.617  1.00  0.00     0.170 C 
BRANCH  21  22
HETATM   22  O   UNL     1     -40.402  52.288 -50.049  1.00  0.00    -0.400 OA
HETATM   23  H   UNL     1     -41.175  51.759 -50.317  1.00  0.00     0.209 HD
ENDBRANCH  21  22
ENDBRANCH  17  21
ENDBRANCH  10  13
ENDBRANCH   4   7
BRANCH   1  24
HETATM   24  N   UNL     1     -45.763  62.008 -49.291  1.00  0.00    -0.064 N 
HETATM   25  C   UNL     1     -44.739  61.300 -48.369  1.00  0.00     0.255 C 
HETATM   26  C   UNL     1     -45.423  60.720 -47.116  1.00  0.00     0.150 C 
HETATM   27  N   UNL     1     -46.151  61.764 -46.359  1.00  0.00    -0.375 N 
HETATM   28  C   UNL     1     -47.097  62.547 -47.167  1.00  0.00     0.150 C 
HETATM   29  C   UNL     1     -46.478  63.099 -48.472  1.00  0.00     0.255 C 
HETATM   30  H   UNL     1     -46.474  61.310 -49.547  1.00  0.00     0.280 HD
BRANCH  27  31
HETATM   31  C   UNL     1     -45.393  62.400 -45.362  1.00  0.00     0.063 A 
HETATM   32  C   UNL     1     -45.395  63.780 -45.131  1.00  0.00     0.032 A 
HETATM   33  C   UNL     1     -44.575  64.354 -44.147  1.00  0.00     0.002 A 
HETATM   34  C   UNL     1     -43.745  63.557 -43.363  1.00  0.00     0.003 A 
HETATM   35  C   UNL     1     -43.749  62.179 -43.540  1.00  0.00     0.039 A 
HETATM   36  C   UNL     1     -44.576  61.624 -44.511  1.00  0.00     0.092 A 
BRANCH  36  37
HETATM   37  O   UNL     1     -44.636  60.255 -44.577  1.00  0.00    -0.358 OA
HETATM   38  H   UNL     1     -45.510  60.036 -44.204  1.00  0.00     0.218 HD
ENDBRANCH  36  37
ENDBRANCH  27  31
ENDBRANCH   1  24
TORSDOF 7
ENDMDL
MODEL 4
REMARK VINA RESULT:      -7.8      4.762     10.707
REMARK  7 active torsions:
REMARK  status: ('A' for Active; 'I' for Inactive)
REMARK    1  A    between atoms: C_3  and  N_4 
REMARK    2  A    between atoms: N_7  and  C_9 
REMARK    3  A    between atoms: N_12  and  C_13 
REMARK    4  A    between atoms: C_16  and  C_17 
REMARK       I    between atoms: C_17  and  N_18 
REMARK    5  A    between atoms: C_20  and  C_21 
REMARK    6  A    between atoms: C_21  and  O_22 
REMARK    7  A    between atoms: C_33  and  O_34 
ROOT
HETATM    1  C   UNL     1     -43.056  60.252 -54.142  1.00  0.00     0.191 C 
HETATM    2  C   UNL     1     -43.467  59.919 -52.697  1.00  0.00     0.053 C 
HETATM    3  C   UNL     1     -43.448  58.421 -52.405  1.00  0.00     0.125 C 
HETATM    4  N   UNL     1     -42.140  57.892 -52.785  1.00  0.00    -0.381 N 
HETATM    5  C   UNL     1     -41.739  58.069 -54.175  1.00  0.00     0.125 C 
HETATM    6  C   UNL     1     -41.719  59.568 -54.467  1.00  0.00     0.053 C 
ENDROOT
BRANCH   4   7
HETATM    7  C   UNL     1     -41.725  56.745 -52.103  1.00  0.00     0.030 A 
HETATM    8  C   UNL     1     -40.966  56.781 -50.922  1.00  0.00     0.030 A 
HETATM    9  C   UNL     1     -40.610  55.606 -50.246  1.00  0.00     0.019 A 
HETATM   10  C   UNL     1     -41.043  54.370 -50.727  1.00  0.00     0.032 A 
HETATM   11  C   UNL     1     -41.773  54.303 -51.912  1.00  0.00     0.019 A 
HETATM   12  C   UNL     1     -42.111  55.481 -52.585  1.00  0.00     0.030 A 
BRANCH  10  13
HETATM   13  C   UNL     1     -40.683  53.102 -50.058  1.00  0.00     0.253 C 
HETATM   14  N   UNL     1     -40.386  51.969 -50.823  1.00  0.00    -0.348 N 
HETATM   15  C   UNL     1     -40.588  51.872 -52.274  1.00  0.00     0.132 C 
HETATM   16  C   UNL     1     -40.242  50.704 -50.102  1.00  0.00     0.126 C 
HETATM   17  C   UNL     1     -39.596  50.918 -52.956  1.00  0.00     0.027 C 
HETATM   18  C   UNL     1     -39.570  49.564 -52.237  1.00  0.00     0.010 C 
HETATM   19  C   UNL     1     -39.239  49.766 -50.763  1.00  0.00     0.020 C 
HETATM   20  O   UNL     1     -40.631  53.129 -48.829  1.00  0.00    -0.267 OA
BRANCH  17  21
HETATM   21  C   UNL     1     -39.921  50.767 -54.445  1.00  0.00     0.170 C 
BRANCH  21  22
HETATM   22  O   UNL     1     -40.069  49.402 -54.814  1.00  0.00    -0.400 OA
HETATM   23  H   UNL     1     -39.655  49.288 -55.688  1.00  0.00     0.209 HD
ENDBRANCH  21  22
ENDBRANCH  17  21
ENDBRANCH  10  13
ENDBRANCH   4   7
BRANCH   1  24
HETATM   24  N   UNL     1     -44.175  59.901 -55.150  1.00  0.00    -0.064 N 
HETATM   25  C   UNL     1     -43.711  60.114 -56.612  1.00  0.00     0.255 C 
HETATM   26  C   UNL     1     -44.848  59.817 -57.608  1.00  0.00     0.150 C 
HETATM   27  N   UNL     1     -45.378  58.445 -57.439  1.00  0.00    -0.375 N 
HETATM   28  C   UNL     1     -45.778  58.117 -56.063  1.00  0.00     0.150 C 
HETATM   29  C   UNL     1     -44.696  58.456 -55.013  1.00  0.00     0.255 C 
HETATM   30  H   UNL     1     -44.978  60.524 -54.992  1.00  0.00     0.280 HD
BRANCH  27  31
HETATM   31  C   UNL     1     -44.748  57.472 -58.232  1.00  0.00     0.063 A 
HETATM   32  C   UNL     1     -43.412  57.081 -58.087  1.00  0.00     0.032 A 
HETATM   33  C   UNL     1     -42.833  56.136 -58.947  1.00  0.00     0.002 A 
HETATM   34  C   UNL     1     -43.583  55.549 -59.963  1.00  0.00     0.003 A 
HETATM   35  C   UNL     1     -44.923  55.885 -60.109  1.00  0.00     0.039 A 
HETATM   36  C   UNL     1     -45.486  56.815 -59.241  1.00  0.00     0.092 A 
BRANCH  36  37
HETATM   37  O   UNL     1     -46.837  57.034 -59.344  1.00  0.00    -0.358 OA
HETATM   38  H   UNL     1     -47.101  57.318 -58.450  1.00  0.00     0.218 HD
ENDBRANCH  36  37
ENDBRANCH  27  31
ENDBRANCH   1  24
TORSDOF 7
ENDMDL
MODEL 5
REMARK VINA RESULT:      -7.7      5.379     11.362
REMARK  7 active torsions:
REMARK  status: ('A' for Active; 'I' for Inactive)
REMARK    1  A    between atoms: C_3  and  N_4 
REMARK    2  A    between atoms: N_7  and  C_9 
REMARK    3  A    between atoms: N_12  and  C_13 
REMARK    4  A    between atoms: C_16  and  C_17 
REMARK       I    between atoms: C_17  and  N_18 
REMARK    5  A    between atoms: C_20  and  C_21 
REMARK    6  A    between atoms: C_21  and  O_22 
REMARK    7  A    between atoms: C_33  and  O_34 
ROOT
HETATM    1  C   UNL     1     -43.538  60.060 -54.793  1.00  0.00     0.191 C 
HETATM    2  C   UNL     1     -44.453  59.046 -54.085  1.00  0.00     0.053 C 
HETATM    3  C   UNL     1     -43.799  57.677 -53.913  1.00  0.00     0.125 C 
HETATM    4  N   UNL     1     -42.504  57.861 -53.262  1.00  0.00    -0.381 N 
HETATM    5  C   UNL     1     -41.543  58.718 -53.944  1.00  0.00     0.125 C 
HETATM    6  C   UNL     1     -42.173  60.102 -54.088  1.00  0.00     0.053 C 
ENDROOT
BRANCH   4   7
HETATM    7  C   UNL     1     -42.033  56.771 -52.523  1.00  0.00     0.030 A 
HETATM    8  C   UNL     1     -41.230  56.903 -51.380  1.00  0.00     0.030 A 
HETATM    9  C   UNL     1     -40.817  55.784 -50.644  1.00  0.00     0.019 A 
HETATM   10  C   UNL     1     -41.237  54.509 -51.025  1.00  0.00     0.032 A 
HETATM   11  C   UNL     1     -42.012  54.347 -52.172  1.00  0.00     0.019 A 
HETATM   12  C   UNL     1     -42.406  55.470 -52.906  1.00  0.00     0.030 A 
BRANCH  10  13
HETATM   13  C   UNL     1     -40.819  53.297 -50.290  1.00  0.00     0.253 C 
HETATM   14  N   UNL     1     -40.468  52.140 -50.994  1.00  0.00    -0.348 N 
HETATM   15  C   UNL     1     -40.663  51.957 -52.438  1.00  0.00     0.132 C 
HETATM   16  C   UNL     1     -40.265  50.923 -50.207  1.00  0.00     0.126 C 
HETATM   17  C   UNL     1     -39.626  51.016 -53.069  1.00  0.00     0.027 C 
HETATM   18  C   UNL     1     -39.537  49.705 -52.280  1.00  0.00     0.010 C 
HETATM   19  C   UNL     1     -39.218  50.000 -50.819  1.00  0.00     0.020 C 
HETATM   20  O   UNL     1     -40.770  53.392 -49.064  1.00  0.00    -0.267 OA
BRANCH  17  21
HETATM   21  C   UNL     1     -39.941  50.771 -54.548  1.00  0.00     0.170 C 
BRANCH  21  22
HETATM   22  O   UNL     1     -39.997  49.383 -54.849  1.00  0.00    -0.400 OA
HETATM   23  H   UNL     1     -39.343  49.208 -55.550  1.00  0.00     0.209 HD
ENDBRANCH  21  22
ENDBRANCH  17  21
ENDBRANCH  10  13
ENDBRANCH   4   7
BRANCH   1  24
HETATM   24  N   UNL     1     -43.427  59.769 -56.307  1.00  0.00    -0.064 N 
HETATM   25  C   UNL     1     -43.799  61.013 -57.154  1.00  0.00     0.255 C 
HETATM   26  C   UNL     1     -43.741  60.700 -58.661  1.00  0.00     0.150 C 
HETATM   27  N   UNL     1     -42.410  60.191 -59.063  1.00  0.00    -0.375 N 
HETATM   28  C   UNL     1     -41.931  59.053 -58.266  1.00  0.00     0.150 C 
HETATM   29  C   UNL     1     -42.028  59.290 -56.741  1.00  0.00     0.255 C 
HETATM   30  H   UNL     1     -44.089  59.023 -56.556  1.00  0.00     0.280 HD
BRANCH  27  31
HETATM   31  C   UNL     1     -41.505  61.184 -59.475  1.00  0.00     0.063 A 
HETATM   32  C   UNL     1     -40.770  61.992 -58.601  1.00  0.00     0.032 A 
HETATM   33  C   UNL     1     -39.919  62.999 -59.082  1.00  0.00     0.002 A 
HETATM   34  C   UNL     1     -39.772  63.207 -60.451  1.00  0.00     0.003 A 
HETATM   35  C   UNL     1     -40.456  62.396 -61.347  1.00  0.00     0.039 A 
HETATM   36  C   UNL     1     -41.287  61.395 -60.854  1.00  0.00     0.092 A 
BRANCH  36  37
HETATM   37  O   UNL     1     -41.855  60.542 -61.768  1.00  0.00    -0.358 OA
HETATM   38  H   UNL     1     -42.761  60.883 -61.882  1.00  0.00     0.218 HD
ENDBRANCH  36  37
ENDBRANCH  27  31
ENDBRANCH   1  24
TORSDOF 7
ENDMDL
MODEL 6
REMARK VINA RESULT:      -7.7      4.767      9.877
REMARK  7 active torsions:
REMARK  status: ('A' for Active; 'I' for Inactive)
REMARK    1  A    between atoms: C_3  and  N_4 
REMARK    2  A    between atoms: N_7  and  C_9 
REMARK    3  A    between atoms: N_12  and  C_13 
REMARK    4  A    between atoms: C_16  and  C_17 
REMARK       I    between atoms: C_17  and  N_18 
REMARK    5  A    between atoms: C_20  and  C_21 
REMARK    6  A    between atoms: C_21  and  O_22 
REMARK    7  A    between atoms: C_33  and  O_34 
ROOT
HETATM    1  C   UNL     1     -44.090  61.561 -57.284  1.00  0.00     0.191 C 
HETATM    2  C   UNL     1     -44.811  61.328 -55.945  1.00  0.00     0.053 C 
HETATM    3  C   UNL     1     -44.549  59.940 -55.364  1.00  0.00     0.125 C 
HETATM    4  N   UNL     1     -43.104  59.728 -55.304  1.00  0.00    -0.381 N 
HETATM    5  C   UNL     1     -42.375  59.818 -56.563  1.00  0.00     0.125 C 
HETATM    6  C   UNL     1     -42.600  61.216 -57.134  1.00  0.00     0.053 C 
ENDROOT
BRANCH   4   7
HETATM    7  C   UNL     1     -42.660  58.833 -54.328  1.00  0.00     0.030 A 
HETATM    8  C   UNL     1     -41.313  58.702 -53.955  1.00  0.00     0.030 A 
HETATM    9  C   UNL     1     -40.918  57.821 -52.939  1.00  0.00     0.019 A 
HETATM   10  C   UNL     1     -41.879  57.080 -52.249  1.00  0.00     0.032 A 
HETATM   11  C   UNL     1     -43.220  57.170 -52.618  1.00  0.00     0.019 A 
HETATM   12  C   UNL     1     -43.600  58.041 -53.643  1.00  0.00     0.030 A 
BRANCH  10  13
HETATM   13  C   UNL     1     -41.512  56.129 -51.179  1.00  0.00     0.253 C 
HETATM   14  N   UNL     1     -41.133  54.823 -51.506  1.00  0.00    -0.348 N 
HETATM   15  C   UNL     1     -41.251  54.237 -52.847  1.00  0.00     0.132 C 
HETATM   16  C   UNL     1     -40.984  53.881 -50.396  1.00  0.00     0.126 C 
HETATM   17  C   UNL     1     -40.189  53.163 -53.128  1.00  0.00     0.027 C 
HETATM   18  C   UNL     1     -40.155  52.130 -51.995  1.00  0.00     0.010 C 
HETATM   19  C   UNL     1     -39.914  52.830 -50.662  1.00  0.00     0.020 C 
HETATM   20  O   UNL     1     -41.530  56.569 -50.030  1.00  0.00    -0.267 OA
BRANCH  17  21
HETATM   21  C   UNL     1     -40.424  52.506 -54.491  1.00  0.00     0.170 C 
BRANCH  21  22
HETATM   22  O   UNL     1     -40.371  51.089 -54.406  1.00  0.00    -0.400 OA
HETATM   23  H   UNL     1     -41.160  50.738 -54.857  1.00  0.00     0.209 HD
ENDBRANCH  21  22
ENDBRANCH  17  21
ENDBRANCH  10  13
ENDBRANCH   4   7
BRANCH   1  24
HETATM   24  N   UNL     1     -44.773  60.797 -58.441  1.00  0.00    -0.064 N 
HETATM   25  C   UNL     1     -43.739  60.044 -59.315  1.00  0.00     0.255 C 
HETATM   26  C   UNL     1     -44.420  59.333 -60.499  1.00  0.00     0.150 C 
HETATM   27  N   UNL     1     -45.473  58.398 -60.041  1.00  0.00    -0.375 N 
HETATM   28  C   UNL     1     -46.467  59.001 -59.141  1.00  0.00     0.150 C 
HETATM   29  C   UNL     1     -45.835  59.784 -57.968  1.00  0.00     0.255 C 
HETATM   30  H   UNL     1     -45.254  61.471 -59.052  1.00  0.00     0.280 HD
BRANCH  27  31
HETATM   31  C   UNL     1     -45.031  57.084 -59.812  1.00  0.00     0.063 A 
HETATM   32  C   UNL     1     -44.093  56.728 -58.837  1.00  0.00     0.032 A 
HETATM   33  C   UNL     1     -43.659  55.401 -58.694  1.00  0.00     0.002 A 
HETATM   34  C   UNL     1     -44.168  54.397 -59.515  1.00  0.00     0.003 A 
HETATM   35  C   UNL     1     -45.131  54.711 -60.467  1.00  0.00     0.039 A 
HETATM   36  C   UNL     1     -45.559  56.029 -60.588  1.00  0.00     0.092 A 
BRANCH  36  37
HETATM   37  O   UNL     1     -46.591  56.278 -61.458  1.00  0.00    -0.358 OA
HETATM   38  H   UNL     1     -46.575  57.245 -61.576  1.00  0.00     0.218 HD
ENDBRANCH  36  37
ENDBRANCH  27  31
ENDBRANCH   1  24
TORSDOF 7
ENDMDL
MODEL 7
REMARK VINA RESULT:      -7.7      5.027      7.593
REMARK  7 active torsions:
REMARK  status: ('A' for Active; 'I' for Inactive)
REMARK    1  A    between atoms: C_3  and  N_4 
REMARK    2  A    between atoms: N_7  and  C_9 
REMARK    3  A    between atoms: N_12  and  C_13 
REMARK    4  A    between atoms: C_16  and  C_17 
REMARK       I    between atoms: C_17  and  N_18 
REMARK    5  A    between atoms: C_20  and  C_21 
REMARK    6  A    between atoms: C_21  and  O_22 
REMARK    7  A    between atoms: C_33  and  O_34 
ROOT
HETATM    1  C   UNL     1     -43.844  59.130 -51.434  1.00  0.00     0.191 C 
HETATM    2  C   UNL     1     -42.814  60.163 -51.925  1.00  0.00     0.053 C 
HETATM    3  C   UNL     1     -42.229  59.813 -53.292  1.00  0.00     0.125 C 
HETATM    4  N   UNL     1     -43.332  59.586 -54.224  1.00  0.00    -0.381 N 
HETATM    5  C   UNL     1     -44.279  58.536 -53.875  1.00  0.00     0.125 C 
HETATM    6  C   UNL     1     -44.899  58.895 -52.526  1.00  0.00     0.053 C 
ENDROOT
BRANCH   4   7
HETATM    7  C   UNL     1     -43.047  59.821 -55.572  1.00  0.00     0.030 A 
HETATM    8  C   UNL     1     -42.109  59.075 -56.304  1.00  0.00     0.030 A 
HETATM    9  C   UNL     1     -41.888  59.316 -57.667  1.00  0.00     0.019 A 
HETATM   10  C   UNL     1     -42.635  60.290 -58.330  1.00  0.00     0.032 A 
HETATM   11  C   UNL     1     -43.552  61.064 -57.621  1.00  0.00     0.019 A 
HETATM   12  C   UNL     1     -43.754  60.824 -56.259  1.00  0.00     0.030 A 
BRANCH  10  13
HETATM   13  C   UNL     1     -42.430  60.591 -59.763  1.00  0.00     0.253 C 
HETATM   14  N   UNL     1     -41.586  61.640 -60.142  1.00  0.00    -0.348 N 
HETATM   15  C   UNL     1     -41.013  62.620 -59.212  1.00  0.00     0.132 C 
HETATM   16  C   UNL     1     -41.590  62.012 -61.557  1.00  0.00     0.126 C 
HETATM   17  C   UNL     1     -39.656  63.169 -59.677  1.00  0.00     0.027 C 
HETATM   18  C   UNL     1     -39.742  63.659 -61.128  1.00  0.00     0.010 C 
HETATM   19  C   UNL     1     -40.237  62.533 -62.027  1.00  0.00     0.020 C 
HETATM   20  O   UNL     1     -43.006  59.854 -60.562  1.00  0.00    -0.267 OA
BRANCH  17  21
HETATM   21  C   UNL     1     -39.157  64.266 -58.733  1.00  0.00     0.170 C 
BRANCH  21  22
HETATM   22  O   UNL     1     -40.005  64.408 -57.601  1.00  0.00    -0.400 OA
HETATM   23  H   UNL     1     -40.562  63.610 -57.549  1.00  0.00     0.209 HD
ENDBRANCH  21  22
ENDBRANCH  17  21
ENDBRANCH  10  13
ENDBRANCH   4   7
BRANCH   1  24
HETATM   24  N   UNL     1     -43.163  57.824 -50.962  1.00  0.00    -0.064 N 
HETATM   25  C   UNL     1     -43.745  56.585 -51.687  1.00  0.00     0.255 C 
HETATM   26  C   UNL     1     -43.103  55.283 -51.171  1.00  0.00     0.150 C 
HETATM   27  N   UNL     1     -41.629  55.308 -51.312  1.00  0.00    -0.375 N 
HETATM   28  C   UNL     1     -40.985  56.489 -50.720  1.00  0.00     0.150 C 
HETATM   29  C   UNL     1     -41.633  57.823 -51.155  1.00  0.00     0.255 C 
HETATM   30  H   UNL     1     -43.338  57.699 -49.956  1.00  0.00     0.280 HD
BRANCH  27  31
HETATM   31  C   UNL     1     -41.149  54.786 -52.525  1.00  0.00     0.063 A 
HETATM   32  C   UNL     1     -41.065  55.514 -53.717  1.00  0.00     0.032 A 
HETATM   33  C   UNL     1     -40.619  54.914 -54.906  1.00  0.00     0.002 A 
HETATM   34  C   UNL     1     -40.233  53.576 -54.923  1.00  0.00     0.003 A 
HETATM   35  C   UNL     1     -40.267  52.836 -53.747  1.00  0.00     0.039 A 
HETATM   36  C   UNL     1     -40.700  53.448 -52.575  1.00  0.00     0.092 A 
BRANCH  36  37
HETATM   37  O   UNL     1     -40.610  52.720 -51.415  1.00  0.00    -0.358 OA
HETATM   38  H   UNL     1     -39.763  52.243 -51.498  1.00  0.00     0.218 HD
ENDBRANCH  36  37
ENDBRANCH  27  31
ENDBRANCH   1  24
TORSDOF 7
ENDMDL
MODEL 8
REMARK VINA RESULT:      -7.7     20.621     23.811
REMARK  7 active torsions:
REMARK  status: ('A' for Active; 'I' for Inactive)
REMARK    1  A    between atoms: C_3  and  N_4 
REMARK    2  A    between atoms: N_7  and  C_9 
REMARK    3  A    between atoms: N_12  and  C_13 
REMARK    4  A    between atoms: C_16  and  C_17 
REMARK       I    between atoms: C_17  and  N_18 
REMARK    5  A    between atoms: C_20  and  C_21 
REMARK    6  A    between atoms: C_21  and  O_22 
REMARK    7  A    between atoms: C_33  and  O_34 
ROOT
HETATM    1  C   UNL     1     -35.060  41.371 -56.916  1.00  0.00     0.191 C 
HETATM    2  C   UNL     1     -35.175  42.343 -55.729  1.00  0.00     0.053 C 
HETATM    3  C   UNL     1     -35.169  41.632 -54.378  1.00  0.00     0.125 C 
HETATM    4  N   UNL     1     -33.997  40.761 -54.319  1.00  0.00    -0.381 N 
HETATM    5  C   UNL     1     -33.888  39.737 -55.350  1.00  0.00     0.125 C 
HETATM    6  C   UNL     1     -33.856  40.440 -56.705  1.00  0.00     0.053 C 
ENDROOT
BRANCH   4   7
HETATM    7  C   UNL     1     -33.505  40.488 -53.039  1.00  0.00     0.030 A 
HETATM    8  C   UNL     1     -33.964  41.135 -51.881  1.00  0.00     0.030 A 
HETATM    9  C   UNL     1     -33.474  40.798 -50.612  1.00  0.00     0.019 A 
HETATM   10  C   UNL     1     -32.536  39.773 -50.480  1.00  0.00     0.032 A 
HETATM   11  C   UNL     1     -32.042  39.134 -51.616  1.00  0.00     0.019 A 
HETATM   12  C   UNL     1     -32.528  39.489 -52.877  1.00  0.00     0.030 A 
BRANCH  10  13
HETATM   13  C   UNL     1     -31.979  39.389 -49.166  1.00  0.00     0.253 C 
HETATM   14  N   UNL     1     -32.783  38.723 -48.235  1.00  0.00    -0.348 N 
HETATM   15  C   UNL     1     -34.231  38.531 -48.378  1.00  0.00     0.132 C 
HETATM   16  C   UNL     1     -32.236  38.558 -46.888  1.00  0.00     0.126 C 
HETATM   17  C   UNL     1     -34.739  37.254 -47.692  1.00  0.00     0.027 C 
HETATM   18  C   UNL     1     -34.239  37.186 -46.244  1.00  0.00     0.010 C 
HETATM   19  C   UNL     1     -32.718  37.279 -46.215  1.00  0.00     0.020 C 
HETATM   20  O   UNL     1     -30.793  39.656 -48.977  1.00  0.00    -0.267 OA
BRANCH  17  21
HETATM   21  C   UNL     1     -36.265  37.160 -47.774  1.00  0.00     0.170 C 
BRANCH  21  22
HETATM   22  O   UNL     1     -36.877  38.434 -47.632  1.00  0.00    -0.400 OA
HETATM   23  H   UNL     1     -37.577  38.350 -46.959  1.00  0.00     0.209 HD
ENDBRANCH  21  22
ENDBRANCH  17  21
ENDBRANCH  10  13
ENDBRANCH   4   7
BRANCH   1  24
HETATM   24  N   UNL     1     -36.381  40.605 -57.157  1.00  0.00    -0.064 N 
HETATM   25  C   UNL     1     -37.226  41.266 -58.276  1.00  0.00     0.255 C 
HETATM   26  C   UNL     1     -38.566  40.532 -58.471  1.00  0.00     0.150 C 
HETATM   27  N   UNL     1     -38.363  39.095 -58.770  1.00  0.00    -0.375 N 
HETATM   28  C   UNL     1     -37.508  38.392 -57.803  1.00  0.00     0.150 C 
HETATM   29  C   UNL     1     -36.175  39.121 -57.520  1.00  0.00     0.255 C 
HETATM   30  H   UNL     1     -36.945  40.627 -56.297  1.00  0.00     0.280 HD
BRANCH  27  31
HETATM   31  C   UNL     1     -38.266  38.790 -60.138  1.00  0.00     0.063 A 
HETATM   32  C   UNL     1     -37.205  39.186 -60.960  1.00  0.00     0.032 A 
HETATM   33  C   UNL     1     -37.197  38.887 -62.331  1.00  0.00     0.002 A 
HETATM   34  C   UNL     1     -38.243  38.170 -62.907  1.00  0.00     0.003 A 
HETATM   35  C   UNL     1     -39.292  37.727 -62.110  1.00  0.00     0.039 A 
HETATM   36  C   UNL     1     -39.280  38.022 -60.751  1.00  0.00     0.092 A 
BRANCH  36  37
HETATM   37  O   UNL     1     -40.272  37.470 -59.979  1.00  0.00    -0.358 OA
HETATM   38  H   UNL     1     -39.861  36.675 -59.594  1.00  0.00     0.218 HD
ENDBRANCH  36  37
ENDBRANCH  27  31
ENDBRANCH   1  24
TORSDOF 7
ENDMDL
MODEL 9
REMARK VINA RESULT:      -7.6      6.146      8.422
REMARK  7 active torsions:
REMARK  status: ('A' for Active; 'I' for Inactive)
REMARK    1  A    between atoms: C_3  and  N_4 
REMARK    2  A    between atoms: N_7  and  C_9 
REMARK    3  A    between atoms: N_12  and  C_13 
REMARK    4  A    between atoms: C_16  and  C_17 
REMARK       I    between atoms: C_17  and  N_18 
REMARK    5  A    between atoms: C_20  and  C_21 
REMARK    6  A    between atoms: C_21  and  O_22 
REMARK    7  A    between atoms: C_33  and  O_34 
ROOT
HETATM    1  C   UNL     1     -43.842  55.581 -55.525  1.00  0.00     0.191 C 
HETATM    2  C   UNL     1     -44.387  57.020 -55.537  1.00  0.00     0.053 C 
HETATM    3  C   UNL     1     -43.532  57.970 -56.374  1.00  0.00     0.125 C 
HETATM    4  N   UNL     1     -43.361  57.389 -57.704  1.00  0.00    -0.381 N 
HETATM    5  C   UNL     1     -42.739  56.073 -57.770  1.00  0.00     0.125 C 
HETATM    6  C   UNL     1     -43.607  55.106 -56.967  1.00  0.00     0.053 C 
ENDROOT
BRANCH   4   7
HETATM    7  C   UNL     1     -43.132  58.299 -58.740  1.00  0.00     0.030 A 
HETATM    8  C   UNL     1     -43.832  59.509 -58.875  1.00  0.00     0.030 A 
HETATM    9  C   UNL     1     -43.538  60.412 -59.905  1.00  0.00     0.019 A 
HETATM   10  C   UNL     1     -42.506  60.132 -60.801  1.00  0.00     0.032 A 
HETATM   11  C   UNL     1     -41.814  58.925 -60.707  1.00  0.00     0.019 A 
HETATM   12  C   UNL     1     -42.125  58.026 -59.684  1.00  0.00     0.030 A 
BRANCH  10  13
HETATM   13  C   UNL     1     -42.166  61.046 -61.912  1.00  0.00     0.253 C 
HETATM   14  N   UNL     1     -41.295  62.118 -61.691  1.00  0.00    -0.348 N 
HETATM   15  C   UNL     1     -40.821  62.542 -60.368  1.00  0.00     0.132 C 
HETATM   16  C   UNL     1     -41.165  63.097 -62.771  1.00  0.00     0.126 C 
HETATM   17  C   UNL     1     -39.428  63.190 -60.409  1.00  0.00     0.027 C 
HETATM   18  C   UNL     1     -39.377  64.292 -61.473  1.00  0.00     0.010 C 
HETATM   19  C   UNL     1     -39.777  63.722 -62.829  1.00  0.00     0.020 C 
HETATM   20  O   UNL     1     -42.657  60.779 -63.007  1.00  0.00    -0.267 OA
BRANCH  17  21
HETATM   21  C   UNL     1     -39.029  63.713 -59.026  1.00  0.00     0.170 C 
BRANCH  21  22
HETATM   22  O   UNL     1     -40.105  63.623 -58.101  1.00  0.00    -0.400 OA
HETATM   23  H   UNL     1     -39.912  64.234 -57.367  1.00  0.00     0.209 HD
ENDBRANCH  21  22
ENDBRANCH  17  21
ENDBRANCH  10  13
ENDBRANCH   4   7
BRANCH   1  24
HETATM   24  N   UNL     1     -42.584  55.454 -54.635  1.00  0.00    -0.064 N 
HETATM   25  C   UNL     1     -42.835  54.520 -53.425  1.00  0.00     0.255 C 
HETATM   26  C   UNL     1     -41.597  54.443 -52.512  1.00  0.00     0.150 C 
HETATM   27  N   UNL     1     -40.396  53.999 -53.256  1.00  0.00    -0.375 N 
HETATM   28  C   UNL     1     -40.113  54.779 -54.469  1.00  0.00     0.150 C 
HETATM   29  C   UNL     1     -41.343  54.942 -55.392  1.00  0.00     0.255 C 
HETATM   30  H   UNL     1     -42.343  56.381 -54.258  1.00  0.00     0.280 HD
BRANCH  27  31
HETATM   31  C   UNL     1     -40.189  52.609 -53.257  1.00  0.00     0.063 A 
HETATM   32  C   UNL     1     -40.398  51.782 -54.366  1.00  0.00     0.032 A 
HETATM   33  C   UNL     1     -40.217  50.393 -54.282  1.00  0.00     0.002 A 
HETATM   34  C   UNL     1     -39.807  49.802 -53.089  1.00  0.00     0.003 A 
HETATM   35  C   UNL     1     -39.552  50.599 -51.980  1.00  0.00     0.039 A 
HETATM   36  C   UNL     1     -39.725  51.976 -52.083  1.00  0.00     0.092 A 
BRANCH  36  37
HETATM   37  O   UNL     1     -39.353  52.738 -51.003  1.00  0.00    -0.358 OA
HETATM   38  H   UNL     1     -39.704  53.625 -51.206  1.00  0.00     0.218 HD
ENDBRANCH  36  37
ENDBRANCH  27  31
ENDBRANCH   1  24
TORSDOF 7
ENDMDL
MODEL 10
REMARK VINA RESULT:      -7.6      4.648     10.237
REMARK  7 active torsions:
REMARK  status: ('A' for Active; 'I' for Inactive)
REMARK    1  A    between atoms: C_3  and  N_4 
REMARK    2  A    between atoms: N_7  and  C_9 
REMARK    3  A    between atoms: N_12  and  C_13 
REMARK    4  A    between atoms: C_16  and  C_17 
REMARK       I    between atoms: C_17  and  N_18 
REMARK    5  A    between atoms: C_20  and  C_21 
REMARK    6  A    between atoms: C_21  and  O_22 
REMARK    7  A    between atoms: C_33  and  O_34 
ROOT
HETATM    1  C   UNL     1     -43.829  60.879 -52.334  1.00  0.00     0.191 C 
HETATM    2  C   UNL     1     -44.788  59.803 -51.795  1.00  0.00     0.053 C 
HETATM    3  C   UNL     1     -44.245  58.386 -51.968  1.00  0.00     0.125 C 
HETATM    4  N   UNL     1     -42.905  58.329 -51.389  1.00  0.00    -0.381 N 
HETATM    5  C   UNL     1     -41.913  59.244 -51.939  1.00  0.00     0.125 C 
HETATM    6  C   UNL     1     -42.429  60.668 -51.738  1.00  0.00     0.053 C 
ENDROOT
BRANCH   4   7
HETATM    7  C   UNL     1     -42.490  57.074 -50.937  1.00  0.00     0.030 A 
HETATM    8  C   UNL     1     -43.348  55.967 -50.837  1.00  0.00     0.030 A 
HETATM    9  C   UNL     1     -42.878  54.714 -50.421  1.00  0.00     0.019 A 
HETATM   10  C   UNL     1     -41.524  54.540 -50.131  1.00  0.00     0.032 A 
HETATM   11  C   UNL     1     -40.656  55.629 -50.195  1.00  0.00     0.019 A 
HETATM   12  C   UNL     1     -41.139  56.877 -50.598  1.00  0.00     0.030 A 
BRANCH  10  13
HETATM   13  C   UNL     1     -40.982  53.243 -49.676  1.00  0.00     0.253 C 
HETATM   14  N   UNL     1     -40.586  52.284 -50.615  1.00  0.00    -0.348 N 
HETATM   15  C   UNL     1     -40.843  52.381 -52.058  1.00  0.00     0.132 C 
HETATM   16  C   UNL     1     -40.256  50.954 -50.102  1.00  0.00     0.126 C 
HETATM   17  C   UNL     1     -39.775  51.674 -52.906  1.00  0.00     0.027 C 
HETATM   18  C   UNL     1     -39.551  50.242 -52.406  1.00  0.00     0.010 C 
HETATM   19  C   UNL     1     -39.179  50.261 -50.928  1.00  0.00     0.020 C 
HETATM   20  O   UNL     1     -40.877  53.092 -48.460  1.00  0.00    -0.267 OA
BRANCH  17  21
HETATM   21  C   UNL     1     -40.148  51.708 -54.391  1.00  0.00     0.170 C 
BRANCH  21  22
HETATM   22  O   UNL     1     -40.697  52.964 -54.765  1.00  0.00    -0.400 OA
HETATM   23  H   UNL     1     -41.437  52.791 -55.375  1.00  0.00     0.209 HD
ENDBRANCH  21  22
ENDBRANCH  17  21
ENDBRANCH  10  13
ENDBRANCH   4   7
BRANCH   1  24
HETATM   24  N   UNL     1     -43.827  60.920 -53.880  1.00  0.00    -0.064 N 
HETATM   25  C   UNL     1     -42.511  60.346 -54.462  1.00  0.00     0.255 C 
HETATM   26  C   UNL     1     -42.492  60.442 -56.000  1.00  0.00     0.150 C 
HETATM   27  N   UNL     1     -43.657  59.757 -56.605  1.00  0.00    -0.375 N 
HETATM   28  C   UNL     1     -44.956  60.180 -56.062  1.00  0.00     0.150 C 
HETATM   29  C   UNL     1     -45.009  60.164 -54.518  1.00  0.00     0.255 C 
HETATM   30  H   UNL     1     -43.895  61.899 -54.191  1.00  0.00     0.280 HD
BRANCH  27  31
HETATM   31  C   UNL     1     -43.441  58.405 -56.922  1.00  0.00     0.063 A 
HETATM   32  C   UNL     1     -43.440  57.366 -55.985  1.00  0.00     0.032 A 
HETATM   33  C   UNL     1     -43.169  56.043 -56.366  1.00  0.00     0.002 A 
HETATM   34  C   UNL     1     -42.907  55.728 -57.697  1.00  0.00     0.003 A 
HETATM   35  C   UNL     1     -42.939  56.730 -58.659  1.00  0.00     0.039 A 
HETATM   36  C   UNL     1     -43.222  58.035 -58.267  1.00  0.00     0.092 A 
BRANCH  36  37
HETATM   37  O   UNL     1     -43.357  58.974 -59.259  1.00  0.00    -0.358 OA
HETATM   38  H   UNL     1     -43.500  59.810 -58.778  1.00  0.00     0.218 HD
ENDBRANCH  36  37
ENDBRANCH  27  31
ENDBRANCH   1  24
TORSDOF 7
ENDMDL
