MODEL 1
REMARK VINA RESULT:      -8.0      0.000      0.000
REMARK  4 active torsions:
REMARK  status: ('A' for Active; 'I' for Inactive)
REMARK    1  A    between atoms: C_4  and  N_5 
REMARK    2  A    between atoms: N_5  and  C_6 
REMARK    3  A    between atoms: C_6  and  N_7 
REMARK       I    between atoms: N_7  and  C_8 
REMARK    4  A    between atoms: C_8  and  C_9 
ROOT
HETATM    1  N   UNL     1     -42.188  55.613 -54.699  1.00  0.00    -0.299 N 
HETATM    2  C   UNL     1     -42.379  54.242 -54.833  1.00  0.00     0.257 C 
HETATM    3  O   UNL     1     -43.259  53.682 -55.471  1.00  0.00    -0.267 OA
HETATM    4  H   UNL     1     -41.580  55.898 -53.935  1.00  0.00     0.171 HD
ENDROOT
BRANCH   1   5
HETATM    5  C   UNL     1     -42.631  56.687 -55.442  1.00  0.00     0.180 C 
HETATM    6  S   UNL     1     -43.800  57.797 -55.006  1.00  0.00    -0.040 SA
BRANCH   5   7
HETATM    7  N   UNL     1     -42.058  56.835 -56.684  1.00  0.00    -0.318 N 
HETATM    8  H   UNL     1     -41.052  56.949 -56.662  1.00  0.00     0.170 HD
BRANCH   7   9
HETATM    9  C   UNL     1     -42.680  56.820 -57.942  1.00  0.00     0.129 A 
HETATM   10  C   UNL     1     -43.367  55.673 -58.321  1.00  0.00     0.057 A 
HETATM   11  C   UNL     1     -44.010  55.643 -59.563  1.00  0.00    -0.057 A 
HETATM   12  C   UNL     1     -44.754  54.426 -60.025  1.00  0.00     0.048 C 
HETATM   13  C   UNL     1     -43.937  56.770 -60.381  1.00  0.00     0.026 A 
HETATM   14  C   UNL     1     -43.227  57.867 -59.928  1.00  0.00     0.119 A 
HETATM   15  N   UNL     1     -42.592  57.912 -58.737  1.00  0.00    -0.243 NA
ENDBRANCH   7   9
ENDBRANCH   5   7
ENDBRANCH   1   5
BRANCH   2  16
HETATM   16  C   UNL     1     -41.451  53.437 -53.997  1.00  0.00     0.033 A 
HETATM   17  C   UNL     1     -40.949  52.234 -54.501  1.00  0.00     0.023 A 
HETATM   18  C   UNL     1     -40.113  51.438 -53.710  1.00  0.00    -0.061 A 
HETATM   19  C   UNL     1     -39.584  50.132 -54.225  1.00  0.00     0.048 C 
HETATM   20  C   UNL     1     -39.759  51.878 -52.425  1.00  0.00     0.013 A 
HETATM   21  C   UNL     1     -40.235  53.097 -51.922  1.00  0.00    -0.061 A 
HETATM   22  C   UNL     1     -39.842  53.577 -50.556  1.00  0.00     0.048 C 
HETATM   23  C   UNL     1     -41.087  53.873 -52.715  1.00  0.00     0.023 A 
ENDBRANCH   2  16
TORSDOF 4
ENDMDL
MODEL 2
REMARK VINA RESULT:      -8.0      1.150      2.186
REMARK  4 active torsions:
REMARK  status: ('A' for Active; 'I' for Inactive)
REMARK    1  A    between atoms: C_4  and  N_5 
REMARK    2  A    between atoms: N_5  and  C_6 
REMARK    3  A    between atoms: C_6  and  N_7 
REMARK       I    between atoms: N_7  and  C_8 
REMARK    4  A    between atoms: C_8  and  C_9 
ROOT
HETATM    1  N   UNL     1     -42.176  55.080 -54.565  1.00  0.00    -0.299 N 
HETATM    2  C   UNL     1     -40.817  54.797 -54.493  1.00  0.00     0.257 C 
HETATM    3  O   UNL     1     -39.913  55.378 -55.077  1.00  0.00    -0.267 OA
HETATM    4  H   UNL     1     -42.795  54.346 -54.230  1.00  0.00     0.171 HD
ENDROOT
BRANCH   1   5
HETATM    5  C   UNL     1     -42.868  56.203 -54.968  1.00  0.00     0.180 C 
HETATM    6  S   UNL     1     -44.313  56.768 -54.351  1.00  0.00    -0.040 SA
BRANCH   5   7
HETATM    7  N   UNL     1     -42.310  56.911 -56.006  1.00  0.00    -0.318 N 
HETATM    8  H   UNL     1     -41.584  57.557 -55.721  1.00  0.00     0.170 HD
BRANCH   7   9
HETATM    9  C   UNL     1     -42.599  56.830 -57.377  1.00  0.00     0.129 A 
HETATM   10  C   UNL     1     -43.317  55.730 -57.831  1.00  0.00     0.057 A 
HETATM   11  C   UNL     1     -43.634  55.637 -59.191  1.00  0.00    -0.057 A 
HETATM   12  C   UNL     1     -44.395  54.466 -59.735  1.00  0.00     0.048 C 
HETATM   13  C   UNL     1     -43.214  56.656 -60.046  1.00  0.00     0.026 A 
HETATM   14  C   UNL     1     -42.499  57.712 -59.511  1.00  0.00     0.119 A 
HETATM   15  N   UNL     1     -42.175  57.814 -58.203  1.00  0.00    -0.243 NA
ENDBRANCH   7   9
ENDBRANCH   5   7
ENDBRANCH   1   5
BRANCH   2  16
HETATM   16  C   UNL     1     -40.514  53.580 -53.695  1.00  0.00     0.033 A 
HETATM   17  C   UNL     1     -40.584  53.645 -52.301  1.00  0.00     0.023 A 
HETATM   18  C   UNL     1     -40.255  52.524 -51.531  1.00  0.00    -0.061 A 
HETATM   19  C   UNL     1     -40.301  52.580 -50.032  1.00  0.00     0.048 C 
HETATM   20  C   UNL     1     -39.890  51.331 -52.175  1.00  0.00     0.013 A 
HETATM   21  C   UNL     1     -39.844  51.249 -53.573  1.00  0.00    -0.061 A 
HETATM   22  C   UNL     1     -39.473  49.969 -54.261  1.00  0.00     0.048 C 
HETATM   23  C   UNL     1     -40.155  52.383 -54.330  1.00  0.00     0.023 A 
ENDBRANCH   2  16
TORSDOF 4
ENDMDL
MODEL 3
REMARK VINA RESULT:      -7.7      2.721      5.357
REMARK  4 active torsions:
REMARK  status: ('A' for Active; 'I' for Inactive)
REMARK    1  A    between atoms: C_4  and  N_5 
REMARK    2  A    between atoms: N_5  and  C_6 
REMARK    3  A    between atoms: C_6  and  N_7 
REMARK       I    between atoms: N_7  and  C_8 
REMARK    4  A    between atoms: C_8  and  C_9 
ROOT
HETATM    1  N   UNL     1     -41.813  55.744 -54.659  1.00  0.00    -0.299 N 
HETATM    2  C   UNL     1     -42.195  54.413 -54.792  1.00  0.00     0.257 C 
HETATM    3  O   UNL     1     -43.161  53.984 -55.405  1.00  0.00    -0.267 OA
HETATM    4  H   UNL     1     -41.150  55.937 -53.911  1.00  0.00     0.171 HD
ENDROOT
BRANCH   1   5
HETATM    5  C   UNL     1     -42.125  56.874 -55.385  1.00  0.00     0.180 C 
HETATM    6  S   UNL     1     -42.726  56.934 -56.942  1.00  0.00    -0.040 SA
BRANCH   5   7
HETATM    7  N   UNL     1     -41.888  58.074 -54.757  1.00  0.00    -0.318 N 
HETATM    8  H   UNL     1     -41.831  58.865 -55.387  1.00  0.00     0.170 HD
BRANCH   7   9
HETATM    9  C   UNL     1     -41.745  58.331 -53.385  1.00  0.00     0.129 A 
HETATM   10  C   UNL     1     -40.489  58.694 -52.913  1.00  0.00     0.057 A 
HETATM   11  C   UNL     1     -40.327  58.973 -51.552  1.00  0.00    -0.057 A 
HETATM   12  C   UNL     1     -38.991  59.356 -50.989  1.00  0.00     0.048 C 
HETATM   13  C   UNL     1     -41.436  58.875 -50.713  1.00  0.00     0.026 A 
HETATM   14  C   UNL     1     -42.648  58.501 -51.264  1.00  0.00     0.119 A 
HETATM   15  N   UNL     1     -42.822  58.219 -52.574  1.00  0.00    -0.243 NA
ENDBRANCH   7   9
ENDBRANCH   5   7
ENDBRANCH   1   5
BRANCH   2  16
HETATM   16  C   UNL     1     -41.363  53.482 -53.985  1.00  0.00     0.033 A 
HETATM   17  C   UNL     1     -41.001  53.845 -52.685  1.00  0.00     0.023 A 
HETATM   18  C   UNL     1     -40.177  53.004 -51.928  1.00  0.00    -0.061 A 
HETATM   19  C   UNL     1     -39.757  53.387 -50.539  1.00  0.00     0.048 C 
HETATM   20  C   UNL     1     -39.751  51.784 -52.475  1.00  0.00     0.013 A 
HETATM   21  C   UNL     1     -40.133  51.399 -53.767  1.00  0.00    -0.061 A 
HETATM   22  C   UNL     1     -39.694  50.086 -54.346  1.00  0.00     0.048 C 
HETATM   23  C   UNL     1     -40.939  52.259 -54.522  1.00  0.00     0.023 A 
ENDBRANCH   2  16
TORSDOF 4
ENDMDL
MODEL 4
REMARK VINA RESULT:      -7.7      1.191      2.585
REMARK  4 active torsions:
REMARK  status: ('A' for Active; 'I' for Inactive)
REMARK    1  A    between atoms: C_4  and  N_5 
REMARK    2  A    between atoms: N_5  and  C_6 
REMARK    3  A    between atoms: C_6  and  N_7 
REMARK       I    between atoms: N_7  and  C_8 
REMARK    4  A    between atoms: C_8  and  C_9 
ROOT
HETATM    1  N   UNL     1     -41.780  55.668 -54.899  1.00  0.00    -0.299 N 
HETATM    2  C   UNL     1     -42.183  54.337 -54.918  1.00  0.00     0.257 C 
HETATM    3  O   UNL     1     -43.165  53.875 -55.481  1.00  0.00    -0.267 OA
HETATM    4  H   UNL     1     -41.103  55.911 -54.179  1.00  0.00     0.171 HD
ENDROOT
BRANCH   1   5
HETATM    5  C   UNL     1     -42.086  56.740 -55.711  1.00  0.00     0.180 C 
HETATM    6  S   UNL     1     -42.451  58.295 -55.225  1.00  0.00    -0.040 SA
BRANCH   5   7
HETATM    7  N   UNL     1     -42.114  56.481 -57.061  1.00  0.00    -0.318 N 
HETATM    8  H   UNL     1     -41.579  55.667 -57.336  1.00  0.00     0.170 HD
BRANCH   7   9
HETATM    9  C   UNL     1     -42.797  57.175 -58.071  1.00  0.00     0.129 A 
HETATM   10  C   UNL     1     -42.055  57.971 -58.937  1.00  0.00     0.057 A 
HETATM   11  C   UNL     1     -42.713  58.658 -59.963  1.00  0.00    -0.057 A 
HETATM   12  C   UNL     1     -41.961  59.540 -60.915  1.00  0.00     0.048 C 
HETATM   13  C   UNL     1     -44.095  58.520 -60.081  1.00  0.00     0.026 A 
HETATM   14  C   UNL     1     -44.756  57.713 -59.174  1.00  0.00     0.119 A 
HETATM   15  N   UNL     1     -44.141  57.049 -58.171  1.00  0.00    -0.243 NA
ENDBRANCH   7   9
ENDBRANCH   5   7
ENDBRANCH   1   5
BRANCH   2  16
HETATM   16  C   UNL     1     -41.352  53.461 -54.050  1.00  0.00     0.033 A 
HETATM   17  C   UNL     1     -41.049  53.881 -52.752  1.00  0.00     0.023 A 
HETATM   18  C   UNL     1     -40.227  53.094 -51.937  1.00  0.00    -0.061 A 
HETATM   19  C   UNL     1     -39.870  53.538 -50.549  1.00  0.00     0.048 C 
HETATM   20  C   UNL     1     -39.745  51.869 -52.424  1.00  0.00     0.013 A 
HETATM   21  C   UNL     1     -40.069  51.428 -53.714  1.00  0.00    -0.061 A 
HETATM   22  C   UNL     1     -39.570  50.109 -54.229  1.00  0.00     0.048 C 
HETATM   23  C   UNL     1     -40.873  52.234 -54.527  1.00  0.00     0.023 A 
ENDBRANCH   2  16
TORSDOF 4
ENDMDL
MODEL 5
REMARK VINA RESULT:      -7.7      1.186      1.766
REMARK  4 active torsions:
REMARK  status: ('A' for Active; 'I' for Inactive)
REMARK    1  A    between atoms: C_4  and  N_5 
REMARK    2  A    between atoms: N_5  and  C_6 
REMARK    3  A    between atoms: C_6  and  N_7 
REMARK       I    between atoms: N_7  and  C_8 
REMARK    4  A    between atoms: C_8  and  C_9 
ROOT
HETATM    1  N   UNL     1     -41.769  55.702 -54.896  1.00  0.00    -0.299 N 
HETATM    2  C   UNL     1     -42.127  54.359 -54.921  1.00  0.00     0.257 C 
HETATM    3  O   UNL     1     -43.083  53.864 -55.501  1.00  0.00    -0.267 OA
HETATM    4  H   UNL     1     -41.114  55.968 -54.165  1.00  0.00     0.171 HD
ENDROOT
BRANCH   1   5
HETATM    5  C   UNL     1     -42.096  56.763 -55.713  1.00  0.00     0.180 C 
HETATM    6  S   UNL     1     -42.501  58.312 -55.236  1.00  0.00    -0.040 SA
BRANCH   5   7
HETATM    7  N   UNL     1     -42.111  56.499 -57.063  1.00  0.00    -0.318 N 
HETATM    8  H   UNL     1     -41.564  55.689 -57.330  1.00  0.00     0.170 HD
BRANCH   7   9
HETATM    9  C   UNL     1     -42.793  57.181 -58.081  1.00  0.00     0.129 A 
HETATM   10  C   UNL     1     -42.052  57.967 -58.955  1.00  0.00     0.057 A 
HETATM   11  C   UNL     1     -42.709  58.642 -59.990  1.00  0.00    -0.057 A 
HETATM   12  C   UNL     1     -41.958  59.514 -60.951  1.00  0.00     0.048 C 
HETATM   13  C   UNL     1     -44.091  58.502 -60.107  1.00  0.00     0.026 A 
HETATM   14  C   UNL     1     -44.752  57.704 -59.191  1.00  0.00     0.119 A 
HETATM   15  N   UNL     1     -44.137  57.053 -58.180  1.00  0.00    -0.243 NA
ENDBRANCH   7   9
ENDBRANCH   5   7
ENDBRANCH   1   5
BRANCH   2  16
HETATM   16  C   UNL     1     -41.284  53.511 -54.038  1.00  0.00     0.033 A 
HETATM   17  C   UNL     1     -40.797  52.295 -54.524  1.00  0.00     0.023 A 
HETATM   18  C   UNL     1     -40.043  51.460 -53.692  1.00  0.00    -0.061 A 
HETATM   19  C   UNL     1     -39.531  50.139 -54.187  1.00  0.00     0.048 C 
HETATM   20  C   UNL     1     -39.753  51.875 -52.382  1.00  0.00     0.013 A 
HETATM   21  C   UNL     1     -40.213  53.106 -51.896  1.00  0.00    -0.061 A 
HETATM   22  C   UNL     1     -39.888  53.558 -50.503  1.00  0.00     0.048 C 
HETATM   23  C   UNL     1     -40.985  53.921 -52.731  1.00  0.00     0.023 A 
ENDBRANCH   2  16
TORSDOF 4
ENDMDL
MODEL 6
REMARK VINA RESULT:      -7.5      3.098      5.330
REMARK  4 active torsions:
REMARK  status: ('A' for Active; 'I' for Inactive)
REMARK    1  A    between atoms: C_4  and  N_5 
REMARK    2  A    between atoms: N_5  and  C_6 
REMARK    3  A    between atoms: C_6  and  N_7 
REMARK       I    between atoms: N_7  and  C_8 
REMARK    4  A    between atoms: C_8  and  C_9 
ROOT
HETATM    1  N   UNL     1     -42.235  55.778 -53.913  1.00  0.00    -0.299 N 
HETATM    2  C   UNL     1     -42.142  54.526 -54.512  1.00  0.00     0.257 C 
HETATM    3  O   UNL     1     -42.738  54.142 -55.508  1.00  0.00    -0.267 OA
HETATM    4  H   UNL     1     -41.879  55.836 -52.961  1.00  0.00     0.171 HD
ENDROOT
BRANCH   1   5
HETATM    5  C   UNL     1     -42.682  56.997 -54.379  1.00  0.00     0.180 C 
HETATM    6  S   UNL     1     -44.045  57.282 -55.300  1.00  0.00    -0.040 SA
BRANCH   5   7
HETATM    7  N   UNL     1     -41.898  58.083 -54.064  1.00  0.00    -0.318 N 
HETATM    8  H   UNL     1     -41.429  58.497 -54.860  1.00  0.00     0.170 HD
BRANCH   7   9
HETATM    9  C   UNL     1     -41.697  58.683 -52.812  1.00  0.00     0.129 A 
HETATM   10  C   UNL     1     -40.396  58.781 -52.333  1.00  0.00     0.057 A 
HETATM   11  C   UNL     1     -40.170  59.393 -51.095  1.00  0.00    -0.057 A 
HETATM   12  C   UNL     1     -38.788  59.512 -50.526  1.00  0.00     0.048 C 
HETATM   13  C   UNL     1     -41.263  59.884 -50.383  1.00  0.00     0.026 A 
HETATM   14  C   UNL     1     -42.525  59.740 -50.931  1.00  0.00     0.119 A 
HETATM   15  N   UNL     1     -42.764  59.144 -52.119  1.00  0.00    -0.243 NA
ENDBRANCH   7   9
ENDBRANCH   5   7
ENDBRANCH   1   5
BRANCH   2  16
HETATM   16  C   UNL     1     -41.300  53.571 -53.744  1.00  0.00     0.033 A 
HETATM   17  C   UNL     1     -40.842  52.410 -54.372  1.00  0.00     0.023 A 
HETATM   18  C   UNL     1     -40.090  51.475 -53.652  1.00  0.00    -0.061 A 
HETATM   19  C   UNL     1     -39.609  50.211 -54.302  1.00  0.00     0.048 C 
HETATM   20  C   UNL     1     -39.775  51.734 -52.309  1.00  0.00     0.013 A 
HETATM   21  C   UNL     1     -40.207  52.909 -51.679  1.00  0.00    -0.061 A 
HETATM   22  C   UNL     1     -39.855  53.195 -50.249  1.00  0.00     0.048 C 
HETATM   23  C   UNL     1     -40.976  53.825 -52.404  1.00  0.00     0.023 A 
ENDBRANCH   2  16
TORSDOF 4
ENDMDL
MODEL 7
REMARK VINA RESULT:      -7.4      2.792      5.072
REMARK  4 active torsions:
REMARK  status: ('A' for Active; 'I' for Inactive)
REMARK    1  A    between atoms: C_4  and  N_5 
REMARK    2  A    between atoms: N_5  and  C_6 
REMARK    3  A    between atoms: C_6  and  N_7 
REMARK       I    between atoms: N_7  and  C_8 
REMARK    4  A    between atoms: C_8  and  C_9 
ROOT
HETATM    1  N   UNL     1     -42.087  55.695 -54.462  1.00  0.00    -0.299 N 
HETATM    2  C   UNL     1     -42.298  54.347 -54.731  1.00  0.00     0.257 C 
HETATM    3  O   UNL     1     -43.159  53.868 -55.456  1.00  0.00    -0.267 OA
HETATM    4  H   UNL     1     -41.510  55.894 -53.649  1.00  0.00     0.171 HD
ENDROOT
BRANCH   1   5
HETATM    5  C   UNL     1     -42.476  56.843 -55.120  1.00  0.00     0.180 C 
HETATM    6  S   UNL     1     -42.627  57.053 -56.770  1.00  0.00    -0.040 SA
BRANCH   5   7
HETATM    7  N   UNL     1     -42.742  57.931 -54.322  1.00  0.00    -0.318 N 
HETATM    8  H   UNL     1     -42.279  58.781 -54.618  1.00  0.00     0.170 HD
BRANCH   7   9
HETATM    9  C   UNL     1     -43.574  58.007 -53.195  1.00  0.00     0.129 A 
HETATM   10  C   UNL     1     -44.453  59.080 -53.100  1.00  0.00     0.057 A 
HETATM   11  C   UNL     1     -45.305  59.167 -51.994  1.00  0.00    -0.057 A 
HETATM   12  C   UNL     1     -46.262  60.310 -51.836  1.00  0.00     0.048 C 
HETATM   13  C   UNL     1     -45.242  58.169 -51.021  1.00  0.00     0.026 A 
HETATM   14  C   UNL     1     -44.334  57.140 -51.192  1.00  0.00     0.119 A 
HETATM   15  N   UNL     1     -43.497  57.044 -52.248  1.00  0.00    -0.243 NA
ENDBRANCH   7   9
ENDBRANCH   5   7
ENDBRANCH   1   5
BRANCH   2  16
HETATM   16  C   UNL     1     -41.424  53.447 -53.934  1.00  0.00     0.033 A 
HETATM   17  C   UNL     1     -41.051  53.830 -52.643  1.00  0.00     0.023 A 
HETATM   18  C   UNL     1     -40.189  53.019 -51.895  1.00  0.00    -0.061 A 
HETATM   19  C   UNL     1     -39.758  53.424 -50.516  1.00  0.00     0.048 C 
HETATM   20  C   UNL     1     -39.736  51.809 -52.442  1.00  0.00     0.013 A 
HETATM   21  C   UNL     1     -40.128  51.404 -53.725  1.00  0.00    -0.061 A 
HETATM   22  C   UNL     1     -39.659  50.102 -54.303  1.00  0.00     0.048 C 
HETATM   23  C   UNL     1     -40.973  52.234 -54.470  1.00  0.00     0.023 A 
ENDBRANCH   2  16
TORSDOF 4
ENDMDL
MODEL 8
REMARK VINA RESULT:      -7.4     14.188     16.824
REMARK  4 active torsions:
REMARK  status: ('A' for Active; 'I' for Inactive)
REMARK    1  A    between atoms: C_4  and  N_5 
REMARK    2  A    between atoms: N_5  and  C_6 
REMARK    3  A    between atoms: C_6  and  N_7 
REMARK       I    between atoms: N_7  and  C_8 
REMARK    4  A    between atoms: C_8  and  C_9 
ROOT
HETATM    1  N   UNL     1     -37.165  41.177 -54.494  1.00  0.00    -0.299 N 
HETATM    2  C   UNL     1     -36.479  41.779 -55.543  1.00  0.00     0.257 C 
HETATM    3  O   UNL     1     -35.618  42.643 -55.458  1.00  0.00    -0.267 OA
HETATM    4  H   UNL     1     -38.014  40.680 -54.754  1.00  0.00     0.171 HD
ENDROOT
BRANCH   1   5
HETATM    5  C   UNL     1     -36.892  41.076 -53.146  1.00  0.00     0.180 C 
HETATM    6  S   UNL     1     -37.840  40.346 -51.981  1.00  0.00    -0.040 SA
BRANCH   5   7
HETATM    7  N   UNL     1     -35.723  41.665 -52.725  1.00  0.00    -0.318 N 
HETATM    8  H   UNL     1     -35.790  42.668 -52.597  1.00  0.00     0.170 HD
BRANCH   7   9
HETATM    9  C   UNL     1     -34.492  41.058 -52.436  1.00  0.00     0.129 A 
HETATM   10  C   UNL     1     -34.114  40.944 -51.103  1.00  0.00     0.057 A 
HETATM   11  C   UNL     1     -32.899  40.325 -50.790  1.00  0.00    -0.057 A 
HETATM   12  C   UNL     1     -32.438  40.188 -49.370  1.00  0.00     0.048 C 
HETATM   13  C   UNL     1     -32.106  39.843 -51.831  1.00  0.00     0.026 A 
HETATM   14  C   UNL     1     -32.555  40.003 -53.129  1.00  0.00     0.119 A 
HETATM   15  N   UNL     1     -33.720  40.607 -53.452  1.00  0.00    -0.243 NA
ENDBRANCH   7   9
ENDBRANCH   5   7
ENDBRANCH   1   5
BRANCH   2  16
HETATM   16  C   UNL     1     -36.974  41.363 -56.882  1.00  0.00     0.033 A 
HETATM   17  C   UNL     1     -37.454  40.062 -57.056  1.00  0.00     0.023 A 
HETATM   18  C   UNL     1     -37.878  39.636 -58.320  1.00  0.00    -0.061 A 
HETATM   19  C   UNL     1     -38.375  38.236 -58.532  1.00  0.00     0.048 C 
HETATM   20  C   UNL     1     -37.848  40.538 -59.395  1.00  0.00     0.013 A 
HETATM   21  C   UNL     1     -37.394  41.852 -59.223  1.00  0.00    -0.061 A 
HETATM   22  C   UNL     1     -37.379  42.822 -60.368  1.00  0.00     0.048 C 
HETATM   23  C   UNL     1     -36.953  42.259 -57.959  1.00  0.00     0.023 A 
ENDBRANCH   2  16
TORSDOF 4
ENDMDL
MODEL 9
REMARK VINA RESULT:      -7.2     14.153     16.073
REMARK  4 active torsions:
REMARK  status: ('A' for Active; 'I' for Inactive)
REMARK    1  A    between atoms: C_4  and  N_5 
REMARK    2  A    between atoms: N_5  and  C_6 
REMARK    3  A    between atoms: C_6  and  N_7 
REMARK       I    between atoms: N_7  and  C_8 
REMARK    4  A    between atoms: C_8  and  C_9 
ROOT
HETATM    1  N   UNL     1     -36.341  40.748 -52.003  1.00  0.00    -0.299 N 
HETATM    2  C   UNL     1     -35.225  41.244 -51.339  1.00  0.00     0.257 C 
HETATM    3  O   UNL     1     -34.669  42.316 -51.534  1.00  0.00    -0.267 OA
HETATM    4  H   UNL     1     -36.506  39.750 -51.898  1.00  0.00     0.171 HD
ENDROOT
BRANCH   1   5
HETATM    5  C   UNL     1     -37.319  41.363 -52.757  1.00  0.00     0.180 C 
HETATM    6  S   UNL     1     -38.967  41.114 -52.659  1.00  0.00    -0.040 SA
BRANCH   5   7
HETATM    7  N   UNL     1     -36.874  42.256 -53.704  1.00  0.00    -0.318 N 
HETATM    8  H   UNL     1     -37.030  43.226 -53.460  1.00  0.00     0.170 HD
BRANCH   7   9
HETATM    9  C   UNL     1     -36.225  41.992 -54.920  1.00  0.00     0.129 A 
HETATM   10  C   UNL     1     -36.936  42.190 -56.098  1.00  0.00     0.057 A 
HETATM   11  C   UNL     1     -36.303  41.951 -57.323  1.00  0.00    -0.057 A 
HETATM   12  C   UNL     1     -37.028  42.136 -58.622  1.00  0.00     0.048 C 
HETATM   13  C   UNL     1     -34.978  41.519 -57.318  1.00  0.00     0.026 A 
HETATM   14  C   UNL     1     -34.347  41.342 -56.100  1.00  0.00     0.119 A 
HETATM   15  N   UNL     1     -34.943  41.559 -54.907  1.00  0.00    -0.243 NA
ENDBRANCH   7   9
ENDBRANCH   5   7
ENDBRANCH   1   5
BRANCH   2  16
HETATM   16  C   UNL     1     -34.631  40.271 -50.385  1.00  0.00     0.033 A 
HETATM   17  C   UNL     1     -35.420  39.224 -49.901  1.00  0.00     0.023 A 
HETATM   18  C   UNL     1     -34.894  38.327 -48.965  1.00  0.00    -0.061 A 
HETATM   19  C   UNL     1     -35.733  37.210 -48.415  1.00  0.00     0.048 C 
HETATM   20  C   UNL     1     -33.561  38.470 -48.548  1.00  0.00     0.013 A 
HETATM   21  C   UNL     1     -32.754  39.500 -49.050  1.00  0.00    -0.061 A 
HETATM   22  C   UNL     1     -31.324  39.642 -48.620  1.00  0.00     0.048 C 
HETATM   23  C   UNL     1     -33.299  40.403 -49.969  1.00  0.00     0.023 A 
ENDBRANCH   2  16
TORSDOF 4
ENDMDL
MODEL 10
REMARK VINA RESULT:      -7.1     15.050     17.684
REMARK  4 active torsions:
REMARK  status: ('A' for Active; 'I' for Inactive)
REMARK    1  A    between atoms: C_4  and  N_5 
REMARK    2  A    between atoms: N_5  and  C_6 
REMARK    3  A    between atoms: C_6  and  N_7 
REMARK       I    between atoms: N_7  and  C_8 
REMARK    4  A    between atoms: C_8  and  C_9 
ROOT
HETATM    1  N   UNL     1     -33.977  40.246 -55.690  1.00  0.00    -0.299 N 
HETATM    2  C   UNL     1     -34.892  41.266 -55.927  1.00  0.00     0.257 C 
HETATM    3  O   UNL     1     -35.023  42.299 -55.286  1.00  0.00    -0.267 OA
HETATM    4  H   UNL     1     -34.179  39.361 -56.149  1.00  0.00     0.171 HD
ENDROOT
BRANCH   1   5
HETATM    5  C   UNL     1     -32.797  40.207 -54.977  1.00  0.00     0.180 C 
HETATM    6  S   UNL     1     -31.394  39.406 -55.399  1.00  0.00    -0.040 SA
BRANCH   5   7
HETATM    7  N   UNL     1     -32.797  40.885 -53.781  1.00  0.00    -0.318 N 
HETATM    8  H   UNL     1     -32.386  41.809 -53.831  1.00  0.00     0.170 HD
BRANCH   7   9
HETATM    9  C   UNL     1     -33.307  40.472 -52.540  1.00  0.00     0.129 A 
HETATM   10  C   UNL     1     -32.434  40.412 -51.460  1.00  0.00     0.057 A 
HETATM   11  C   UNL     1     -32.924  40.020 -50.209  1.00  0.00    -0.057 A 
HETATM   12  C   UNL     1     -32.022  39.927 -49.015  1.00  0.00     0.048 C 
HETATM   13  C   UNL     1     -34.276  39.701 -50.091  1.00  0.00     0.026 A 
HETATM   14  C   UNL     1     -35.073  39.781 -51.219  1.00  0.00     0.119 A 
HETATM   15  N   UNL     1     -34.616  40.148 -52.436  1.00  0.00    -0.243 NA
ENDBRANCH   7   9
ENDBRANCH   5   7
ENDBRANCH   1   5
BRANCH   2  16
HETATM   16  C   UNL     1     -35.852  40.950 -57.017  1.00  0.00     0.033 A 
HETATM   17  C   UNL     1     -36.109  41.911 -57.998  1.00  0.00     0.023 A 
HETATM   18  C   UNL     1     -37.047  41.651 -59.004  1.00  0.00    -0.061 A 
HETATM   19  C   UNL     1     -37.355  42.679 -60.053  1.00  0.00     0.048 C 
HETATM   20  C   UNL     1     -37.695  40.406 -59.034  1.00  0.00     0.013 A 
HETATM   21  C   UNL     1     -37.422  39.426 -58.070  1.00  0.00    -0.061 A 
HETATM   22  C   UNL     1     -38.101  38.088 -58.113  1.00  0.00     0.048 C 
HETATM   23  C   UNL     1     -36.499  39.707 -57.058  1.00  0.00     0.023 A 
ENDBRANCH   2  16
TORSDOF 4
ENDMDL
