MODEL 1
REMARK VINA RESULT:      -7.4      0.000      0.000
REMARK  5 active torsions:
REMARK  status: ('A' for Active; 'I' for Inactive)
REMARK    1  A    between atoms: C_3  and  N_4 
REMARK       I    between atoms: N_4  and  C_5 
REMARK       I    between atoms: C_5  and  N_6 
REMARK    2  A    between atoms: N_6  and  C_7 
REMARK    3  A    between atoms: C_7  and  C_8 
REMARK    4  A    between atoms: C_8  and  O_9 
REMARK    5  A    between atoms: O_9  and  C_10 
ROOT
HETATM    1  N   UNL     1     -41.779  56.429 -52.377  1.00  0.00    -0.307 N 
HETATM    2  C   UNL     1     -42.539  56.365 -51.249  1.00  0.00     0.320 C 
HETATM    3  N   UNL     1     -42.274  55.306 -50.431  1.00  0.00    -0.340 N 
HETATM    4  O   UNL     1     -43.372  57.187 -50.885  1.00  0.00    -0.247 OA
HETATM    5  H   UNL     1     -40.822  56.164 -52.174  1.00  0.00     0.170 HD
HETATM    6  H   UNL     1     -42.862  55.375 -49.608  1.00  0.00     0.164 HD
ENDROOT
BRANCH   3   7
HETATM    7  C   UNL     1     -41.909  53.938 -50.801  1.00  0.00     0.156 C 
BRANCH   7   8
HETATM    8  C   UNL     1     -40.509  53.415 -50.409  1.00  0.00     0.142 C 
HETATM    9  C   UNL     1     -39.826  54.444 -49.506  1.00  0.00     0.042 C 
BRANCH   8  10
HETATM   10  O   UNL     1     -39.754  53.238 -51.614  1.00  0.00    -0.343 OA
BRANCH  10  11
HETATM   11  C   UNL     1     -39.757  52.035 -52.266  1.00  0.00     0.086 A 
HETATM   12  C   UNL     1     -40.041  52.068 -53.641  1.00  0.00     0.044 A 
HETATM   13 BR   UNL     1     -40.380  53.705 -54.545  1.00  0.00    -0.048 Br
HETATM   14  C   UNL     1     -40.078  50.890 -54.393  1.00  0.00     0.022 A 
HETATM   15  C   UNL     1     -39.840  49.665 -53.776  1.00  0.00     0.002 A 
HETATM   16  C   UNL     1     -39.569  49.619 -52.410  1.00  0.00     0.003 A 
HETATM   17  C   UNL     1     -39.530  50.798 -51.657  1.00  0.00     0.038 A 
ENDBRANCH  10  11
ENDBRANCH   8  10
ENDBRANCH   7   8
ENDBRANCH   3   7
BRANCH   1  18
HETATM   18  C   UNL     1     -41.950  57.316 -53.464  1.00  0.00     0.059 A 
HETATM   19  C   UNL     1     -42.744  57.088 -54.599  1.00  0.00    -0.032 A 
HETATM   20  C   UNL     1     -43.525  55.832 -54.861  1.00  0.00     0.050 C 
HETATM   21  C   UNL     1     -42.812  58.099 -55.575  1.00  0.00     0.028 A 
HETATM   22  C   UNL     1     -42.056  59.251 -55.425  1.00  0.00     0.117 A 
HETATM   23  N   UNL     1     -41.237  59.471 -54.381  1.00  0.00    -0.271 NA
HETATM   24  C   UNL     1     -41.209  58.505 -53.433  1.00  0.00     0.146 A 
ENDBRANCH   1  18
TORSDOF 5
ENDMDL
MODEL 2
REMARK VINA RESULT:      -7.0      2.353      3.257
REMARK  5 active torsions:
REMARK  status: ('A' for Active; 'I' for Inactive)
REMARK    1  A    between atoms: C_3  and  N_4 
REMARK       I    between atoms: N_4  and  C_5 
REMARK       I    between atoms: C_5  and  N_6 
REMARK    2  A    between atoms: N_6  and  C_7 
REMARK    3  A    between atoms: C_7  and  C_8 
REMARK    4  A    between atoms: C_8  and  O_9 
REMARK    5  A    between atoms: O_9  and  C_10 
ROOT
HETATM    1  N   UNL     1     -42.994  57.321 -55.293  1.00  0.00    -0.307 N 
HETATM    2  C   UNL     1     -44.278  57.078 -54.909  1.00  0.00     0.320 C 
HETATM    3  N   UNL     1     -44.434  56.053 -54.023  1.00  0.00    -0.340 N 
HETATM    4  O   UNL     1     -45.269  57.723 -55.233  1.00  0.00    -0.247 OA
HETATM    5  H   UNL     1     -42.365  57.224 -54.505  1.00  0.00     0.170 HD
HETATM    6  H   UNL     1     -45.413  55.983 -53.774  1.00  0.00     0.164 HD
ENDROOT
BRANCH   3   7
HETATM    7  C   UNL     1     -43.700  54.788 -53.956  1.00  0.00     0.156 C 
BRANCH   7   8
HETATM    8  C   UNL     1     -43.002  54.408 -52.631  1.00  0.00     0.142 C 
HETATM    9  C   UNL     1     -43.338  55.458 -51.570  1.00  0.00     0.042 C 
BRANCH   8  10
HETATM   10  O   UNL     1     -41.590  54.382 -52.871  1.00  0.00    -0.343 OA
BRANCH  10  11
HETATM   11  C   UNL     1     -40.937  53.193 -53.047  1.00  0.00     0.086 A 
HETATM   12  C   UNL     1     -40.153  52.743 -51.972  1.00  0.00     0.044 A 
HETATM   13 BR   UNL     1     -40.031  53.730 -50.352  1.00  0.00    -0.048 Br
HETATM   14  C   UNL     1     -39.439  51.544 -52.058  1.00  0.00     0.022 A 
HETATM   15  C   UNL     1     -39.494  50.786 -53.225  1.00  0.00     0.002 A 
HETATM   16  C   UNL     1     -40.258  51.229 -54.302  1.00  0.00     0.003 A 
HETATM   17  C   UNL     1     -40.974  52.428 -54.216  1.00  0.00     0.038 A 
ENDBRANCH  10  11
ENDBRANCH   8  10
ENDBRANCH   7   8
ENDBRANCH   3   7
BRANCH   1  18
HETATM   18  C   UNL     1     -42.568  58.205 -56.311  1.00  0.00     0.059 A 
HETATM   19  C   UNL     1     -42.514  57.919 -57.685  1.00  0.00    -0.032 A 
HETATM   20  C   UNL     1     -42.875  56.597 -58.300  1.00  0.00     0.050 C 
HETATM   21  C   UNL     1     -42.081  58.934 -58.557  1.00  0.00     0.028 A 
HETATM   22  C   UNL     1     -41.665  60.151 -58.042  1.00  0.00     0.117 A 
HETATM   23  N   UNL     1     -41.644  60.433 -56.727  1.00  0.00    -0.271 NA
HETATM   24  C   UNL     1     -42.096  59.459 -55.903  1.00  0.00     0.146 A 
ENDBRANCH   1  18
TORSDOF 5
ENDMDL
MODEL 3
REMARK VINA RESULT:      -7.0      4.513      5.821
REMARK  5 active torsions:
REMARK  status: ('A' for Active; 'I' for Inactive)
REMARK    1  A    between atoms: C_3  and  N_4 
REMARK       I    between atoms: N_4  and  C_5 
REMARK       I    between atoms: C_5  and  N_6 
REMARK    2  A    between atoms: N_6  and  C_7 
REMARK    3  A    between atoms: C_7  and  C_8 
REMARK    4  A    between atoms: C_8  and  O_9 
REMARK    5  A    between atoms: O_9  and  C_10 
ROOT
HETATM    1  N   UNL     1     -43.988  56.191 -58.316  1.00  0.00    -0.307 N 
HETATM    2  C   UNL     1     -42.869  56.963 -58.242  1.00  0.00     0.320 C 
HETATM    3  N   UNL     1     -42.096  56.760 -57.137  1.00  0.00    -0.340 N 
HETATM    4  O   UNL     1     -42.477  57.758 -59.088  1.00  0.00    -0.247 OA
HETATM    5  H   UNL     1     -43.790  55.250 -57.995  1.00  0.00     0.170 HD
HETATM    6  H   UNL     1     -41.276  57.351 -57.200  1.00  0.00     0.164 HD
ENDROOT
BRANCH   3   7
HETATM    7  C   UNL     1     -42.523  56.460 -55.769  1.00  0.00     0.156 C 
BRANCH   7   8
HETATM    8  C   UNL     1     -42.298  55.033 -55.221  1.00  0.00     0.142 C 
HETATM    9  C   UNL     1     -43.579  54.553 -54.537  1.00  0.00     0.042 C 
BRANCH   8  10
HETATM   10  O   UNL     1     -41.224  55.092 -54.274  1.00  0.00    -0.343 OA
BRANCH  10  11
HETATM   11  C   UNL     1     -40.723  53.946 -53.720  1.00  0.00     0.086 A 
HETATM   12  C   UNL     1     -40.665  53.899 -52.318  1.00  0.00     0.044 A 
HETATM   13 BR   UNL     1     -41.276  55.350 -51.251  1.00  0.00    -0.048 Br
HETATM   14  C   UNL     1     -40.159  52.775 -51.658  1.00  0.00     0.022 A 
HETATM   15  C   UNL     1     -39.697  51.688 -52.395  1.00  0.00     0.002 A 
HETATM   16  C   UNL     1     -39.738  51.728 -53.786  1.00  0.00     0.003 A 
HETATM   17  C   UNL     1     -40.246  52.851 -54.447  1.00  0.00     0.038 A 
ENDBRANCH  10  11
ENDBRANCH   8  10
ENDBRANCH   7   8
ENDBRANCH   3   7
BRANCH   1  18
HETATM   18  C   UNL     1     -45.037  56.307 -59.257  1.00  0.00     0.059 A 
HETATM   19  C   UNL     1     -46.153  57.152 -59.149  1.00  0.00    -0.032 A 
HETATM   20  C   UNL     1     -46.434  58.057 -57.984  1.00  0.00     0.050 C 
HETATM   21  C   UNL     1     -47.090  57.150 -60.198  1.00  0.00     0.028 A 
HETATM   22  C   UNL     1     -46.924  56.283 -61.266  1.00  0.00     0.117 A 
HETATM   23  N   UNL     1     -45.900  55.417 -61.367  1.00  0.00    -0.271 NA
HETATM   24  C   UNL     1     -44.988  55.455 -60.367  1.00  0.00     0.146 A 
ENDBRANCH   1  18
TORSDOF 5
ENDMDL
MODEL 4
REMARK VINA RESULT:      -6.9      3.163      4.105
REMARK  5 active torsions:
REMARK  status: ('A' for Active; 'I' for Inactive)
REMARK    1  A    between atoms: C_3  and  N_4 
REMARK       I    between atoms: N_4  and  C_5 
REMARK       I    between atoms: C_5  and  N_6 
REMARK    2  A    between atoms: N_6  and  C_7 
REMARK    3  A    between atoms: C_7  and  C_8 
REMARK    4  A    between atoms: C_8  and  O_9 
REMARK    5  A    between atoms: O_9  and  C_10 
ROOT
HETATM    1  N   UNL     1     -42.106  57.025 -57.161  1.00  0.00    -0.307 N 
HETATM    2  C   UNL     1     -42.747  56.990 -55.959  1.00  0.00     0.320 C 
HETATM    3  N   UNL     1     -42.142  56.229 -55.002  1.00  0.00    -0.340 N 
HETATM    4  O   UNL     1     -43.757  57.614 -55.655  1.00  0.00    -0.247 OA
HETATM    5  H   UNL     1     -41.103  57.074 -57.024  1.00  0.00     0.170 HD
HETATM    6  H   UNL     1     -42.675  56.303 -54.143  1.00  0.00     0.164 HD
ENDROOT
BRANCH   3   7
HETATM    7  C   UNL     1     -41.424  54.964 -55.163  1.00  0.00     0.156 C 
BRANCH   7   8
HETATM    8  C   UNL     1     -41.677  53.835 -54.139  1.00  0.00     0.142 C 
HETATM    9  C   UNL     1     -42.642  54.342 -53.065  1.00  0.00     0.042 C 
BRANCH   8  10
HETATM   10  O   UNL     1     -40.418  53.489 -53.548  1.00  0.00    -0.343 OA
BRANCH  10  11
HETATM   11  C   UNL     1     -40.140  52.192 -53.214  1.00  0.00     0.086 A 
HETATM   12  C   UNL     1     -39.893  51.933 -51.856  1.00  0.00     0.044 A 
HETATM   13 BR   UNL     1     -39.966  53.315 -50.553  1.00  0.00    -0.048 Br
HETATM   14  C   UNL     1     -39.590  50.640 -51.417  1.00  0.00     0.022 A 
HETATM   15  C   UNL     1     -39.523  49.594 -52.333  1.00  0.00     0.002 A 
HETATM   16  C   UNL     1     -39.754  49.842 -53.684  1.00  0.00     0.003 A 
HETATM   17  C   UNL     1     -40.059  51.135 -54.124  1.00  0.00     0.038 A 
ENDBRANCH  10  11
ENDBRANCH   8  10
ENDBRANCH   7   8
ENDBRANCH   3   7
BRANCH   1  18
HETATM   18  C   UNL     1     -42.588  57.595 -58.362  1.00  0.00     0.059 A 
HETATM   19  C   UNL     1     -43.342  56.934 -59.344  1.00  0.00    -0.032 A 
HETATM   20  C   UNL     1     -43.735  55.485 -59.294  1.00  0.00     0.050 C 
HETATM   21  C   UNL     1     -43.755  57.670 -60.469  1.00  0.00     0.028 A 
HETATM   22  C   UNL     1     -43.362  58.992 -60.608  1.00  0.00     0.117 A 
HETATM   23  N   UNL     1     -42.587  59.634 -59.716  1.00  0.00    -0.271 NA
HETATM   24  C   UNL     1     -42.226  58.922 -58.622  1.00  0.00     0.146 A 
ENDBRANCH   1  18
TORSDOF 5
ENDMDL
MODEL 5
REMARK VINA RESULT:      -6.7      2.124      2.922
REMARK  5 active torsions:
REMARK  status: ('A' for Active; 'I' for Inactive)
REMARK    1  A    between atoms: C_3  and  N_4 
REMARK       I    between atoms: N_4  and  C_5 
REMARK       I    between atoms: C_5  and  N_6 
REMARK    2  A    between atoms: N_6  and  C_7 
REMARK    3  A    between atoms: C_7  and  C_8 
REMARK    4  A    between atoms: C_8  and  O_9 
REMARK    5  A    between atoms: O_9  and  C_10 
ROOT
HETATM    1  N   UNL     1     -42.883  56.845 -54.821  1.00  0.00    -0.307 N 
HETATM    2  C   UNL     1     -44.064  56.792 -54.144  1.00  0.00     0.320 C 
HETATM    3  N   UNL     1     -44.022  56.126 -52.955  1.00  0.00    -0.340 N 
HETATM    4  O   UNL     1     -45.115  57.330 -54.473  1.00  0.00    -0.247 OA
HETATM    5  H   UNL     1     -42.114  56.992 -54.177  1.00  0.00     0.170 HD
HETATM    6  H   UNL     1     -44.934  56.180 -52.519  1.00  0.00     0.164 HD
ENDROOT
BRANCH   3   7
HETATM    7  C   UNL     1     -43.255  54.928 -52.608  1.00  0.00     0.156 C 
BRANCH   7   8
HETATM    8  C   UNL     1     -42.156  55.041 -51.528  1.00  0.00     0.142 C 
HETATM    9  C   UNL     1     -42.156  56.463 -50.962  1.00  0.00     0.042 C 
BRANCH   8  10
HETATM   10  O   UNL     1     -40.898  54.757 -52.151  1.00  0.00    -0.343 OA
BRANCH  10  11
HETATM   11  C   UNL     1     -40.439  53.471 -52.238  1.00  0.00     0.086 A 
HETATM   12  C   UNL     1     -40.190  52.979 -53.529  1.00  0.00     0.044 A 
HETATM   13 BR   UNL     1     -40.458  54.060 -55.071  1.00  0.00    -0.048 Br
HETATM   14  C   UNL     1     -39.729  51.674 -53.722  1.00  0.00     0.022 A 
HETATM   15  C   UNL     1     -39.520  50.843 -52.626  1.00  0.00     0.002 A 
HETATM   16  C   UNL     1     -39.775  51.315 -51.341  1.00  0.00     0.003 A 
HETATM   17  C   UNL     1     -40.235  52.622 -51.146  1.00  0.00     0.038 A 
ENDBRANCH  10  11
ENDBRANCH   8  10
ENDBRANCH   7   8
ENDBRANCH   3   7
BRANCH   1  18
HETATM   18  C   UNL     1     -42.680  57.324 -56.136  1.00  0.00     0.059 A 
HETATM   19  C   UNL     1     -42.341  58.638 -56.493  1.00  0.00    -0.032 A 
HETATM   20  C   UNL     1     -42.169  59.773 -55.523  1.00  0.00     0.050 C 
HETATM   21  C   UNL     1     -42.158  58.928 -57.857  1.00  0.00     0.028 A 
HETATM   22  C   UNL     1     -42.375  57.941 -58.804  1.00  0.00     0.117 A 
HETATM   23  N   UNL     1     -42.763  56.690 -58.498  1.00  0.00    -0.271 NA
HETATM   24  C   UNL     1     -42.900  56.416 -57.180  1.00  0.00     0.146 A 
ENDBRANCH   1  18
TORSDOF 5
ENDMDL
MODEL 6
REMARK VINA RESULT:      -6.7      2.876      3.421
REMARK  5 active torsions:
REMARK  status: ('A' for Active; 'I' for Inactive)
REMARK    1  A    between atoms: C_3  and  N_4 
REMARK       I    between atoms: N_4  and  C_5 
REMARK       I    between atoms: C_5  and  N_6 
REMARK    2  A    between atoms: N_6  and  C_7 
REMARK    3  A    between atoms: C_7  and  C_8 
REMARK    4  A    between atoms: C_8  and  O_9 
REMARK    5  A    between atoms: O_9  and  C_10 
ROOT
HETATM    1  N   UNL     1     -44.280  57.738 -50.991  1.00  0.00    -0.307 N 
HETATM    2  C   UNL     1     -44.024  56.954 -52.074  1.00  0.00     0.320 C 
HETATM    3  N   UNL     1     -43.972  55.615 -51.822  1.00  0.00    -0.340 N 
HETATM    4  O   UNL     1     -43.902  57.333 -53.234  1.00  0.00    -0.247 OA
HETATM    5  H   UNL     1     -44.973  57.301 -50.394  1.00  0.00     0.170 HD
HETATM    6  H   UNL     1     -43.817  55.124 -52.695  1.00  0.00     0.164 HD
ENDROOT
BRANCH   3   7
HETATM    7  C   UNL     1     -43.443  54.930 -50.641  1.00  0.00     0.156 C 
BRANCH   7   8
HETATM    8  C   UNL     1     -41.924  54.661 -50.560  1.00  0.00     0.142 C 
HETATM    9  C   UNL     1     -41.254  55.801 -49.790  1.00  0.00     0.042 C 
BRANCH   8  10
HETATM   10  O   UNL     1     -41.417  54.603 -51.898  1.00  0.00    -0.343 OA
BRANCH  10  11
HETATM   11  C   UNL     1     -40.795  53.475 -52.358  1.00  0.00     0.086 A 
HETATM   12  C   UNL     1     -41.093  53.086 -53.674  1.00  0.00     0.044 A 
HETATM   13 BR   UNL     1     -42.285  54.093 -54.761  1.00  0.00    -0.048 Br
HETATM   14  C   UNL     1     -40.515  51.941 -54.231  1.00  0.00     0.022 A 
HETATM   15  C   UNL     1     -39.638  51.169 -53.475  1.00  0.00     0.002 A 
HETATM   16  C   UNL     1     -39.344  51.538 -52.165  1.00  0.00     0.003 A 
HETATM   17  C   UNL     1     -39.921  52.684 -51.607  1.00  0.00     0.038 A 
ENDBRANCH  10  11
ENDBRANCH   8  10
ENDBRANCH   7   8
ENDBRANCH   3   7
BRANCH   1  18
HETATM   18  C   UNL     1     -44.228  59.150 -50.936  1.00  0.00     0.059 A 
HETATM   19  C   UNL     1     -43.065  59.932 -50.863  1.00  0.00    -0.032 A 
HETATM   20  C   UNL     1     -41.667  59.385 -50.797  1.00  0.00     0.050 C 
HETATM   21  C   UNL     1     -43.207  61.331 -50.837  1.00  0.00     0.028 A 
HETATM   22  C   UNL     1     -44.473  61.893 -50.822  1.00  0.00     0.117 A 
HETATM   23  N   UNL     1     -45.607  61.170 -50.826  1.00  0.00    -0.271 NA
HETATM   24  C   UNL     1     -45.454  59.826 -50.886  1.00  0.00     0.146 A 
ENDBRANCH   1  18
TORSDOF 5
ENDMDL
MODEL 7
REMARK VINA RESULT:      -6.6      1.968      2.131
REMARK  5 active torsions:
REMARK  status: ('A' for Active; 'I' for Inactive)
REMARK    1  A    between atoms: C_3  and  N_4 
REMARK       I    between atoms: N_4  and  C_5 
REMARK       I    between atoms: C_5  and  N_6 
REMARK    2  A    between atoms: N_6  and  C_7 
REMARK    3  A    between atoms: C_7  and  C_8 
REMARK    4  A    between atoms: C_8  and  O_9 
REMARK    5  A    between atoms: O_9  and  C_10 
ROOT
HETATM    1  N   UNL     1     -43.203  56.779 -52.095  1.00  0.00    -0.307 N 
HETATM    2  C   UNL     1     -42.532  55.948 -52.941  1.00  0.00     0.320 C 
HETATM    3  N   UNL     1     -42.583  54.625 -52.615  1.00  0.00    -0.340 N 
HETATM    4  O   UNL     1     -41.956  56.272 -53.973  1.00  0.00    -0.247 OA
HETATM    5  H   UNL     1     -44.076  56.356 -51.804  1.00  0.00     0.170 HD
HETATM    6  H   UNL     1     -42.091  54.095 -53.325  1.00  0.00     0.164 HD
ENDROOT
BRANCH   3   7
HETATM    7  C   UNL     1     -42.572  54.012 -51.286  1.00  0.00     0.156 C 
BRANCH   7   8
HETATM    8  C   UNL     1     -41.211  53.739 -50.609  1.00  0.00     0.142 C 
HETATM    9  C   UNL     1     -40.767  54.995 -49.855  1.00  0.00     0.042 C 
BRANCH   8  10
HETATM   10  O   UNL     1     -40.266  53.420 -51.637  1.00  0.00    -0.343 OA
BRANCH  10  11
HETATM   11  C   UNL     1     -40.014  52.117 -51.969  1.00  0.00     0.086 A 
HETATM   12  C   UNL     1     -39.967  51.817 -53.340  1.00  0.00     0.044 A 
HETATM   13 BR   UNL     1     -40.219  53.163 -54.659  1.00  0.00    -0.048 Br
HETATM   14  C   UNL     1     -39.726  50.512 -53.780  1.00  0.00     0.022 A 
HETATM   15  C   UNL     1     -39.538  49.491 -52.854  1.00  0.00     0.002 A 
HETATM   16  C   UNL     1     -39.595  49.774 -51.491  1.00  0.00     0.003 A 
HETATM   17  C   UNL     1     -39.834  51.080 -51.049  1.00  0.00     0.038 A 
ENDBRANCH  10  11
ENDBRANCH   8  10
ENDBRANCH   7   8
ENDBRANCH   3   7
BRANCH   1  18
HETATM   18  C   UNL     1     -43.180  58.193 -52.102  1.00  0.00     0.059 A 
HETATM   19  C   UNL     1     -43.971  59.027 -52.906  1.00  0.00    -0.032 A 
HETATM   20  C   UNL     1     -44.960  58.546 -53.929  1.00  0.00     0.050 C 
HETATM   21  C   UNL     1     -43.827  60.419 -52.761  1.00  0.00     0.028 A 
HETATM   22  C   UNL     1     -42.879  60.924 -51.886  1.00  0.00     0.117 A 
HETATM   23  N   UNL     1     -42.062  60.150 -51.148  1.00  0.00    -0.271 NA
HETATM   24  C   UNL     1     -42.237  58.813 -51.273  1.00  0.00     0.146 A 
ENDBRANCH   1  18
TORSDOF 5
ENDMDL
MODEL 8
REMARK VINA RESULT:      -6.5      2.283      6.095
REMARK  5 active torsions:
REMARK  status: ('A' for Active; 'I' for Inactive)
REMARK    1  A    between atoms: C_3  and  N_4 
REMARK       I    between atoms: N_4  and  C_5 
REMARK       I    between atoms: C_5  and  N_6 
REMARK    2  A    between atoms: N_6  and  C_7 
REMARK    3  A    between atoms: C_7  and  C_8 
REMARK    4  A    between atoms: C_8  and  O_9 
REMARK    5  A    between atoms: O_9  and  C_10 
ROOT
HETATM    1  N   UNL     1     -40.997  53.480 -50.642  1.00  0.00    -0.307 N 
HETATM    2  C   UNL     1     -40.337  54.468 -49.976  1.00  0.00     0.320 C 
HETATM    3  N   UNL     1     -41.066  55.596 -49.743  1.00  0.00    -0.340 N 
HETATM    4  O   UNL     1     -39.198  54.407 -49.528  1.00  0.00    -0.247 OA
HETATM    5  H   UNL     1     -41.954  53.414 -50.317  1.00  0.00     0.170 HD
HETATM    6  H   UNL     1     -40.499  56.246 -49.211  1.00  0.00     0.164 HD
ENDROOT
BRANCH   3   7
HETATM    7  C   UNL     1     -42.067  56.229 -50.603  1.00  0.00     0.156 C 
BRANCH   7   8
HETATM    8  C   UNL     1     -41.594  56.927 -51.898  1.00  0.00     0.142 C 
HETATM    9  C   UNL     1     -41.039  58.309 -51.547  1.00  0.00     0.042 C 
BRANCH   8  10
HETATM   10  O   UNL     1     -42.727  57.055 -52.765  1.00  0.00    -0.343 OA
BRANCH  10  11
HETATM   11  C   UNL     1     -42.803  56.328 -53.921  1.00  0.00     0.086 A 
HETATM   12  C   UNL     1     -42.556  57.021 -55.117  1.00  0.00     0.044 A 
HETATM   13 BR   UNL     1     -42.115  58.871 -55.118  1.00  0.00    -0.048 Br
HETATM   14  C   UNL     1     -42.619  56.367 -56.351  1.00  0.00     0.022 A 
HETATM   15  C   UNL     1     -42.940  55.014 -56.403  1.00  0.00     0.002 A 
HETATM   16  C   UNL     1     -43.200  54.318 -55.225  1.00  0.00     0.003 A 
HETATM   17  C   UNL     1     -43.135  54.972 -53.989  1.00  0.00     0.038 A 
ENDBRANCH  10  11
ENDBRANCH   8  10
ENDBRANCH   7   8
ENDBRANCH   3   7
BRANCH   1  18
HETATM   18  C   UNL     1     -40.440  52.284 -51.153  1.00  0.00     0.059 A 
HETATM   19  C   UNL     1     -40.051  52.056 -52.482  1.00  0.00    -0.032 A 
HETATM   20  C   UNL     1     -40.196  53.049 -53.600  1.00  0.00     0.050 C 
HETATM   21  C   UNL     1     -39.493  50.806 -52.804  1.00  0.00     0.028 A 
HETATM   22  C   UNL     1     -39.402  49.823 -51.832  1.00  0.00     0.117 A 
HETATM   23  N   UNL     1     -39.825  49.989 -50.566  1.00  0.00    -0.271 NA
HETATM   24  C   UNL     1     -40.326  51.209 -50.262  1.00  0.00     0.146 A 
ENDBRANCH   1  18
TORSDOF 5
ENDMDL
MODEL 9
REMARK VINA RESULT:      -6.5      2.971      4.775
REMARK  5 active torsions:
REMARK  status: ('A' for Active; 'I' for Inactive)
REMARK    1  A    between atoms: C_3  and  N_4 
REMARK       I    between atoms: N_4  and  C_5 
REMARK       I    between atoms: C_5  and  N_6 
REMARK    2  A    between atoms: N_6  and  C_7 
REMARK    3  A    between atoms: C_7  and  C_8 
REMARK    4  A    between atoms: C_8  and  O_9 
REMARK    5  A    between atoms: O_9  and  C_10 
ROOT
HETATM    1  N   UNL     1     -43.678  56.534 -56.426  1.00  0.00    -0.307 N 
HETATM    2  C   UNL     1     -43.553  55.356 -55.754  1.00  0.00     0.320 C 
HETATM    3  N   UNL     1     -44.101  55.340 -54.505  1.00  0.00    -0.340 N 
HETATM    4  O   UNL     1     -43.059  54.321 -56.186  1.00  0.00    -0.247 OA
HETATM    5  H   UNL     1     -44.593  56.938 -56.262  1.00  0.00     0.170 HD
HETATM    6  H   UNL     1     -43.989  54.413 -54.112  1.00  0.00     0.164 HD
ENDROOT
BRANCH   3   7
HETATM    7  C   UNL     1     -44.144  56.417 -53.515  1.00  0.00     0.156 C 
BRANCH   7   8
HETATM    8  C   UNL     1     -43.084  56.430 -52.391  1.00  0.00     0.142 C 
HETATM    9  C   UNL     1     -41.856  57.206 -52.872  1.00  0.00     0.042 C 
BRANCH   8  10
HETATM   10  O   UNL     1     -42.730  55.072 -52.105  1.00  0.00    -0.343 OA
BRANCH  10  11
HETATM   11  C   UNL     1     -41.828  54.781 -51.119  1.00  0.00     0.086 A 
HETATM   12  C   UNL     1     -40.771  53.925 -51.467  1.00  0.00     0.044 A 
HETATM   13 BR   UNL     1     -40.599  53.228 -53.228  1.00  0.00    -0.048 Br
HETATM   14  C   UNL     1     -39.804  53.560 -50.526  1.00  0.00     0.022 A 
HETATM   15  C   UNL     1     -39.887  54.042 -49.223  1.00  0.00     0.002 A 
HETATM   16  C   UNL     1     -40.938  54.883 -48.863  1.00  0.00     0.003 A 
HETATM   17  C   UNL     1     -41.906  55.249 -49.804  1.00  0.00     0.038 A 
ENDBRANCH  10  11
ENDBRANCH   8  10
ENDBRANCH   7   8
ENDBRANCH   3   7
BRANCH   1  18
HETATM   18  C   UNL     1     -43.069  56.876 -57.655  1.00  0.00     0.059 A 
HETATM   19  C   UNL     1     -42.385  58.070 -57.934  1.00  0.00    -0.032 A 
HETATM   20  C   UNL     1     -42.216  59.207 -56.966  1.00  0.00     0.050 C 
HETATM   21  C   UNL     1     -41.822  58.229 -59.213  1.00  0.00     0.028 A 
HETATM   22  C   UNL     1     -42.007  57.246 -60.172  1.00  0.00     0.117 A 
HETATM   23  N   UNL     1     -42.711  56.121 -59.956  1.00  0.00    -0.271 NA
HETATM   24  C   UNL     1     -43.217  55.966 -58.709  1.00  0.00     0.146 A 
ENDBRANCH   1  18
TORSDOF 5
ENDMDL
MODEL 10
REMARK VINA RESULT:      -6.4      2.886      4.010
REMARK  5 active torsions:
REMARK  status: ('A' for Active; 'I' for Inactive)
REMARK    1  A    between atoms: C_3  and  N_4 
REMARK       I    between atoms: N_4  and  C_5 
REMARK       I    between atoms: C_5  and  N_6 
REMARK    2  A    between atoms: N_6  and  C_7 
REMARK    3  A    between atoms: C_7  and  C_8 
REMARK    4  A    between atoms: C_8  and  O_9 
REMARK    5  A    between atoms: O_9  and  C_10 
ROOT
HETATM    1  N   UNL     1     -42.613  59.517 -53.608  1.00  0.00    -0.307 N 
HETATM    2  C   UNL     1     -41.422  58.858 -53.635  1.00  0.00     0.320 C 
HETATM    3  N   UNL     1     -41.488  57.558 -54.044  1.00  0.00    -0.340 N 
HETATM    4  O   UNL     1     -40.320  59.335 -53.390  1.00  0.00    -0.247 OA
HETATM    5  H   UNL     1     -43.178  59.260 -54.410  1.00  0.00     0.170 HD
HETATM    6  H   UNL     1     -40.550  57.176 -54.066  1.00  0.00     0.164 HD
ENDROOT
BRANCH   3   7
HETATM    7  C   UNL     1     -42.538  56.573 -53.783  1.00  0.00     0.156 C 
BRANCH   7   8
HETATM    8  C   UNL     1     -42.370  55.613 -52.583  1.00  0.00     0.142 C 
HETATM    9  C   UNL     1     -42.803  56.333 -51.304  1.00  0.00     0.042 C 
BRANCH   8  10
HETATM   10  O   UNL     1     -40.987  55.251 -52.502  1.00  0.00    -0.343 OA
BRANCH  10  11
HETATM   11  C   UNL     1     -40.591  53.964 -52.745  1.00  0.00     0.086 A 
HETATM   12  C   UNL     1     -40.098  53.241 -51.646  1.00  0.00     0.044 A 
HETATM   13 BR   UNL     1     -40.012  54.012 -49.910  1.00  0.00    -0.048 Br
HETATM   14  C   UNL     1     -39.660  51.922 -51.794  1.00  0.00     0.022 A 
HETATM   15  C   UNL     1     -39.700  51.314 -53.046  1.00  0.00     0.002 A 
HETATM   16  C   UNL     1     -40.175  52.025 -54.145  1.00  0.00     0.003 A 
HETATM   17  C   UNL     1     -40.616  53.345 -53.997  1.00  0.00     0.038 A 
ENDBRANCH  10  11
ENDBRANCH   8  10
ENDBRANCH   7   8
ENDBRANCH   3   7
BRANCH   1  18
HETATM   18  C   UNL     1     -42.857  60.805 -53.077  1.00  0.00     0.059 A 
HETATM   19  C   UNL     1     -42.979  61.128 -51.717  1.00  0.00    -0.032 A 
HETATM   20  C   UNL     1     -42.902  60.137 -50.590  1.00  0.00     0.050 C 
HETATM   21  C   UNL     1     -43.201  62.473 -51.372  1.00  0.00     0.028 A 
HETATM   22  C   UNL     1     -43.354  63.422 -52.369  1.00  0.00     0.117 A 
HETATM   23  N   UNL     1     -43.306  63.134 -53.683  1.00  0.00    -0.271 NA
HETATM   24  C   UNL     1     -43.057  61.841 -53.999  1.00  0.00     0.146 A 
ENDBRANCH   1  18
TORSDOF 5
ENDMDL
