MODEL 1
REMARK VINA RESULT:      -9.3      0.000      0.000
REMARK  7 active torsions:
REMARK  status: ('A' for Active; 'I' for Inactive)
REMARK    1  A    between atoms: O_2  and  C_3 
REMARK    2  A    between atoms: C_5  and  N_6 
REMARK    3  A    between atoms: C_7  and  C_9 
REMARK    4  A    between atoms: C_7  and  O_8 
REMARK       I    between atoms: C_9  and  N_10 
REMARK    5  A    between atoms: N_10  and  C_11 
REMARK    6  A    between atoms: C_11  and  C_12 
REMARK    7  A    between atoms: C_12  and  C_13 
ROOT
HETATM    1  N   UNL     1     -42.563  58.618 -55.687  1.00  0.00    -0.254 N 
HETATM    2  C   UNL     1     -43.157  57.300 -56.029  1.00  0.00     0.256 C 
HETATM    3  C   UNL     1     -43.010  56.866 -57.472  1.00  0.00     0.034 A 
HETATM    4  C   UNL     1     -42.404  57.712 -58.381  1.00  0.00     0.048 A 
HETATM    5  N   UNL     1     -41.985  58.955 -57.952  1.00  0.00    -0.308 N 
HETATM    6  C   UNL     1     -42.085  59.452 -56.691  1.00  0.00     0.330 C 
HETATM    7  O   UNL     1     -41.729  60.624 -56.556  1.00  0.00    -0.246 OA
HETATM    8  C   UNL     1     -43.490  55.625 -57.930  1.00  0.00     0.015 A 
HETATM    9  C   UNL     1     -43.331  55.246 -59.264  1.00  0.00     0.001 A 
HETATM   10  C   UNL     1     -42.697  56.105 -60.157  1.00  0.00     0.002 A 
HETATM   11  C   UNL     1     -42.239  57.346 -59.718  1.00  0.00     0.030 A 
HETATM   12  H   UNL     1     -41.613  59.616 -58.623  1.00  0.00     0.170 HD
ENDROOT
BRANCH   2  13
HETATM   13  C   UNL     1     -42.425  56.180 -55.143  1.00  0.00     0.279 C 
HETATM   14  N   UNL     1     -41.091  55.962 -55.455  1.00  0.00    -0.356 N 
HETATM   15  H   UNL     1     -40.679  56.488 -56.217  1.00  0.00     0.162 HD
HETATM   16  O   UNL     1     -43.012  55.515 -54.286  1.00  0.00    -0.268 OA
BRANCH  14  17
HETATM   17  C   UNL     1     -40.260  55.016 -54.736  1.00  0.00     0.127 C 
BRANCH  17  18
HETATM   18  C   UNL     1     -40.472  53.548 -55.128  1.00  0.00     0.058 C 
BRANCH  18  19
HETATM   19  C   UNL     1     -40.204  52.551 -54.025  1.00  0.00    -0.057 A 
HETATM   20  C   UNL     1     -39.966  51.199 -54.308  1.00  0.00     0.009 A 
HETATM   21  C   UNL     1     -39.703  50.294 -53.276  1.00  0.00     0.024 A 
HETATM   22  C   UNL     1     -39.665  50.739 -51.957  1.00  0.00     0.034 A 
HETATM   23 CL   UNL     1     -39.341  49.626 -50.686  1.00  0.00    -0.084 Cl
HETATM   24  C   UNL     1     -39.884  52.082 -51.660  1.00  0.00     0.024 A 
HETATM   25  C   UNL     1     -40.152  52.983 -52.691  1.00  0.00     0.009 A 
ENDBRANCH  18  19
ENDBRANCH  17  18
ENDBRANCH  14  17
ENDBRANCH   2  13
BRANCH   2  26
HETATM   26  O   UNL     1     -44.561  57.425 -55.862  1.00  0.00    -0.359 OA
HETATM   27  H   UNL     1     -44.943  57.115 -56.698  1.00  0.00     0.213 HD
ENDBRANCH   2  26
BRANCH   1  28
HETATM   28  C   UNL     1     -42.521  59.036 -54.280  1.00  0.00     0.045 A 
HETATM   29  C   UNL     1     -41.316  59.065 -53.551  1.00  0.00     0.066 A 
HETATM   30  C   UNL     1     -41.260  59.476 -52.211  1.00  0.00     0.070 A 
HETATM   31  C   UNL     1     -42.432  59.829 -51.553  1.00  0.00     0.037 A 
HETATM   32  C   UNL     1     -43.643  59.789 -52.230  1.00  0.00     0.005 A 
HETATM   33  C   UNL     1     -43.685  59.400 -53.574  1.00  0.00     0.030 A 
BRANCH  30  34
HETATM   34  O   UNL     1     -40.130  59.545 -51.442  1.00  0.00    -0.356 OA
HETATM   35  C   UNL     1     -40.319  59.542 -50.031  1.00  0.00     0.210 C 
ENDBRANCH  30  34
ENDBRANCH   1  28
TORSDOF 7
ENDMDL
MODEL 2
REMARK VINA RESULT:      -9.1      0.928      1.520
REMARK  7 active torsions:
REMARK  status: ('A' for Active; 'I' for Inactive)
REMARK    1  A    between atoms: O_2  and  C_3 
REMARK    2  A    between atoms: C_5  and  N_6 
REMARK    3  A    between atoms: C_7  and  C_9 
REMARK    4  A    between atoms: C_7  and  O_8 
REMARK       I    between atoms: C_9  and  N_10 
REMARK    5  A    between atoms: N_10  and  C_11 
REMARK    6  A    between atoms: C_11  and  C_12 
REMARK    7  A    between atoms: C_12  and  C_13 
ROOT
HETATM    1  N   UNL     1     -42.546  58.556 -55.470  1.00  0.00    -0.254 N 
HETATM    2  C   UNL     1     -43.135  57.241 -55.831  1.00  0.00     0.256 C 
HETATM    3  C   UNL     1     -43.032  56.851 -57.291  1.00  0.00     0.034 A 
HETATM    4  C   UNL     1     -42.469  57.732 -58.194  1.00  0.00     0.048 A 
HETATM    5  N   UNL     1     -42.052  58.969 -57.743  1.00  0.00    -0.308 N 
HETATM    6  C   UNL     1     -42.114  59.426 -56.465  1.00  0.00     0.330 C 
HETATM    7  O   UNL     1     -41.769  60.598 -56.306  1.00  0.00    -0.246 OA
HETATM    8  C   UNL     1     -43.513  55.618 -57.769  1.00  0.00     0.015 A 
HETATM    9  C   UNL     1     -43.395  55.282 -59.118  1.00  0.00     0.001 A 
HETATM   10  C   UNL     1     -42.804  56.176 -60.007  1.00  0.00     0.002 A 
HETATM   11  C   UNL     1     -42.347  57.409 -59.547  1.00  0.00     0.030 A 
HETATM   12  H   UNL     1     -41.712  59.653 -58.406  1.00  0.00     0.170 HD
ENDROOT
BRANCH   2  13
HETATM   13  C   UNL     1     -42.358  56.105 -55.005  1.00  0.00     0.279 C 
HETATM   14  N   UNL     1     -41.049  55.879 -55.405  1.00  0.00    -0.356 N 
HETATM   15  H   UNL     1     -40.682  56.410 -56.186  1.00  0.00     0.162 HD
HETATM   16  O   UNL     1     -42.895  55.436 -54.119  1.00  0.00    -0.268 OA
BRANCH  14  17
HETATM   17  C   UNL     1     -40.183  54.919 -54.750  1.00  0.00     0.127 C 
BRANCH  17  18
HETATM   18  C   UNL     1     -40.444  53.454 -55.128  1.00  0.00     0.058 C 
BRANCH  18  19
HETATM   19  C   UNL     1     -40.187  52.457 -54.023  1.00  0.00    -0.057 A 
HETATM   20  C   UNL     1     -39.975  51.100 -54.303  1.00  0.00     0.009 A 
HETATM   21  C   UNL     1     -39.720  50.195 -53.269  1.00  0.00     0.024 A 
HETATM   22  C   UNL     1     -39.665  50.644 -51.952  1.00  0.00     0.034 A 
HETATM   23 CL   UNL     1     -39.351  49.529 -50.679  1.00  0.00    -0.084 Cl
HETATM   24  C   UNL     1     -39.858  51.990 -51.659  1.00  0.00     0.024 A 
HETATM   25  C   UNL     1     -40.118  52.893 -52.691  1.00  0.00     0.009 A 
ENDBRANCH  18  19
ENDBRANCH  17  18
ENDBRANCH  14  17
ENDBRANCH   2  13
BRANCH   2  26
HETATM   26  O   UNL     1     -44.534  57.341 -55.612  1.00  0.00    -0.359 OA
HETATM   27  H   UNL     1     -44.626  57.575 -54.676  1.00  0.00     0.213 HD
ENDBRANCH   2  26
BRANCH   1  28
HETATM   28  C   UNL     1     -42.460  58.933 -54.054  1.00  0.00     0.045 A 
HETATM   29  C   UNL     1     -43.607  59.265 -53.305  1.00  0.00     0.066 A 
HETATM   30  C   UNL     1     -43.541  59.613 -51.948  1.00  0.00     0.070 A 
HETATM   31  C   UNL     1     -42.305  59.679 -51.316  1.00  0.00     0.037 A 
HETATM   32  C   UNL     1     -41.150  59.384 -52.027  1.00  0.00     0.005 A 
HETATM   33  C   UNL     1     -41.229  59.015 -53.375  1.00  0.00     0.030 A 
BRANCH  30  34
HETATM   34  O   UNL     1     -44.607  59.933 -51.152  1.00  0.00    -0.356 OA
HETATM   35  C   UNL     1     -45.625  58.946 -51.022  1.00  0.00     0.210 C 
ENDBRANCH  30  34
ENDBRANCH   1  28
TORSDOF 7
ENDMDL
MODEL 3
REMARK VINA RESULT:      -9.0      1.953      2.622
REMARK  7 active torsions:
REMARK  status: ('A' for Active; 'I' for Inactive)
REMARK    1  A    between atoms: O_2  and  C_3 
REMARK    2  A    between atoms: C_5  and  N_6 
REMARK    3  A    between atoms: C_7  and  C_9 
REMARK    4  A    between atoms: C_7  and  O_8 
REMARK       I    between atoms: C_9  and  N_10 
REMARK    5  A    between atoms: N_10  and  C_11 
REMARK    6  A    between atoms: C_11  and  C_12 
REMARK    7  A    between atoms: C_12  and  C_13 
ROOT
HETATM    1  N   UNL     1     -42.630  57.790 -55.211  1.00  0.00    -0.254 N 
HETATM    2  C   UNL     1     -43.220  56.719 -56.055  1.00  0.00     0.256 C 
HETATM    3  C   UNL     1     -42.945  56.824 -57.541  1.00  0.00     0.034 A 
HETATM    4  C   UNL     1     -42.235  57.905 -58.029  1.00  0.00     0.048 A 
HETATM    5  N   UNL     1     -41.831  58.886 -57.146  1.00  0.00    -0.308 N 
HETATM    6  C   UNL     1     -42.040  58.902 -55.803  1.00  0.00     0.330 C 
HETATM    7  O   UNL     1     -41.672  59.925 -55.224  1.00  0.00    -0.246 OA
HETATM    8  C   UNL     1     -43.408  55.859 -58.454  1.00  0.00     0.015 A 
HETATM    9  C   UNL     1     -43.130  55.976 -59.817  1.00  0.00     0.001 A 
HETATM   10  C   UNL     1     -42.395  57.062 -60.284  1.00  0.00     0.002 A 
HETATM   11  C   UNL     1     -41.952  58.035 -59.390  1.00  0.00     0.030 A 
HETATM   12  H   UNL     1     -41.381  59.721 -57.499  1.00  0.00     0.170 HD
ENDROOT
BRANCH   2  13
HETATM   13  C   UNL     1     -42.602  55.316 -55.579  1.00  0.00     0.279 C 
HETATM   14  N   UNL     1     -41.216  55.266 -55.546  1.00  0.00    -0.356 N 
HETATM   15  H   UNL     1     -40.693  56.082 -55.840  1.00  0.00     0.162 HD
HETATM   16  O   UNL     1     -43.298  54.333 -55.318  1.00  0.00    -0.268 OA
BRANCH  14  17
HETATM   17  C   UNL     1     -40.483  54.094 -55.106  1.00  0.00     0.127 C 
BRANCH  17  18
HETATM   18  C   UNL     1     -41.278  53.141 -54.203  1.00  0.00     0.058 C 
BRANCH  18  19
HETATM   19  C   UNL     1     -41.170  53.429 -52.724  1.00  0.00    -0.057 A 
HETATM   20  C   UNL     1     -42.287  53.828 -51.977  1.00  0.00     0.009 A 
HETATM   21  C   UNL     1     -42.172  54.072 -50.606  1.00  0.00     0.024 A 
HETATM   22  C   UNL     1     -40.942  53.910 -49.973  1.00  0.00     0.034 A 
HETATM   23 CL   UNL     1     -40.801  54.212 -48.285  1.00  0.00    -0.084 Cl
HETATM   24  C   UNL     1     -39.827  53.500 -50.698  1.00  0.00     0.024 A 
HETATM   25  C   UNL     1     -39.941  53.261 -52.068  1.00  0.00     0.009 A 
ENDBRANCH  18  19
ENDBRANCH  17  18
ENDBRANCH  14  17
ENDBRANCH   2  13
BRANCH   2  26
HETATM   26  O   UNL     1     -44.630  56.855 -55.968  1.00  0.00    -0.359 OA
HETATM   27  H   UNL     1     -44.986  56.038 -56.352  1.00  0.00     0.213 HD
ENDBRANCH   2  26
BRANCH   1  28
HETATM   28  C   UNL     1     -42.714  57.673 -53.751  1.00  0.00     0.045 A 
HETATM   29  C   UNL     1     -43.945  57.755 -53.070  1.00  0.00     0.066 A 
HETATM   30  C   UNL     1     -44.041  57.631 -51.676  1.00  0.00     0.070 A 
HETATM   31  C   UNL     1     -42.886  57.463 -50.922  1.00  0.00     0.037 A 
HETATM   32  C   UNL     1     -41.651  57.403 -51.554  1.00  0.00     0.005 A 
HETATM   33  C   UNL     1     -41.569  57.506 -52.948  1.00  0.00     0.030 A 
BRANCH  30  34
HETATM   34  O   UNL     1     -45.197  57.685 -50.946  1.00  0.00    -0.356 OA
HETATM   35  C   UNL     1     -45.823  58.959 -50.837  1.00  0.00     0.210 C 
ENDBRANCH  30  34
ENDBRANCH   1  28
TORSDOF 7
ENDMDL
MODEL 4
REMARK VINA RESULT:      -8.7      3.476      7.087
REMARK  7 active torsions:
REMARK  status: ('A' for Active; 'I' for Inactive)
REMARK    1  A    between atoms: O_2  and  C_3 
REMARK    2  A    between atoms: C_5  and  N_6 
REMARK    3  A    between atoms: C_7  and  C_9 
REMARK    4  A    between atoms: C_7  and  O_8 
REMARK       I    between atoms: C_9  and  N_10 
REMARK    5  A    between atoms: N_10  and  C_11 
REMARK    6  A    between atoms: C_11  and  C_12 
REMARK    7  A    between atoms: C_12  and  C_13 
ROOT
HETATM    1  N   UNL     1     -41.351  56.015 -52.867  1.00  0.00    -0.254 N 
HETATM    2  C   UNL     1     -40.962  55.071 -53.946  1.00  0.00     0.256 C 
HETATM    3  C   UNL     1     -40.523  53.695 -53.492  1.00  0.00     0.034 A 
HETATM    4  C   UNL     1     -40.450  53.412 -52.141  1.00  0.00     0.048 A 
HETATM    5  N   UNL     1     -40.743  54.415 -51.238  1.00  0.00    -0.308 N 
HETATM    6  C   UNL     1     -41.126  55.684 -51.534  1.00  0.00     0.330 C 
HETATM    7  O   UNL     1     -41.246  56.439 -50.568  1.00  0.00    -0.246 OA
HETATM    8  C   UNL     1     -40.163  52.687 -54.406  1.00  0.00     0.015 A 
HETATM    9  C   UNL     1     -39.772  51.424 -53.959  1.00  0.00     0.001 A 
HETATM   10  C   UNL     1     -39.728  51.156 -52.594  1.00  0.00     0.002 A 
HETATM   11  C   UNL     1     -40.060  52.154 -51.680  1.00  0.00     0.030 A 
HETATM   12  H   UNL     1     -40.617  54.247 -50.248  1.00  0.00     0.170 HD
ENDROOT
BRANCH   2  13
HETATM   13  C   UNL     1     -42.237  54.848 -54.894  1.00  0.00     0.279 C 
HETATM   14  N   UNL     1     -42.093  55.317 -56.192  1.00  0.00    -0.356 N 
HETATM   15  H   UNL     1     -41.229  55.780 -56.448  1.00  0.00     0.162 HD
HETATM   16  O   UNL     1     -43.292  54.352 -54.493  1.00  0.00    -0.268 OA
BRANCH  14  17
HETATM   17  C   UNL     1     -43.126  55.169 -57.199  1.00  0.00     0.127 C 
BRANCH  17  18
HETATM   18  C   UNL     1     -43.042  56.172 -58.358  1.00  0.00     0.058 C 
BRANCH  18  19
HETATM   19  C   UNL     1     -44.281  56.255 -59.218  1.00  0.00    -0.057 A 
HETATM   20  C   UNL     1     -44.476  55.384 -60.299  1.00  0.00     0.009 A 
HETATM   21  C   UNL     1     -45.637  55.462 -61.072  1.00  0.00     0.024 A 
HETATM   22  C   UNL     1     -46.613  56.406 -60.763  1.00  0.00     0.034 A 
HETATM   23 CL   UNL     1     -48.043  56.504 -61.715  1.00  0.00    -0.084 Cl
HETATM   24  C   UNL     1     -46.442  57.269 -59.684  1.00  0.00     0.024 A 
HETATM   25  C   UNL     1     -45.280  57.193 -58.915  1.00  0.00     0.009 A 
ENDBRANCH  18  19
ENDBRANCH  17  18
ENDBRANCH  14  17
ENDBRANCH   2  13
BRANCH   2  26
HETATM   26  O   UNL     1     -39.799  55.604 -54.561  1.00  0.00    -0.359 OA
HETATM   27  H   UNL     1     -39.642  55.041 -55.334  1.00  0.00     0.213 HD
ENDBRANCH   2  26
BRANCH   1  28
HETATM   28  C   UNL     1     -41.940  57.309 -53.230  1.00  0.00     0.045 A 
HETATM   29  C   UNL     1     -43.317  57.566 -53.076  1.00  0.00     0.066 A 
HETATM   30  C   UNL     1     -43.890  58.803 -53.407  1.00  0.00     0.070 A 
HETATM   31  C   UNL     1     -43.093  59.806 -53.946  1.00  0.00     0.037 A 
HETATM   32  C   UNL     1     -41.737  59.582 -54.137  1.00  0.00     0.005 A 
HETATM   33  C   UNL     1     -41.170  58.351 -53.783  1.00  0.00     0.030 A 
BRANCH  30  34
HETATM   34  O   UNL     1     -45.211  59.133 -53.273  1.00  0.00    -0.356 OA
HETATM   35  C   UNL     1     -45.582  59.799 -52.071  1.00  0.00     0.210 C 
ENDBRANCH  30  34
ENDBRANCH   1  28
TORSDOF 7
ENDMDL
MODEL 5
REMARK VINA RESULT:      -8.6      2.521      3.989
REMARK  7 active torsions:
REMARK  status: ('A' for Active; 'I' for Inactive)
REMARK    1  A    between atoms: O_2  and  C_3 
REMARK    2  A    between atoms: C_5  and  N_6 
REMARK    3  A    between atoms: C_7  and  C_9 
REMARK    4  A    between atoms: C_7  and  O_8 
REMARK       I    between atoms: C_9  and  N_10 
REMARK    5  A    between atoms: N_10  and  C_11 
REMARK    6  A    between atoms: C_11  and  C_12 
REMARK    7  A    between atoms: C_12  and  C_13 
ROOT
HETATM    1  N   UNL     1     -43.059  57.975 -52.295  1.00  0.00    -0.254 N 
HETATM    2  C   UNL     1     -42.869  57.849 -53.763  1.00  0.00     0.256 C 
HETATM    3  C   UNL     1     -42.898  59.144 -54.545  1.00  0.00     0.034 A 
HETATM    4  C   UNL     1     -43.150  60.333 -53.888  1.00  0.00     0.048 A 
HETATM    5  N   UNL     1     -43.412  60.299 -52.532  1.00  0.00    -0.308 N 
HETATM    6  C   UNL     1     -43.430  59.195 -51.740  1.00  0.00     0.330 C 
HETATM    7  O   UNL     1     -43.780  59.388 -50.574  1.00  0.00    -0.246 OA
HETATM    8  C   UNL     1     -42.694  59.180 -55.937  1.00  0.00     0.015 A 
HETATM    9  C   UNL     1     -42.716  60.390 -56.631  1.00  0.00     0.001 A 
HETATM   10  C   UNL     1     -42.949  61.578 -55.945  1.00  0.00     0.002 A 
HETATM   11  C   UNL     1     -43.176  61.551 -54.570  1.00  0.00     0.030 A 
HETATM   12  H   UNL     1     -43.676  61.150 -52.053  1.00  0.00     0.170 HD
ENDROOT
BRANCH   2  13
HETATM   13  C   UNL     1     -41.426  57.196 -54.022  1.00  0.00     0.279 C 
HETATM   14  N   UNL     1     -41.447  55.878 -54.456  1.00  0.00    -0.356 N 
HETATM   15  H   UNL     1     -42.342  55.414 -54.555  1.00  0.00     0.162 HD
HETATM   16  O   UNL     1     -40.371  57.793 -53.800  1.00  0.00    -0.268 OA
BRANCH  14  17
HETATM   17  C   UNL     1     -40.242  55.139 -54.778  1.00  0.00     0.127 C 
BRANCH  17  18
HETATM   18  C   UNL     1     -40.472  53.671 -55.162  1.00  0.00     0.058 C 
BRANCH  18  19
HETATM   19  C   UNL     1     -40.220  52.676 -54.053  1.00  0.00    -0.057 A 
HETATM   20  C   UNL     1     -39.923  51.335 -54.332  1.00  0.00     0.009 A 
HETATM   21  C   UNL     1     -39.674  50.434 -53.294  1.00  0.00     0.024 A 
HETATM   22  C   UNL     1     -39.711  50.871 -51.972  1.00  0.00     0.034 A 
HETATM   23 CL   UNL     1     -39.405  49.761 -50.693  1.00  0.00    -0.084 Cl
HETATM   24  C   UNL     1     -39.989  52.202 -51.679  1.00  0.00     0.024 A 
HETATM   25  C   UNL     1     -40.243  53.101 -52.715  1.00  0.00     0.009 A 
ENDBRANCH  18  19
ENDBRANCH  17  18
ENDBRANCH  14  17
ENDBRANCH   2  13
BRANCH   2  26
HETATM   26  O   UNL     1     -43.989  57.134 -54.263  1.00  0.00    -0.359 OA
HETATM   27  H   UNL     1     -44.524  57.796 -54.727  1.00  0.00     0.213 HD
ENDBRANCH   2  26
BRANCH   1  28
HETATM   28  C   UNL     1     -42.884  56.788 -51.449  1.00  0.00     0.045 A 
HETATM   29  C   UNL     1     -41.660  56.509 -50.809  1.00  0.00     0.066 A 
HETATM   30  C   UNL     1     -41.484  55.386 -49.987  1.00  0.00     0.070 A 
HETATM   31  C   UNL     1     -42.529  54.485 -49.823  1.00  0.00     0.037 A 
HETATM   32  C   UNL     1     -43.742  54.712 -50.458  1.00  0.00     0.005 A 
HETATM   33  C   UNL     1     -43.916  55.848 -51.258  1.00  0.00     0.030 A 
BRANCH  30  34
HETATM   34  O   UNL     1     -40.335  55.055 -49.321  1.00  0.00    -0.356 OA
HETATM   35  C   UNL     1     -40.453  54.074 -48.296  1.00  0.00     0.210 C 
ENDBRANCH  30  34
ENDBRANCH   1  28
TORSDOF 7
ENDMDL
MODEL 6
REMARK VINA RESULT:      -8.5      2.894      5.553
REMARK  7 active torsions:
REMARK  status: ('A' for Active; 'I' for Inactive)
REMARK    1  A    between atoms: O_2  and  C_3 
REMARK    2  A    between atoms: C_5  and  N_6 
REMARK    3  A    between atoms: C_7  and  C_9 
REMARK    4  A    between atoms: C_7  and  O_8 
REMARK       I    between atoms: C_9  and  N_10 
REMARK    5  A    between atoms: N_10  and  C_11 
REMARK    6  A    between atoms: C_11  and  C_12 
REMARK    7  A    between atoms: C_12  and  C_13 
ROOT
HETATM    1  N   UNL     1     -43.844  58.723 -51.442  1.00  0.00    -0.254 N 
HETATM    2  C   UNL     1     -42.493  58.118 -51.556  1.00  0.00     0.256 C 
HETATM    3  C   UNL     1     -42.411  56.630 -51.285  1.00  0.00     0.034 A 
HETATM    4  C   UNL     1     -43.547  55.943 -50.900  1.00  0.00     0.048 A 
HETATM    5  N   UNL     1     -44.723  56.648 -50.732  1.00  0.00    -0.308 N 
HETATM    6  C   UNL     1     -44.902  57.980 -50.928  1.00  0.00     0.330 C 
HETATM    7  O   UNL     1     -46.016  58.413 -50.629  1.00  0.00    -0.246 OA
HETATM    8  C   UNL     1     -41.203  55.917 -51.393  1.00  0.00     0.015 A 
HETATM    9  C   UNL     1     -41.160  54.544 -51.147  1.00  0.00     0.001 A 
HETATM   10  C   UNL     1     -42.321  53.869 -50.783  1.00  0.00     0.002 A 
HETATM   11  C   UNL     1     -43.518  54.571 -50.649  1.00  0.00     0.030 A 
HETATM   12  H   UNL     1     -45.542  56.174 -50.374  1.00  0.00     0.170 HD
ENDROOT
BRANCH   2  13
HETATM   13  C   UNL     1     -41.978  58.331 -53.061  1.00  0.00     0.279 C 
HETATM   14  N   UNL     1     -42.687  57.635 -54.029  1.00  0.00    -0.356 N 
HETATM   15  H   UNL     1     -43.447  57.032 -53.734  1.00  0.00     0.162 HD
HETATM   16  O   UNL     1     -40.990  59.014 -53.341  1.00  0.00    -0.268 OA
BRANCH  14  17
HETATM   17  C   UNL     1     -42.390  57.735 -55.444  1.00  0.00     0.127 C 
BRANCH  17  18
HETATM   18  C   UNL     1     -42.510  56.416 -56.221  1.00  0.00     0.058 C 
BRANCH  18  19
HETATM   19  C   UNL     1     -41.934  55.210 -55.516  1.00  0.00    -0.057 A 
HETATM   20  C   UNL     1     -42.757  54.166 -55.072  1.00  0.00     0.009 A 
HETATM   21  C   UNL     1     -42.205  53.049 -54.439  1.00  0.00     0.024 A 
HETATM   22  C   UNL     1     -40.827  52.967 -54.255  1.00  0.00     0.034 A 
HETATM   23 CL   UNL     1     -40.147  51.592 -53.475  1.00  0.00    -0.084 Cl
HETATM   24  C   UNL     1     -39.995  53.988 -54.704  1.00  0.00     0.024 A 
HETATM   25  C   UNL     1     -40.547  55.105 -55.332  1.00  0.00     0.009 A 
ENDBRANCH  18  19
ENDBRANCH  17  18
ENDBRANCH  14  17
ENDBRANCH   2  13
BRANCH   2  26
HETATM   26  O   UNL     1     -41.698  58.686 -50.526  1.00  0.00    -0.359 OA
HETATM   27  H   UNL     1     -41.177  57.949 -50.173  1.00  0.00     0.213 HD
ENDBRANCH   2  26
BRANCH   1  28
HETATM   28  C   UNL     1     -44.035  60.121 -51.845  1.00  0.00     0.045 A 
HETATM   29  C   UNL     1     -44.758  60.466 -53.004  1.00  0.00     0.066 A 
HETATM   30  C   UNL     1     -44.960  61.799 -53.393  1.00  0.00     0.070 A 
HETATM   31  C   UNL     1     -44.395  62.825 -52.644  1.00  0.00     0.037 A 
HETATM   32  C   UNL     1     -43.654  62.524 -51.510  1.00  0.00     0.005 A 
HETATM   33  C   UNL     1     -43.478  61.191 -51.117  1.00  0.00     0.030 A 
BRANCH  30  34
HETATM   34  O   UNL     1     -45.661  62.214 -54.493  1.00  0.00    -0.356 OA
HETATM   35  C   UNL     1     -45.654  61.343 -55.619  1.00  0.00     0.210 C 
ENDBRANCH  30  34
ENDBRANCH   1  28
TORSDOF 7
ENDMDL
MODEL 7
REMARK VINA RESULT:      -8.5      3.293      6.831
REMARK  7 active torsions:
REMARK  status: ('A' for Active; 'I' for Inactive)
REMARK    1  A    between atoms: O_2  and  C_3 
REMARK    2  A    between atoms: C_5  and  N_6 
REMARK    3  A    between atoms: C_7  and  C_9 
REMARK    4  A    between atoms: C_7  and  O_8 
REMARK       I    between atoms: C_9  and  N_10 
REMARK    5  A    between atoms: N_10  and  C_11 
REMARK    6  A    between atoms: C_11  and  C_12 
REMARK    7  A    between atoms: C_12  and  C_13 
ROOT
HETATM    1  N   UNL     1     -41.502  56.257 -52.983  1.00  0.00    -0.254 N 
HETATM    2  C   UNL     1     -41.080  55.297 -54.035  1.00  0.00     0.256 C 
HETATM    3  C   UNL     1     -40.624  53.939 -53.544  1.00  0.00     0.034 A 
HETATM    4  C   UNL     1     -40.568  53.688 -52.187  1.00  0.00     0.048 A 
HETATM    5  N   UNL     1     -40.892  54.704 -51.310  1.00  0.00    -0.308 N 
HETATM    6  C   UNL     1     -41.292  55.960 -51.640  1.00  0.00     0.330 C 
HETATM    7  O   UNL     1     -41.440  56.734 -50.693  1.00  0.00    -0.246 OA
HETATM    8  C   UNL     1     -40.233  52.919 -54.431  1.00  0.00     0.015 A 
HETATM    9  C   UNL     1     -39.827  51.673 -53.950  1.00  0.00     0.001 A 
HETATM   10  C   UNL     1     -39.800  51.435 -52.579  1.00  0.00     0.002 A 
HETATM   11  C   UNL     1     -40.162  52.447 -51.692  1.00  0.00     0.030 A 
HETATM   12  H   UNL     1     -40.779  54.560 -50.315  1.00  0.00     0.170 HD
ENDROOT
BRANCH   2  13
HETATM   13  C   UNL     1     -42.336  55.031 -54.998  1.00  0.00     0.279 C 
HETATM   14  N   UNL     1     -42.171  55.452 -56.309  1.00  0.00    -0.356 N 
HETATM   15  H   UNL     1     -41.305  55.911 -56.566  1.00  0.00     0.162 HD
HETATM   16  O   UNL     1     -43.395  54.543 -54.597  1.00  0.00    -0.268 OA
BRANCH  14  17
HETATM   17  C   UNL     1     -43.184  55.261 -57.329  1.00  0.00     0.127 C 
BRANCH  17  18
HETATM   18  C   UNL     1     -43.006  56.128 -58.583  1.00  0.00     0.058 C 
BRANCH  18  19
HETATM   19  C   UNL     1     -43.040  57.618 -58.335  1.00  0.00    -0.057 A 
HETATM   20  C   UNL     1     -44.219  58.261 -57.933  1.00  0.00     0.009 A 
HETATM   21  C   UNL     1     -44.228  59.637 -57.690  1.00  0.00     0.024 A 
HETATM   22  C   UNL     1     -43.056  60.375 -57.840  1.00  0.00     0.034 A 
HETATM   23 CL   UNL     1     -43.067  62.070 -57.542  1.00  0.00    -0.084 Cl
HETATM   24  C   UNL     1     -41.874  59.749 -58.224  1.00  0.00     0.024 A 
HETATM   25  C   UNL     1     -41.867  58.375 -58.471  1.00  0.00     0.009 A 
ENDBRANCH  18  19
ENDBRANCH  17  18
ENDBRANCH  14  17
ENDBRANCH   2  13
BRANCH   2  26
HETATM   26  O   UNL     1     -39.917  55.837 -54.644  1.00  0.00    -0.359 OA
HETATM   27  H   UNL     1     -39.738  55.261 -55.402  1.00  0.00     0.213 HD
ENDBRANCH   2  26
BRANCH   1  28
HETATM   28  C   UNL     1     -42.107  57.532 -53.384  1.00  0.00     0.045 A 
HETATM   29  C   UNL     1     -43.479  57.793 -53.196  1.00  0.00     0.066 A 
HETATM   30  C   UNL     1     -44.068  59.013 -53.561  1.00  0.00     0.070 A 
HETATM   31  C   UNL     1     -43.293  59.992 -54.171  1.00  0.00     0.037 A 
HETATM   32  C   UNL     1     -41.943  59.763 -54.397  1.00  0.00     0.005 A 
HETATM   33  C   UNL     1     -41.360  58.551 -54.008  1.00  0.00     0.030 A 
BRANCH  30  34
HETATM   34  O   UNL     1     -45.385  59.346 -53.398  1.00  0.00    -0.356 OA
HETATM   35  C   UNL     1     -45.743  59.938 -52.154  1.00  0.00     0.210 C 
ENDBRANCH  30  34
ENDBRANCH   1  28
TORSDOF 7
ENDMDL
MODEL 8
REMARK VINA RESULT:      -8.5      2.611      3.795
REMARK  7 active torsions:
REMARK  status: ('A' for Active; 'I' for Inactive)
REMARK    1  A    between atoms: O_2  and  C_3 
REMARK    2  A    between atoms: C_5  and  N_6 
REMARK    3  A    between atoms: C_7  and  C_9 
REMARK    4  A    between atoms: C_7  and  O_8 
REMARK       I    between atoms: C_9  and  N_10 
REMARK    5  A    between atoms: N_10  and  C_11 
REMARK    6  A    between atoms: C_11  and  C_12 
REMARK    7  A    between atoms: C_12  and  C_13 
ROOT
HETATM    1  N   UNL     1     -43.098  58.599 -52.796  1.00  0.00    -0.254 N 
HETATM    2  C   UNL     1     -43.779  57.281 -52.877  1.00  0.00     0.256 C 
HETATM    3  C   UNL     1     -43.276  56.344 -53.955  1.00  0.00     0.034 A 
HETATM    4  C   UNL     1     -42.284  56.768 -54.819  1.00  0.00     0.048 A 
HETATM    5  N   UNL     1     -41.806  58.057 -54.699  1.00  0.00    -0.308 N 
HETATM    6  C   UNL     1     -42.199  58.984 -53.785  1.00  0.00     0.330 C 
HETATM    7  O   UNL     1     -41.703  60.103 -53.922  1.00  0.00    -0.246 OA
HETATM    8  C   UNL     1     -43.802  55.050 -54.123  1.00  0.00     0.015 A 
HETATM    9  C   UNL     1     -43.311  54.204 -55.118  1.00  0.00     0.001 A 
HETATM   10  C   UNL     1     -42.296  54.644 -55.963  1.00  0.00     0.002 A 
HETATM   11  C   UNL     1     -41.785  55.932 -55.820  1.00  0.00     0.030 A 
HETATM   12  H   UNL     1     -41.138  58.407 -55.373  1.00  0.00     0.170 HD
ENDROOT
BRANCH   2  13
HETATM   13  C   UNL     1     -43.560  56.522 -51.480  1.00  0.00     0.279 C 
HETATM   14  N   UNL     1     -42.306  55.953 -51.311  1.00  0.00    -0.356 N 
HETATM   15  H   UNL     1     -41.634  56.026 -52.066  1.00  0.00     0.162 HD
HETATM   16  O   UNL     1     -44.452  56.397 -50.638  1.00  0.00    -0.268 OA
BRANCH  14  17
HETATM   17  C   UNL     1     -41.914  55.261 -50.099  1.00  0.00     0.127 C 
BRANCH  17  18
HETATM   18  C   UNL     1     -40.503  54.658 -50.130  1.00  0.00     0.058 C 
BRANCH  18  19
HETATM   19  C   UNL     1     -40.298  53.575 -51.164  1.00  0.00    -0.057 A 
HETATM   20  C   UNL     1     -40.491  53.826 -52.529  1.00  0.00     0.009 A 
HETATM   21  C   UNL     1     -40.279  52.817 -53.472  1.00  0.00     0.024 A 
HETATM   22  C   UNL     1     -39.864  51.555 -53.056  1.00  0.00     0.034 A 
HETATM   23 CL   UNL     1     -39.603  50.312 -54.217  1.00  0.00    -0.084 Cl
HETATM   24  C   UNL     1     -39.653  51.293 -51.705  1.00  0.00     0.024 A 
HETATM   25  C   UNL     1     -39.870  52.300 -50.763  1.00  0.00     0.009 A 
ENDBRANCH  18  19
ENDBRANCH  17  18
ENDBRANCH  14  17
ENDBRANCH   2  13
BRANCH   2  26
HETATM   26  O   UNL     1     -45.123  57.534 -53.258  1.00  0.00    -0.359 OA
HETATM   27  H   UNL     1     -45.651  56.890 -52.762  1.00  0.00     0.213 HD
ENDBRANCH   2  26
BRANCH   1  28
HETATM   28  C   UNL     1     -43.416  59.497 -51.680  1.00  0.00     0.045 A 
HETATM   29  C   UNL     1     -44.717  60.003 -51.483  1.00  0.00     0.066 A 
HETATM   30  C   UNL     1     -45.037  60.851 -50.412  1.00  0.00     0.070 A 
HETATM   31  C   UNL     1     -44.039  61.250 -49.531  1.00  0.00     0.037 A 
HETATM   32  C   UNL     1     -42.740  60.793 -49.706  1.00  0.00     0.005 A 
HETATM   33  C   UNL     1     -42.435  59.929 -50.765  1.00  0.00     0.030 A 
BRANCH  30  34
HETATM   34  O   UNL     1     -46.275  61.370 -50.146  1.00  0.00    -0.356 OA
HETATM   35  C   UNL     1     -46.862  62.172 -51.166  1.00  0.00     0.210 C 
ENDBRANCH  30  34
ENDBRANCH   1  28
TORSDOF 7
ENDMDL
MODEL 9
REMARK VINA RESULT:      -8.4      1.709      5.288
REMARK  7 active torsions:
REMARK  status: ('A' for Active; 'I' for Inactive)
REMARK    1  A    between atoms: O_2  and  C_3 
REMARK    2  A    between atoms: C_5  and  N_6 
REMARK    3  A    between atoms: C_7  and  C_9 
REMARK    4  A    between atoms: C_7  and  O_8 
REMARK       I    between atoms: C_9  and  N_10 
REMARK    5  A    between atoms: N_10  and  C_11 
REMARK    6  A    between atoms: C_11  and  C_12 
REMARK    7  A    between atoms: C_12  and  C_13 
ROOT
HETATM    1  N   UNL     1     -43.787  58.457 -56.334  1.00  0.00    -0.254 N 
HETATM    2  C   UNL     1     -43.162  57.980 -55.074  1.00  0.00     0.256 C 
HETATM    3  C   UNL     1     -43.863  58.388 -53.795  1.00  0.00     0.034 A 
HETATM    4  C   UNL     1     -44.976  59.205 -53.858  1.00  0.00     0.048 A 
HETATM    5  N   UNL     1     -45.394  59.662 -55.091  1.00  0.00    -0.308 N 
HETATM    6  C   UNL     1     -44.830  59.376 -56.294  1.00  0.00     0.330 C 
HETATM    7  O   UNL     1     -45.314  59.970 -57.259  1.00  0.00    -0.246 OA
HETATM    8  C   UNL     1     -43.405  57.976 -52.530  1.00  0.00     0.015 A 
HETATM    9  C   UNL     1     -44.078  58.359 -51.368  1.00  0.00     0.001 A 
HETATM   10  C   UNL     1     -45.210  59.164 -51.457  1.00  0.00     0.002 A 
HETATM   11  C   UNL     1     -45.657  59.596 -52.704  1.00  0.00     0.030 A 
HETATM   12  H   UNL     1     -46.158  60.324 -55.146  1.00  0.00     0.170 HD
ENDROOT
BRANCH   2  13
HETATM   13  C   UNL     1     -43.161  56.375 -55.096  1.00  0.00     0.279 C 
HETATM   14  N   UNL     1     -41.920  55.791 -55.304  1.00  0.00    -0.356 N 
HETATM   15  H   UNL     1     -41.118  56.394 -55.450  1.00  0.00     0.162 HD
HETATM   16  O   UNL     1     -44.190  55.703 -54.996  1.00  0.00    -0.268 OA
BRANCH  14  17
HETATM   17  C   UNL     1     -41.720  54.356 -55.317  1.00  0.00     0.127 C 
BRANCH  17  18
HETATM   18  C   UNL     1     -40.271  53.906 -55.083  1.00  0.00     0.058 C 
BRANCH  18  19
HETATM   19  C   UNL     1     -40.096  52.858 -54.008  1.00  0.00    -0.057 A 
HETATM   20  C   UNL     1     -39.867  51.514 -54.334  1.00  0.00     0.009 A 
HETATM   21  C   UNL     1     -39.690  50.562 -53.327  1.00  0.00     0.024 A 
HETATM   22  C   UNL     1     -39.732  50.950 -51.990  1.00  0.00     0.034 A 
HETATM   23 CL   UNL     1     -39.514  49.778 -50.749  1.00  0.00    -0.084 Cl
HETATM   24  C   UNL     1     -39.943  52.283 -51.650  1.00  0.00     0.024 A 
HETATM   25  C   UNL     1     -40.125  53.233 -52.656  1.00  0.00     0.009 A 
ENDBRANCH  18  19
ENDBRANCH  17  18
ENDBRANCH  14  17
ENDBRANCH   2  13
BRANCH   2  26
HETATM   26  O   UNL     1     -41.896  58.615 -54.975  1.00  0.00    -0.359 OA
HETATM   27  H   UNL     1     -41.447  58.414 -55.811  1.00  0.00     0.213 HD
ENDBRANCH   2  26
BRANCH   1  28
HETATM   28  C   UNL     1     -43.263  57.972 -57.617  1.00  0.00     0.045 A 
HETATM   29  C   UNL     1     -43.868  56.904 -58.308  1.00  0.00     0.066 A 
HETATM   30  C   UNL     1     -43.386  56.440 -59.541  1.00  0.00     0.070 A 
HETATM   31  C   UNL     1     -42.247  57.015 -60.092  1.00  0.00     0.037 A 
HETATM   32  C   UNL     1     -41.607  58.052 -59.428  1.00  0.00     0.005 A 
HETATM   33  C   UNL     1     -42.110  58.524 -58.209  1.00  0.00     0.030 A 
BRANCH  30  34
HETATM   34  O   UNL     1     -43.925  55.421 -60.279  1.00  0.00    -0.356 OA
HETATM   35  C   UNL     1     -44.490  54.337 -59.549  1.00  0.00     0.210 C 
ENDBRANCH  30  34
ENDBRANCH   1  28
TORSDOF 7
ENDMDL
MODEL 10
REMARK VINA RESULT:      -8.2      3.180      7.239
REMARK  7 active torsions:
REMARK  status: ('A' for Active; 'I' for Inactive)
REMARK    1  A    between atoms: O_2  and  C_3 
REMARK    2  A    between atoms: C_5  and  N_6 
REMARK    3  A    between atoms: C_7  and  C_9 
REMARK    4  A    between atoms: C_7  and  O_8 
REMARK       I    between atoms: C_9  and  N_10 
REMARK    5  A    between atoms: N_10  and  C_11 
REMARK    6  A    between atoms: C_11  and  C_12 
REMARK    7  A    between atoms: C_12  and  C_13 
ROOT
HETATM    1  N   UNL     1     -42.170  57.144 -52.087  1.00  0.00    -0.254 N 
HETATM    2  C   UNL     1     -43.639  57.322 -52.216  1.00  0.00     0.256 C 
HETATM    3  C   UNL     1     -44.208  58.578 -51.591  1.00  0.00     0.034 A 
HETATM    4  C   UNL     1     -43.372  59.437 -50.904  1.00  0.00     0.048 A 
HETATM    5  N   UNL     1     -42.040  59.101 -50.770  1.00  0.00    -0.308 N 
HETATM    6  C   UNL     1     -41.431  57.994 -51.272  1.00  0.00     0.330 C 
HETATM    7  O   UNL     1     -40.250  57.850 -50.951  1.00  0.00    -0.246 OA
HETATM    8  C   UNL     1     -45.577  58.896 -51.670  1.00  0.00     0.015 A 
HETATM    9  C   UNL     1     -46.072  60.067 -51.093  1.00  0.00     0.001 A 
HETATM   10  C   UNL     1     -45.207  60.929 -50.424  1.00  0.00     0.002 A 
HETATM   11  C   UNL     1     -43.854  60.611 -50.321  1.00  0.00     0.030 A 
HETATM   12  H   UNL     1     -41.433  59.679 -50.203  1.00  0.00     0.170 HD
ENDROOT
BRANCH   2  13
HETATM   13  C   UNL     1     -43.995  57.394 -53.779  1.00  0.00     0.279 C 
HETATM   14  N   UNL     1     -43.524  58.520 -54.438  1.00  0.00    -0.356 N 
HETATM   15  H   UNL     1     -43.022  59.220 -53.904  1.00  0.00     0.162 HD
HETATM   16  O   UNL     1     -44.686  56.546 -54.349  1.00  0.00    -0.268 OA
BRANCH  14  17
HETATM   17  C   UNL     1     -43.717  58.738 -55.858  1.00  0.00     0.127 C 
BRANCH  17  18
HETATM   18  C   UNL     1     -42.667  58.072 -56.759  1.00  0.00     0.058 C 
BRANCH  18  19
HETATM   19  C   UNL     1     -43.232  57.295 -57.925  1.00  0.00    -0.057 A 
HETATM   20  C   UNL     1     -43.138  55.897 -57.981  1.00  0.00     0.009 A 
HETATM   21  C   UNL     1     -43.682  55.194 -59.059  1.00  0.00     0.024 A 
HETATM   22  C   UNL     1     -44.331  55.883 -60.081  1.00  0.00     0.034 A 
HETATM   23 CL   UNL     1     -45.001  55.017 -61.408  1.00  0.00    -0.084 Cl
HETATM   24  C   UNL     1     -44.446  57.269 -60.032  1.00  0.00     0.024 A 
HETATM   25  C   UNL     1     -43.898  57.972 -58.958  1.00  0.00     0.009 A 
ENDBRANCH  18  19
ENDBRANCH  17  18
ENDBRANCH  14  17
ENDBRANCH   2  13
BRANCH   2  26
HETATM   26  O   UNL     1     -44.248  56.277 -51.473  1.00  0.00    -0.359 OA
HETATM   27  H   UNL     1     -44.144  55.484 -52.022  1.00  0.00     0.213 HD
ENDBRANCH   2  26
BRANCH   1  28
HETATM   28  C   UNL     1     -41.522  56.038 -52.802  1.00  0.00     0.045 A 
HETATM   29  C   UNL     1     -41.320  54.781 -52.198  1.00  0.00     0.066 A 
HETATM   30  C   UNL     1     -40.715  53.712 -52.875  1.00  0.00     0.070 A 
HETATM   31  C   UNL     1     -40.253  53.896 -54.173  1.00  0.00     0.037 A 
HETATM   32  C   UNL     1     -40.409  55.128 -54.793  1.00  0.00     0.005 A 
HETATM   33  C   UNL     1     -41.036  56.182 -54.117  1.00  0.00     0.030 A 
BRANCH  30  34
HETATM   34  O   UNL     1     -40.498  52.462 -52.363  1.00  0.00    -0.356 OA
HETATM   35  C   UNL     1     -39.742  51.566 -53.171  1.00  0.00     0.210 C 
ENDBRANCH  30  34
ENDBRANCH   1  28
TORSDOF 7
ENDMDL
