MODEL 1
REMARK VINA RESULT:      -8.6      0.000      0.000
REMARK  6 active torsions:
REMARK  status: ('A' for Active; 'I' for Inactive)
REMARK    1  A    between atoms: C_7  and  S_8 
REMARK    2  A    between atoms: S_8  and  C_9 
REMARK    3  A    between atoms: C_9  and  C_10 
REMARK    4  A    between atoms: C_18  and  C_19 
REMARK    5  A    between atoms: C_27  and  C_28 
REMARK    6  A    between atoms: C_28  and  O_29 
ROOT
HETATM    1  C   UNL     1     -41.656  61.076 -57.662  1.00  0.00     0.070 C 
HETATM    2  C   UNL     1     -42.097  59.642 -57.517  1.00  0.00     0.037 A 
HETATM    3  N   UNL     1     -42.044  59.123 -56.227  1.00  0.00    -0.192 N 
HETATM    4  C   UNL     1     -42.411  57.867 -55.916  1.00  0.00     0.726 A 
HETATM    5  N   UNL     1     -42.814  57.022 -56.910  1.00  0.00    -0.082 N 
HETATM    6  N   UNL     1     -43.104  55.796 -56.430  1.00  0.00    -0.128 NA
HETATM    7  C   UNL     1     -42.932  55.997 -55.116  1.00  0.00     0.226 A 
HETATM    8  N   UNL     1     -42.476  57.246 -54.768  1.00  0.00    -0.035 NA
HETATM    9  C   UNL     1     -42.914  57.400 -58.329  1.00  0.00     0.208 A 
HETATM   10  C   UNL     1     -42.505  58.854 -58.544  1.00  0.00     0.070 A 
HETATM   11  H   UNL     1     -41.792  59.758 -55.474  1.00  0.00     0.184 HD
ENDROOT
BRANCH   7  12
HETATM   12  S   UNL     1     -43.288  54.791 -53.913  1.00  0.00    -0.083 SA
BRANCH  12  13
HETATM   13  C   UNL     1     -41.775  54.823 -52.913  1.00  0.00     0.123 C 
BRANCH  13  14
HETATM   14  C   UNL     1     -41.025  53.513 -53.008  1.00  0.00    -0.027 A 
HETATM   15  C   UNL     1     -40.218  53.021 -51.969  1.00  0.00     0.041 A 
HETATM   16 CL   UNL     1     -40.029  53.863 -50.471  1.00  0.00    -0.084 Cl
HETATM   17  C   UNL     1     -39.529  51.812 -52.115  1.00  0.00     0.024 A 
HETATM   18  C   UNL     1     -39.626  51.085 -53.300  1.00  0.00     0.002 A 
HETATM   19  C   UNL     1     -40.411  51.565 -54.344  1.00  0.00     0.001 A 
HETATM   20  C   UNL     1     -41.106  52.768 -54.200  1.00  0.00     0.009 A 
ENDBRANCH  13  14
ENDBRANCH  12  13
ENDBRANCH   7  12
BRANCH   9  21
HETATM   21  C   UNL     1     -44.308  57.063 -58.841  1.00  0.00     0.032 A 
HETATM   22  C   UNL     1     -45.462  57.744 -58.422  1.00  0.00     0.045 A 
HETATM   23 CL   UNL     1     -45.416  59.007 -57.244  1.00  0.00    -0.084 Cl
HETATM   24  C   UNL     1     -46.719  57.418 -58.949  1.00  0.00     0.024 A 
HETATM   25  C   UNL     1     -46.847  56.412 -59.906  1.00  0.00     0.005 A 
HETATM   26  C   UNL     1     -45.716  55.729 -60.335  1.00  0.00     0.043 A 
HETATM   27  C   UNL     1     -44.470  56.059 -59.807  1.00  0.00     0.126 A 
HETATM   28  F   UNL     1     -43.400  55.383 -60.252  1.00  0.00    -0.205 F 
ENDBRANCH   9  21
BRANCH  10  29
HETATM   29  C   UNL     1     -42.613  59.373 -59.922  1.00  0.00     0.293 C 
HETATM   30  O   UNL     1     -41.854  59.085 -60.833  1.00  0.00    -0.259 OA
BRANCH  29  31
HETATM   31  O   UNL     1     -43.669  60.217 -59.999  1.00  0.00    -0.323 OA
HETATM   32  C   UNL     1     -44.429  60.082 -61.202  1.00  0.00     0.213 C 
ENDBRANCH  29  31
ENDBRANCH  10  29
TORSDOF 6
ENDMDL
MODEL 2
REMARK VINA RESULT:      -8.4      1.546      3.399
REMARK  6 active torsions:
REMARK  status: ('A' for Active; 'I' for Inactive)
REMARK    1  A    between atoms: C_7  and  S_8 
REMARK    2  A    between atoms: S_8  and  C_9 
REMARK    3  A    between atoms: C_9  and  C_10 
REMARK    4  A    between atoms: C_18  and  C_19 
REMARK    5  A    between atoms: C_27  and  C_28 
REMARK    6  A    between atoms: C_28  and  O_29 
ROOT
HETATM    1  C   UNL     1     -44.643  55.375 -60.404  1.00  0.00     0.070 C 
HETATM    2  C   UNL     1     -44.231  56.029 -59.109  1.00  0.00     0.037 A 
HETATM    3  N   UNL     1     -43.440  55.252 -58.268  1.00  0.00    -0.192 N 
HETATM    4  C   UNL     1     -42.975  55.681 -57.081  1.00  0.00     0.726 A 
HETATM    5  N   UNL     1     -43.323  56.924 -56.635  1.00  0.00    -0.082 N 
HETATM    6  N   UNL     1     -42.806  57.174 -55.416  1.00  0.00    -0.128 NA
HETATM    7  C   UNL     1     -42.083  56.063 -55.220  1.00  0.00     0.226 A 
HETATM    8  N   UNL     1     -42.188  55.112 -56.206  1.00  0.00    -0.035 NA
HETATM    9  C   UNL     1     -44.162  57.869 -57.389  1.00  0.00     0.208 A 
HETATM   10  C   UNL     1     -44.595  57.279 -58.727  1.00  0.00     0.070 A 
HETATM   11  H   UNL     1     -43.137  54.345 -58.612  1.00  0.00     0.184 HD
ENDROOT
BRANCH   7  12
HETATM   12  S   UNL     1     -41.045  55.833 -53.841  1.00  0.00    -0.083 SA
BRANCH  12  13
HETATM   13  C   UNL     1     -41.870  54.453 -52.999  1.00  0.00     0.123 C 
BRANCH  13  14
HETATM   14  C   UNL     1     -41.031  53.196 -53.054  1.00  0.00    -0.027 A 
HETATM   15  C   UNL     1     -40.170  52.808 -52.014  1.00  0.00     0.041 A 
HETATM   16 CL   UNL     1     -40.008  53.729 -50.560  1.00  0.00    -0.084 Cl
HETATM   17  C   UNL     1     -39.400  51.645 -52.124  1.00  0.00     0.024 A 
HETATM   18  C   UNL     1     -39.471  50.859 -53.273  1.00  0.00     0.002 A 
HETATM   19  C   UNL     1     -40.311  51.235 -54.317  1.00  0.00     0.001 A 
HETATM   20  C   UNL     1     -41.085  52.392 -54.210  1.00  0.00     0.009 A 
ENDBRANCH  13  14
ENDBRANCH  12  13
ENDBRANCH   7  12
BRANCH   9  21
HETATM   21  C   UNL     1     -43.438  59.203 -57.502  1.00  0.00     0.032 A 
HETATM   22  C   UNL     1     -43.924  60.388 -56.925  1.00  0.00     0.045 A 
HETATM   23 CL   UNL     1     -45.421  60.453 -56.064  1.00  0.00    -0.084 Cl
HETATM   24  C   UNL     1     -43.202  61.585 -57.029  1.00  0.00     0.024 A 
HETATM   25  C   UNL     1     -41.984  61.622 -57.705  1.00  0.00     0.005 A 
HETATM   26  C   UNL     1     -41.486  60.459 -58.280  1.00  0.00     0.043 A 
HETATM   27  C   UNL     1     -42.208  59.273 -58.173  1.00  0.00     0.126 A 
HETATM   28  F   UNL     1     -41.691  58.170 -58.734  1.00  0.00    -0.205 F 
ENDBRANCH   9  21
BRANCH  10  29
HETATM   29  C   UNL     1     -45.401  58.152 -59.604  1.00  0.00     0.293 C 
HETATM   30  O   UNL     1     -44.946  58.848 -60.496  1.00  0.00    -0.259 OA
BRANCH  29  31
HETATM   31  O   UNL     1     -46.704  58.061 -59.247  1.00  0.00    -0.323 OA
HETATM   32  C   UNL     1     -47.312  59.321 -58.953  1.00  0.00     0.213 C 
ENDBRANCH  29  31
ENDBRANCH  10  29
TORSDOF 6
ENDMDL
MODEL 3
REMARK VINA RESULT:      -8.1      4.091      7.546
REMARK  6 active torsions:
REMARK  status: ('A' for Active; 'I' for Inactive)
REMARK    1  A    between atoms: C_7  and  S_8 
REMARK    2  A    between atoms: S_8  and  C_9 
REMARK    3  A    between atoms: C_9  and  C_10 
REMARK    4  A    between atoms: C_18  and  C_19 
REMARK    5  A    between atoms: C_27  and  C_28 
REMARK    6  A    between atoms: C_28  and  O_29 
ROOT
HETATM    1  C   UNL     1     -41.727  59.589 -50.450  1.00  0.00     0.070 C 
HETATM    2  C   UNL     1     -42.418  58.723 -51.472  1.00  0.00     0.037 A 
HETATM    3  N   UNL     1     -43.162  59.403 -52.432  1.00  0.00    -0.192 N 
HETATM    4  C   UNL     1     -43.832  58.789 -53.424  1.00  0.00     0.726 A 
HETATM    5  N   UNL     1     -43.837  57.424 -53.483  1.00  0.00    -0.082 N 
HETATM    6  N   UNL     1     -44.588  56.977 -54.510  1.00  0.00    -0.128 NA
HETATM    7  C   UNL     1     -44.942  58.137 -55.082  1.00  0.00     0.226 A 
HETATM    8  N   UNL     1     -44.523  59.268 -54.424  1.00  0.00    -0.035 NA
HETATM    9  C   UNL     1     -43.117  56.552 -52.543  1.00  0.00     0.208 A 
HETATM   10  C   UNL     1     -42.372  57.367 -51.491  1.00  0.00     0.070 A 
HETATM   11  H   UNL     1     -43.126  60.418 -52.424  1.00  0.00     0.184 HD
ENDROOT
BRANCH   7  12
HETATM   12  S   UNL     1     -45.837  58.229 -56.572  1.00  0.00    -0.083 SA
BRANCH  12  13
HETATM   13  C   UNL     1     -44.499  58.198 -57.796  1.00  0.00     0.123 C 
BRANCH  13  14
HETATM   14  C   UNL     1     -44.642  57.023 -58.738  1.00  0.00    -0.027 A 
HETATM   15  C   UNL     1     -43.915  55.831 -58.585  1.00  0.00     0.041 A 
HETATM   16 CL   UNL     1     -42.801  55.592 -57.284  1.00  0.00    -0.084 Cl
HETATM   17  C   UNL     1     -44.070  54.780 -59.496  1.00  0.00     0.024 A 
HETATM   18  C   UNL     1     -44.942  54.908 -60.575  1.00  0.00     0.002 A 
HETATM   19  C   UNL     1     -45.662  56.086 -60.749  1.00  0.00     0.001 A 
HETATM   20  C   UNL     1     -45.515  57.135 -59.838  1.00  0.00     0.009 A 
ENDBRANCH  13  14
ENDBRANCH  12  13
ENDBRANCH   7  12
BRANCH   9  21
HETATM   21  C   UNL     1     -42.235  55.589 -53.325  1.00  0.00     0.032 A 
HETATM   22  C   UNL     1     -41.107  56.004 -54.051  1.00  0.00     0.045 A 
HETATM   23 CL   UNL     1     -40.635  57.663 -54.162  1.00  0.00    -0.084 Cl
HETATM   24  C   UNL     1     -40.306  55.074 -54.728  1.00  0.00     0.024 A 
HETATM   25  C   UNL     1     -40.613  53.715 -54.690  1.00  0.00     0.005 A 
HETATM   26  C   UNL     1     -41.724  53.284 -53.974  1.00  0.00     0.043 A 
HETATM   27  C   UNL     1     -42.515  54.214 -53.304  1.00  0.00     0.126 A 
HETATM   28  F   UNL     1     -43.573  53.760 -52.618  1.00  0.00    -0.205 F 
ENDBRANCH   9  21
BRANCH  10  29
HETATM   29  C   UNL     1     -41.565  56.607 -50.516  1.00  0.00     0.293 C 
HETATM   30  O   UNL     1     -40.369  56.766 -50.330  1.00  0.00    -0.259 OA
BRANCH  29  31
HETATM   31  O   UNL     1     -42.358  55.709 -49.884  1.00  0.00    -0.323 OA
HETATM   32  C   UNL     1     -41.687  54.502 -49.518  1.00  0.00     0.213 C 
ENDBRANCH  29  31
ENDBRANCH  10  29
TORSDOF 6
ENDMDL
MODEL 4
REMARK VINA RESULT:      -7.9      3.832      7.446
REMARK  6 active torsions:
REMARK  status: ('A' for Active; 'I' for Inactive)
REMARK    1  A    between atoms: C_7  and  S_8 
REMARK    2  A    between atoms: S_8  and  C_9 
REMARK    3  A    between atoms: C_9  and  C_10 
REMARK    4  A    between atoms: C_18  and  C_19 
REMARK    5  A    between atoms: C_27  and  C_28 
REMARK    6  A    between atoms: C_28  and  O_29 
ROOT
HETATM    1  C   UNL     1     -41.135  59.526 -50.852  1.00  0.00     0.070 C 
HETATM    2  C   UNL     1     -41.610  58.941 -52.158  1.00  0.00     0.037 A 
HETATM    3  N   UNL     1     -41.503  59.778 -53.265  1.00  0.00    -0.192 N 
HETATM    4  C   UNL     1     -41.869  59.416 -54.508  1.00  0.00     0.726 A 
HETATM    5  N   UNL     1     -42.421  58.183 -54.710  1.00  0.00    -0.082 N 
HETATM    6  N   UNL     1     -42.766  58.002 -56.000  1.00  0.00    -0.128 NA
HETATM    7  C   UNL     1     -42.313  59.142 -56.541  1.00  0.00     0.226 A 
HETATM    8  N   UNL     1     -41.786  60.046 -55.650  1.00  0.00    -0.035 NA
HETATM    9  C   UNL     1     -42.620  57.181 -53.651  1.00  0.00     0.208 A 
HETATM   10  C   UNL     1     -42.136  57.699 -52.301  1.00  0.00     0.070 A 
HETATM   11  H   UNL     1     -41.050  60.679 -53.133  1.00  0.00     0.184 HD
ENDROOT
BRANCH   7  12
HETATM   12  S   UNL     1     -42.345  59.464 -58.251  1.00  0.00    -0.083 SA
BRANCH  12  13
HETATM   13  C   UNL     1     -44.084  59.133 -58.647  1.00  0.00     0.123 C 
BRANCH  13  14
HETATM   14  C   UNL     1     -44.267  57.734 -59.193  1.00  0.00    -0.027 A 
HETATM   15  C   UNL     1     -45.528  57.192 -59.491  1.00  0.00     0.041 A 
HETATM   16 CL   UNL     1     -46.991  58.088 -59.279  1.00  0.00    -0.084 Cl
HETATM   17  C   UNL     1     -45.644  55.884 -59.977  1.00  0.00     0.024 A 
HETATM   18  C   UNL     1     -44.508  55.099 -60.161  1.00  0.00     0.002 A 
HETATM   19  C   UNL     1     -43.252  55.617 -59.860  1.00  0.00     0.001 A 
HETATM   20  C   UNL     1     -43.131  56.923 -59.381  1.00  0.00     0.009 A 
ENDBRANCH  13  14
ENDBRANCH  12  13
ENDBRANCH   7  12
BRANCH   9  21
HETATM   21  C   UNL     1     -41.984  55.866 -54.079  1.00  0.00     0.032 A 
HETATM   22  C   UNL     1     -42.727  54.698 -54.314  1.00  0.00     0.045 A 
HETATM   23 CL   UNL     1     -44.440  54.631 -54.098  1.00  0.00    -0.084 Cl
HETATM   24  C   UNL     1     -42.097  53.520 -54.739  1.00  0.00     0.024 A 
HETATM   25  C   UNL     1     -40.718  53.486 -54.940  1.00  0.00     0.005 A 
HETATM   26  C   UNL     1     -39.967  54.633 -54.714  1.00  0.00     0.043 A 
HETATM   27  C   UNL     1     -40.599  55.800 -54.293  1.00  0.00     0.126 A 
HETATM   28  F   UNL     1     -39.841  56.888 -54.094  1.00  0.00    -0.205 F 
ENDBRANCH   9  21
BRANCH  10  29
HETATM   29  C   UNL     1     -42.233  56.764 -51.162  1.00  0.00     0.293 C 
HETATM   30  O   UNL     1     -41.277  56.289 -50.571  1.00  0.00    -0.259 OA
BRANCH  29  31
HETATM   31  O   UNL     1     -43.538  56.517 -50.898  1.00  0.00    -0.323 OA
HETATM   32  C   UNL     1     -43.814  55.152 -50.578  1.00  0.00     0.213 C 
ENDBRANCH  29  31
ENDBRANCH  10  29
TORSDOF 6
ENDMDL
MODEL 5
REMARK VINA RESULT:      -7.7      1.655      2.075
REMARK  6 active torsions:
REMARK  status: ('A' for Active; 'I' for Inactive)
REMARK    1  A    between atoms: C_7  and  S_8 
REMARK    2  A    between atoms: S_8  and  C_9 
REMARK    3  A    between atoms: C_9  and  C_10 
REMARK    4  A    between atoms: C_18  and  C_19 
REMARK    5  A    between atoms: C_27  and  C_28 
REMARK    6  A    between atoms: C_28  and  O_29 
ROOT
HETATM    1  C   UNL     1     -43.002  61.342 -54.455  1.00  0.00     0.070 C 
HETATM    2  C   UNL     1     -42.752  59.976 -55.042  1.00  0.00     0.037 A 
HETATM    3  N   UNL     1     -42.715  58.927 -54.129  1.00  0.00    -0.192 N 
HETATM    4  C   UNL     1     -42.514  57.644 -54.480  1.00  0.00     0.726 A 
HETATM    5  N   UNL     1     -42.284  57.337 -55.791  1.00  0.00    -0.082 N 
HETATM    6  N   UNL     1     -42.062  56.018 -55.957  1.00  0.00    -0.128 NA
HETATM    7  C   UNL     1     -42.258  55.573 -54.708  1.00  0.00     0.226 A 
HETATM    8  N   UNL     1     -42.506  56.547 -53.771  1.00  0.00    -0.035 NA
HETATM    9  C   UNL     1     -42.272  58.323 -56.882  1.00  0.00     0.208 A 
HETATM   10  C   UNL     1     -42.546  59.730 -56.360  1.00  0.00     0.070 A 
HETATM   11  H   UNL     1     -42.933  59.139 -53.159  1.00  0.00     0.184 HD
ENDROOT
BRANCH   7  12
HETATM   12  S   UNL     1     -42.243  53.885 -54.285  1.00  0.00    -0.083 SA
BRANCH  12  13
HETATM   13  C   UNL     1     -40.466  53.523 -54.313  1.00  0.00     0.123 C 
BRANCH  13  14
HETATM   14  C   UNL     1     -40.162  52.207 -53.634  1.00  0.00    -0.027 A 
HETATM   15  C   UNL     1     -39.856  52.109 -52.265  1.00  0.00     0.041 A 
HETATM   16 CL   UNL     1     -39.824  53.491 -51.227  1.00  0.00    -0.084 Cl
HETATM   17  C   UNL     1     -39.562  50.869 -51.689  1.00  0.00     0.024 A 
HETATM   18  C   UNL     1     -39.559  49.713 -52.468  1.00  0.00     0.002 A 
HETATM   19  C   UNL     1     -39.847  49.794 -53.827  1.00  0.00     0.001 A 
HETATM   20  C   UNL     1     -40.147  51.029 -54.406  1.00  0.00     0.009 A 
ENDBRANCH  13  14
ENDBRANCH  12  13
ENDBRANCH   7  12
BRANCH   9  21
HETATM   21  C   UNL     1     -43.226  57.870 -57.979  1.00  0.00     0.032 A 
HETATM   22  C   UNL     1     -44.615  57.784 -57.796  1.00  0.00     0.045 A 
HETATM   23 CL   UNL     1     -45.376  58.145 -56.287  1.00  0.00    -0.084 Cl
HETATM   24  C   UNL     1     -45.455  57.393 -58.848  1.00  0.00     0.024 A 
HETATM   25  C   UNL     1     -44.926  57.084 -60.100  1.00  0.00     0.005 A 
HETATM   26  C   UNL     1     -43.553  57.166 -60.301  1.00  0.00     0.043 A 
HETATM   27  C   UNL     1     -42.725  57.556 -59.251  1.00  0.00     0.126 A 
HETATM   28  F   UNL     1     -41.407  57.631 -59.486  1.00  0.00    -0.205 F 
ENDBRANCH   9  21
BRANCH  10  29
HETATM   29  C   UNL     1     -42.613  60.807 -57.368  1.00  0.00     0.293 C 
HETATM   30  O   UNL     1     -41.653  61.245 -57.980  1.00  0.00    -0.259 OA
BRANCH  29  31
HETATM   31  O   UNL     1     -43.895  61.226 -57.488  1.00  0.00    -0.323 OA
HETATM   32  C   UNL     1     -44.245  61.645 -58.809  1.00  0.00     0.213 C 
ENDBRANCH  29  31
ENDBRANCH  10  29
TORSDOF 6
ENDMDL
MODEL 6
REMARK VINA RESULT:      -7.7      3.431      4.544
REMARK  6 active torsions:
REMARK  status: ('A' for Active; 'I' for Inactive)
REMARK    1  A    between atoms: C_7  and  S_8 
REMARK    2  A    between atoms: S_8  and  C_9 
REMARK    3  A    between atoms: C_9  and  C_10 
REMARK    4  A    between atoms: C_18  and  C_19 
REMARK    5  A    between atoms: C_27  and  C_28 
REMARK    6  A    between atoms: C_28  and  O_29 
ROOT
HETATM    1  C   UNL     1     -45.777  59.088 -50.671  1.00  0.00     0.070 C 
HETATM    2  C   UNL     1     -44.937  58.577 -51.814  1.00  0.00     0.037 A 
HETATM    3  N   UNL     1     -44.557  57.241 -51.730  1.00  0.00    -0.192 N 
HETATM    4  C   UNL     1     -43.817  56.619 -52.667  1.00  0.00     0.726 A 
HETATM    5  N   UNL     1     -43.364  57.329 -53.741  1.00  0.00    -0.082 N 
HETATM    6  N   UNL     1     -42.607  56.565 -54.554  1.00  0.00    -0.128 NA
HETATM    7  C   UNL     1     -42.716  55.374 -53.949  1.00  0.00     0.226 A 
HETATM    8  N   UNL     1     -43.424  55.377 -52.771  1.00  0.00    -0.035 NA
HETATM    9  C   UNL     1     -43.658  58.750 -53.979  1.00  0.00     0.208 A 
HETATM   10  C   UNL     1     -44.530  59.328 -52.868  1.00  0.00     0.070 A 
HETATM   11  H   UNL     1     -44.929  56.693 -50.959  1.00  0.00     0.184 HD
ENDROOT
BRANCH   7  12
HETATM   12  S   UNL     1     -42.050  53.906 -54.606  1.00  0.00    -0.083 SA
BRANCH  12  13
HETATM   13  C   UNL     1     -40.508  53.758 -53.661  1.00  0.00     0.123 C 
BRANCH  13  14
HETATM   14  C   UNL     1     -40.188  52.312 -53.354  1.00  0.00    -0.027 A 
HETATM   15  C   UNL     1     -39.852  51.863 -52.066  1.00  0.00     0.041 A 
HETATM   16 CL   UNL     1     -39.796  52.927 -50.704  1.00  0.00    -0.084 Cl
HETATM   17  C   UNL     1     -39.545  50.516 -51.839  1.00  0.00     0.024 A 
HETATM   18  C   UNL     1     -39.559  49.604 -52.892  1.00  0.00     0.002 A 
HETATM   19  C   UNL     1     -39.879  50.034 -54.176  1.00  0.00     0.001 A 
HETATM   20  C   UNL     1     -40.192  51.375 -54.406  1.00  0.00     0.009 A 
ENDBRANCH  13  14
ENDBRANCH  12  13
ENDBRANCH   7  12
BRANCH   9  21
HETATM   21  C   UNL     1     -44.239  58.916 -55.376  1.00  0.00     0.032 A 
HETATM   22  C   UNL     1     -43.659  59.743 -56.352  1.00  0.00     0.045 A 
HETATM   23 CL   UNL     1     -42.247  60.691 -56.044  1.00  0.00    -0.084 Cl
HETATM   24  C   UNL     1     -44.214  59.836 -57.636  1.00  0.00     0.024 A 
HETATM   25  C   UNL     1     -45.352  59.104 -57.970  1.00  0.00     0.005 A 
HETATM   26  C   UNL     1     -45.939  58.279 -57.019  1.00  0.00     0.043 A 
HETATM   27  C   UNL     1     -45.382  58.191 -55.745  1.00  0.00     0.126 A 
HETATM   28  F   UNL     1     -45.971  57.377 -54.857  1.00  0.00    -0.205 F 
ENDBRANCH   9  21
BRANCH  10  29
HETATM   29  C   UNL     1     -44.940  60.739 -53.018  1.00  0.00     0.293 C 
HETATM   30  O   UNL     1     -44.251  61.698 -52.712  1.00  0.00    -0.259 OA
BRANCH  29  31
HETATM   31  O   UNL     1     -46.193  60.786 -53.530  1.00  0.00    -0.323 OA
HETATM   32  C   UNL     1     -46.378  61.809 -54.510  1.00  0.00     0.213 C 
ENDBRANCH  29  31
ENDBRANCH  10  29
TORSDOF 6
ENDMDL
MODEL 7
REMARK VINA RESULT:      -7.4      4.353      8.485
REMARK  6 active torsions:
REMARK  status: ('A' for Active; 'I' for Inactive)
REMARK    1  A    between atoms: C_7  and  S_8 
REMARK    2  A    between atoms: S_8  and  C_9 
REMARK    3  A    between atoms: C_9  and  C_10 
REMARK    4  A    between atoms: C_18  and  C_19 
REMARK    5  A    between atoms: C_27  and  C_28 
REMARK    6  A    between atoms: C_28  and  O_29 
ROOT
HETATM    1  C   UNL     1     -41.464  59.566 -50.987  1.00  0.00     0.070 C 
HETATM    2  C   UNL     1     -41.825  58.942 -52.311  1.00  0.00     0.037 A 
HETATM    3  N   UNL     1     -41.644  59.753 -53.427  1.00  0.00    -0.192 N 
HETATM    4  C   UNL     1     -41.904  59.355 -54.686  1.00  0.00     0.726 A 
HETATM    5  N   UNL     1     -42.422  58.109 -54.899  1.00  0.00    -0.082 N 
HETATM    6  N   UNL     1     -42.661  57.891 -56.207  1.00  0.00    -0.128 NA
HETATM    7  C   UNL     1     -42.183  59.025 -56.740  1.00  0.00     0.226 A 
HETATM    8  N   UNL     1     -41.741  59.958 -55.833  1.00  0.00    -0.035 NA
HETATM    9  C   UNL     1     -42.690  57.130 -53.834  1.00  0.00     0.208 A 
HETATM   10  C   UNL     1     -42.321  57.689 -52.463  1.00  0.00     0.070 A 
HETATM   11  H   UNL     1     -41.214  60.664 -53.284  1.00  0.00     0.184 HD
ENDROOT
BRANCH   7  12
HETATM   12  S   UNL     1     -42.084  59.304 -58.455  1.00  0.00    -0.083 SA
BRANCH  12  13
HETATM   13  C   UNL     1     -42.466  61.075 -58.553  1.00  0.00     0.123 C 
BRANCH  13  14
HETATM   14  C   UNL     1     -41.438  61.814 -59.379  1.00  0.00    -0.027 A 
HETATM   15  C   UNL     1     -41.467  61.843 -60.784  1.00  0.00     0.041 A 
HETATM   16 CL   UNL     1     -42.703  61.049 -61.696  1.00  0.00    -0.084 Cl
HETATM   17  C   UNL     1     -40.480  62.525 -61.503  1.00  0.00     0.024 A 
HETATM   18  C   UNL     1     -39.446  63.178 -60.834  1.00  0.00     0.002 A 
HETATM   19  C   UNL     1     -39.395  63.150 -59.443  1.00  0.00     0.001 A 
HETATM   20  C   UNL     1     -40.382  62.475 -58.721  1.00  0.00     0.009 A 
ENDBRANCH  13  14
ENDBRANCH  12  13
ENDBRANCH   7  12
BRANCH   9  21
HETATM   21  C   UNL     1     -42.004  55.815 -54.176  1.00  0.00     0.032 A 
HETATM   22  C   UNL     1     -42.705  54.615 -54.374  1.00  0.00     0.045 A 
HETATM   23 CL   UNL     1     -44.422  54.506 -54.204  1.00  0.00    -0.084 Cl
HETATM   24  C   UNL     1     -42.029  53.437 -54.720  1.00  0.00     0.024 A 
HETATM   25  C   UNL     1     -40.645  53.435 -54.880  1.00  0.00     0.005 A 
HETATM   26  C   UNL     1     -39.933  54.614 -54.691  1.00  0.00     0.043 A 
HETATM   27  C   UNL     1     -40.611  55.781 -54.347  1.00  0.00     0.126 A 
HETATM   28  F   UNL     1     -39.891  56.899 -54.181  1.00  0.00    -0.205 F 
ENDBRANCH   9  21
BRANCH  10  29
HETATM   29  C   UNL     1     -42.495  56.780 -51.312  1.00  0.00     0.293 C 
HETATM   30  O   UNL     1     -41.595  56.421 -50.570  1.00  0.00    -0.259 OA
BRANCH  29  31
HETATM   31  O   UNL     1     -43.795  56.410 -51.229  1.00  0.00    -0.323 OA
HETATM   32  C   UNL     1     -43.997  55.152 -50.581  1.00  0.00     0.213 C 
ENDBRANCH  29  31
ENDBRANCH  10  29
TORSDOF 6
ENDMDL
MODEL 8
REMARK VINA RESULT:      -7.3      4.570      8.298
REMARK  6 active torsions:
REMARK  status: ('A' for Active; 'I' for Inactive)
REMARK    1  A    between atoms: C_7  and  S_8 
REMARK    2  A    between atoms: S_8  and  C_9 
REMARK    3  A    between atoms: C_9  and  C_10 
REMARK    4  A    between atoms: C_18  and  C_19 
REMARK    5  A    between atoms: C_27  and  C_28 
REMARK    6  A    between atoms: C_28  and  O_29 
ROOT
HETATM    1  C   UNL     1     -46.559  61.259 -52.679  1.00  0.00     0.070 C 
HETATM    2  C   UNL     1     -45.756  60.018 -52.976  1.00  0.00     0.037 A 
HETATM    3  N   UNL     1     -45.527  59.758 -54.324  1.00  0.00    -0.192 N 
HETATM    4  C   UNL     1     -44.820  58.702 -54.767  1.00  0.00     0.726 A 
HETATM    5  N   UNL     1     -44.335  57.797 -53.867  1.00  0.00    -0.082 N 
HETATM    6  N   UNL     1     -43.692  56.785 -54.483  1.00  0.00    -0.128 NA
HETATM    7  C   UNL     1     -43.755  57.190 -55.759  1.00  0.00     0.226 A 
HETATM    8  N   UNL     1     -44.468  58.345 -55.973  1.00  0.00    -0.035 NA
HETATM    9  C   UNL     1     -44.499  57.909 -52.409  1.00  0.00     0.208 A 
HETATM   10  C   UNL     1     -45.284  59.162 -52.035  1.00  0.00     0.070 A 
HETATM   11  H   UNL     1     -45.842  60.451 -54.997  1.00  0.00     0.184 HD
ENDROOT
BRANCH   7  12
HETATM   12  S   UNL     1     -42.968  56.350 -57.065  1.00  0.00    -0.083 SA
BRANCH  12  13
HETATM   13  C   UNL     1     -43.288  57.471 -58.456  1.00  0.00     0.123 C 
BRANCH  13  14
HETATM   14  C   UNL     1     -44.387  56.938 -59.349  1.00  0.00    -0.027 A 
HETATM   15  C   UNL     1     -45.558  57.663 -59.629  1.00  0.00     0.041 A 
HETATM   16 CL   UNL     1     -45.838  59.245 -58.992  1.00  0.00    -0.084 Cl
HETATM   17  C   UNL     1     -46.555  57.116 -60.446  1.00  0.00     0.024 A 
HETATM   18  C   UNL     1     -46.402  55.840 -60.984  1.00  0.00     0.002 A 
HETATM   19  C   UNL     1     -45.254  55.105 -60.707  1.00  0.00     0.001 A 
HETATM   20  C   UNL     1     -44.254  55.648 -59.897  1.00  0.00     0.009 A 
ENDBRANCH  13  14
ENDBRANCH  12  13
ENDBRANCH   7  12
BRANCH   9  21
HETATM   21  C   UNL     1     -43.134  57.806 -51.742  1.00  0.00     0.032 A 
HETATM   22  C   UNL     1     -42.748  56.709 -50.956  1.00  0.00     0.045 A 
HETATM   23 CL   UNL     1     -43.807  55.381 -50.635  1.00  0.00    -0.084 Cl
HETATM   24  C   UNL     1     -41.467  56.646 -50.390  1.00  0.00     0.024 A 
HETATM   25  C   UNL     1     -40.549  57.673 -50.599  1.00  0.00     0.005 A 
HETATM   26  C   UNL     1     -40.912  58.767 -51.376  1.00  0.00     0.043 A 
HETATM   27  C   UNL     1     -42.186  58.822 -51.936  1.00  0.00     0.126 A 
HETATM   28  F   UNL     1     -42.497  59.890 -52.686  1.00  0.00    -0.205 F 
ENDBRANCH   9  21
BRANCH  10  29
HETATM   29  C   UNL     1     -45.471  59.417 -50.593  1.00  0.00     0.293 C 
HETATM   30  O   UNL     1     -46.260  58.820 -49.880  1.00  0.00    -0.259 OA
BRANCH  29  31
HETATM   31  O   UNL     1     -44.644  60.417 -50.206  1.00  0.00    -0.323 OA
HETATM   32  C   UNL     1     -45.093  61.122 -49.047  1.00  0.00     0.213 C 
ENDBRANCH  29  31
ENDBRANCH  10  29
TORSDOF 6
ENDMDL
MODEL 9
REMARK VINA RESULT:      -7.2      4.292      8.851
REMARK  6 active torsions:
REMARK  status: ('A' for Active; 'I' for Inactive)
REMARK    1  A    between atoms: C_7  and  S_8 
REMARK    2  A    between atoms: S_8  and  C_9 
REMARK    3  A    between atoms: C_9  and  C_10 
REMARK    4  A    between atoms: C_18  and  C_19 
REMARK    5  A    between atoms: C_27  and  C_28 
REMARK    6  A    between atoms: C_28  and  O_29 
ROOT
HETATM    1  C   UNL     1     -43.144  54.181 -55.669  1.00  0.00     0.070 C 
HETATM    2  C   UNL     1     -42.739  55.612 -55.426  1.00  0.00     0.037 A 
HETATM    3  N   UNL     1     -42.814  56.455 -56.531  1.00  0.00    -0.192 N 
HETATM    4  C   UNL     1     -42.502  57.763 -56.490  1.00  0.00     0.726 A 
HETATM    5  N   UNL     1     -42.038  58.304 -55.325  1.00  0.00    -0.082 N 
HETATM    6  N   UNL     1     -41.735  59.609 -55.473  1.00  0.00    -0.128 NA
HETATM    7  C   UNL     1     -42.122  59.812 -56.740  1.00  0.00     0.226 A 
HETATM    8  N   UNL     1     -42.567  58.694 -57.404  1.00  0.00    -0.035 NA
HETATM    9  C   UNL     1     -41.882  57.555 -54.069  1.00  0.00     0.208 A 
HETATM   10  C   UNL     1     -42.301  56.098 -54.237  1.00  0.00     0.070 A 
HETATM   11  H   UNL     1     -43.203  56.073 -57.389  1.00  0.00     0.184 HD
ENDROOT
BRANCH   7  12
HETATM   12  S   UNL     1     -42.107  61.377 -57.502  1.00  0.00    -0.083 SA
BRANCH  12  13
HETATM   13  C   UNL     1     -41.924  60.924 -59.249  1.00  0.00     0.123 C 
BRANCH  13  14
HETATM   14  C   UNL     1     -40.979  61.864 -59.964  1.00  0.00    -0.027 A 
HETATM   15  C   UNL     1     -40.991  62.041 -61.358  1.00  0.00     0.041 A 
HETATM   16 CL   UNL     1     -42.110  61.212 -62.383  1.00  0.00    -0.084 Cl
HETATM   17  C   UNL     1     -40.081  62.908 -61.974  1.00  0.00     0.024 A 
HETATM   18  C   UNL     1     -39.143  63.600 -61.211  1.00  0.00     0.002 A 
HETATM   19  C   UNL     1     -39.109  63.428 -59.830  1.00  0.00     0.001 A 
HETATM   20  C   UNL     1     -40.019  62.568 -59.211  1.00  0.00     0.009 A 
ENDBRANCH  13  14
ENDBRANCH  12  13
ENDBRANCH   7  12
BRANCH   9  21
HETATM   21  C   UNL     1     -42.615  58.288 -52.953  1.00  0.00     0.032 A 
HETATM   22  C   UNL     1     -41.950  58.948 -51.907  1.00  0.00     0.045 A 
HETATM   23 CL   UNL     1     -40.228  58.954 -51.760  1.00  0.00    -0.084 Cl
HETATM   24  C   UNL     1     -42.670  59.638 -50.922  1.00  0.00     0.024 A 
HETATM   25  C   UNL     1     -44.062  59.685 -50.964  1.00  0.00     0.005 A 
HETATM   26  C   UNL     1     -44.738  59.041 -51.993  1.00  0.00     0.043 A 
HETATM   27  C   UNL     1     -44.016  58.358 -52.970  1.00  0.00     0.126 A 
HETATM   28  F   UNL     1     -44.703  57.755 -53.951  1.00  0.00    -0.205 F 
ENDBRANCH   9  21
BRANCH  10  29
HETATM   29  C   UNL     1     -42.241  55.250 -53.030  1.00  0.00     0.293 C 
HETATM   30  O   UNL     1     -43.207  54.934 -52.355  1.00  0.00    -0.259 OA
BRANCH  29  31
HETATM   31  O   UNL     1     -40.954  54.900 -52.794  1.00  0.00    -0.323 OA
HETATM   32  C   UNL     1     -40.781  53.521 -52.464  1.00  0.00     0.213 C 
ENDBRANCH  29  31
ENDBRANCH  10  29
TORSDOF 6
ENDMDL
MODEL 10
REMARK VINA RESULT:      -7.2      4.244      8.240
REMARK  6 active torsions:
REMARK  status: ('A' for Active; 'I' for Inactive)
REMARK    1  A    between atoms: C_7  and  S_8 
REMARK    2  A    between atoms: S_8  and  C_9 
REMARK    3  A    between atoms: C_9  and  C_10 
REMARK    4  A    between atoms: C_18  and  C_19 
REMARK    5  A    between atoms: C_27  and  C_28 
REMARK    6  A    between atoms: C_28  and  O_29 
ROOT
HETATM    1  C   UNL     1     -41.794  53.403 -52.578  1.00  0.00     0.070 C 
HETATM    2  C   UNL     1     -41.837  54.848 -53.005  1.00  0.00     0.037 A 
HETATM    3  N   UNL     1     -41.969  55.068 -54.372  1.00  0.00    -0.192 N 
HETATM    4  C   UNL     1     -42.035  56.293 -54.925  1.00  0.00     0.726 A 
HETATM    5  N   UNL     1     -41.920  57.394 -54.126  1.00  0.00    -0.082 N 
HETATM    6  N   UNL     1     -41.965  58.533 -54.846  1.00  0.00    -0.128 NA
HETATM    7  C   UNL     1     -42.195  58.043 -56.072  1.00  0.00     0.226 A 
HETATM    8  N   UNL     1     -42.212  56.672 -56.163  1.00  0.00    -0.035 NA
HETATM    9  C   UNL     1     -41.760  57.344 -52.665  1.00  0.00     0.208 A 
HETATM   10  C   UNL     1     -41.734  55.905 -52.160  1.00  0.00     0.070 A 
HETATM   11  H   UNL     1     -42.104  54.256 -54.969  1.00  0.00     0.184 HD
ENDROOT
BRANCH   7  12
HETATM   12  S   UNL     1     -42.491  59.050 -57.461  1.00  0.00    -0.083 SA
BRANCH  12  13
HETATM   13  C   UNL     1     -44.303  59.010 -57.553  1.00  0.00     0.123 C 
BRANCH  13  14
HETATM   14  C   UNL     1     -44.778  58.015 -58.588  1.00  0.00    -0.027 A 
HETATM   15  C   UNL     1     -46.124  57.631 -58.713  1.00  0.00     0.041 A 
HETATM   16 CL   UNL     1     -47.366  58.284 -57.704  1.00  0.00    -0.084 Cl
HETATM   17  C   UNL     1     -46.509  56.691 -59.675  1.00  0.00     0.024 A 
HETATM   18  C   UNL     1     -45.559  56.114 -60.516  1.00  0.00     0.002 A 
HETATM   19  C   UNL     1     -44.220  56.475 -60.398  1.00  0.00     0.001 A 
HETATM   20  C   UNL     1     -43.832  57.417 -59.443  1.00  0.00     0.009 A 
ENDBRANCH  13  14
ENDBRANCH  12  13
ENDBRANCH   7  12
BRANCH   9  21
HETATM   21  C   UNL     1     -42.825  58.214 -52.013  1.00  0.00     0.032 A 
HETATM   22  C   UNL     1     -42.520  59.327 -51.213  1.00  0.00     0.045 A 
HETATM   23 CL   UNL     1     -40.895  59.793 -50.855  1.00  0.00    -0.084 Cl
HETATM   24  C   UNL     1     -43.539  60.117 -50.663  1.00  0.00     0.024 A 
HETATM   25  C   UNL     1     -44.878  59.813 -50.902  1.00  0.00     0.005 A 
HETATM   26  C   UNL     1     -45.200  58.717 -51.693  1.00  0.00     0.043 A 
HETATM   27  C   UNL     1     -44.183  57.937 -52.238  1.00  0.00     0.126 A 
HETATM   28  F   UNL     1     -44.533  56.893 -53.002  1.00  0.00    -0.205 F 
ENDBRANCH   9  21
BRANCH  10  29
HETATM   29  C   UNL     1     -41.630  55.720 -50.699  1.00  0.00     0.293 C 
HETATM   30  O   UNL     1     -42.581  55.567 -49.949  1.00  0.00    -0.259 OA
BRANCH  29  31
HETATM   31  O   UNL     1     -40.326  55.762 -50.335  1.00  0.00    -0.323 OA
HETATM   32  C   UNL     1     -39.880  54.591 -49.648  1.00  0.00     0.213 C 
ENDBRANCH  29  31
ENDBRANCH  10  29
TORSDOF 6
ENDMDL
