MODEL 1
REMARK VINA RESULT:      -9.3      0.000      0.000
REMARK  8 active torsions:
REMARK  status: ('A' for Active; 'I' for Inactive)
REMARK    1  A    between atoms: O_2  and  C_3 
REMARK    2  A    between atoms: C_5  and  N_6 
REMARK       I    between atoms: N_6  and  C_7 
REMARK    3  A    between atoms: C_7  and  C_8 
REMARK    4  A    between atoms: C_8  and  N_9 
REMARK       I    between atoms: N_15  and  C_16 
REMARK    5  A    between atoms: C_16  and  C_17 
REMARK    6  A    between atoms: C_17  and  C_18 
REMARK    7  A    between atoms: C_18  and  C_19 
REMARK    8  A    between atoms: N_28  and  C_29 
ROOT
HETATM    1  N   UNL     1     -43.317  60.889 -52.429  1.00  0.00    -0.325 N 
HETATM    2  C   UNL     1     -43.264  59.657 -51.829  1.00  0.00     0.250 C 
HETATM    3  O   UNL     1     -43.270  59.476 -50.621  1.00  0.00    -0.270 OA
HETATM    4  C   UNL     1     -43.170  58.592 -52.941  1.00  0.00     0.118 C 
HETATM    5  C   UNL     1     -44.222  57.507 -52.667  1.00  0.00     0.061 C 
HETATM    6  C   UNL     1     -43.795  56.541 -51.565  1.00  0.00     0.129 C 
HETATM    7  N   UNL     1     -42.425  56.077 -51.766  1.00  0.00    -0.352 N 
HETATM    8  C   UNL     1     -42.187  54.716 -51.896  1.00  0.00     0.220 C 
HETATM    9  O   UNL     1     -43.106  53.896 -51.960  1.00  0.00    -0.273 OA
HETATM   10  C   UNL     1     -41.421  57.135 -51.802  1.00  0.00     0.129 C 
HETATM   11  C   UNL     1     -41.709  58.101 -52.949  1.00  0.00     0.061 C 
HETATM   12  N   UNL     1     -43.485  59.402 -54.155  1.00  0.00    -0.346 N 
HETATM   13  C   UNL     1     -43.544  60.826 -53.839  1.00  0.00     0.254 C 
ENDROOT
BRANCH  12  14
HETATM   14  C   UNL     1     -43.611  58.974 -55.464  1.00  0.00     0.032 A 
HETATM   15  C   UNL     1     -44.849  58.543 -55.984  1.00  0.00     0.029 A 
HETATM   16  C   UNL     1     -45.003  58.096 -57.304  1.00  0.00     0.002 A 
HETATM   17  C   UNL     1     -43.914  58.066 -58.160  1.00  0.00     0.000 A 
HETATM   18  C   UNL     1     -42.678  58.482 -57.690  1.00  0.00     0.002 A 
HETATM   19  C   UNL     1     -42.537  58.922 -56.365  1.00  0.00     0.029 A 
ENDBRANCH  12  14
BRANCH   1  20
HETATM   20  C   UNL     1     -43.241  62.161 -51.729  1.00  0.00     0.230 C 
BRANCH  20  21
HETATM   21  C   UNL     1     -44.378  62.442 -50.742  1.00  0.00     0.240 C 
HETATM   22  N   UNL     1     -44.161  61.919 -49.482  1.00  0.00    -0.326 N 
HETATM   23  H   UNL     1     -43.327  61.352 -49.373  1.00  0.00     0.169 HD
HETATM   24  O   UNL     1     -45.307  63.172 -51.077  1.00  0.00    -0.271 OA
BRANCH  22  25
HETATM   25  C   UNL     1     -44.921  62.140 -48.314  1.00  0.00     0.037 A 
HETATM   26  C   UNL     1     -45.791  61.202 -47.756  1.00  0.00     0.066 A 
HETATM   27  C   UNL     1     -46.562  61.514 -46.629  1.00  0.00     0.070 A 
HETATM   28  C   UNL     1     -46.425  62.763 -46.024  1.00  0.00     0.037 A 
HETATM   29  C   UNL     1     -45.546  63.702 -46.563  1.00  0.00     0.005 A 
HETATM   30  C   UNL     1     -44.806  63.397 -47.707  1.00  0.00     0.029 A 
BRANCH  27  31
HETATM   31  O   UNL     1     -47.401  60.517 -46.209  1.00  0.00    -0.356 OA
HETATM   32  C   UNL     1     -46.791  59.282 -45.857  1.00  0.00     0.210 C 
ENDBRANCH  27  31
ENDBRANCH  22  25
ENDBRANCH  20  21
ENDBRANCH   1  20
BRANCH   8  33
HETATM   33  C   UNL     1     -40.756  54.220 -51.899  1.00  0.00     0.107 C 
BRANCH  33  34
HETATM   34  C   UNL     1     -40.416  53.628 -53.264  1.00  0.00     0.047 C 
BRANCH  34  35
HETATM   35  C   UNL     1     -40.116  52.152 -53.185  1.00  0.00    -0.058 A 
HETATM   36  C   UNL     1     -40.231  51.336 -54.317  1.00  0.00     0.007 A 
HETATM   37  C   UNL     1     -39.950  49.971 -54.236  1.00  0.00     0.001 A 
HETATM   38  C   UNL     1     -39.560  49.409 -53.022  1.00  0.00     0.000 A 
HETATM   39  C   UNL     1     -39.451  50.211 -51.887  1.00  0.00     0.001 A 
HETATM   40  C   UNL     1     -39.731  51.575 -51.967  1.00  0.00     0.007 A 
ENDBRANCH  34  35
ENDBRANCH  33  34
ENDBRANCH   8  33
TORSDOF 8
ENDMDL
MODEL 2
REMARK VINA RESULT:      -9.3      4.328      7.247
REMARK  8 active torsions:
REMARK  status: ('A' for Active; 'I' for Inactive)
REMARK    1  A    between atoms: O_2  and  C_3 
REMARK    2  A    between atoms: C_5  and  N_6 
REMARK       I    between atoms: N_6  and  C_7 
REMARK    3  A    between atoms: C_7  and  C_8 
REMARK    4  A    between atoms: C_8  and  N_9 
REMARK       I    between atoms: N_15  and  C_16 
REMARK    5  A    between atoms: C_16  and  C_17 
REMARK    6  A    between atoms: C_17  and  C_18 
REMARK    7  A    between atoms: C_18  and  C_19 
REMARK    8  A    between atoms: N_28  and  C_29 
ROOT
HETATM    1  N   UNL     1     -43.456  60.363 -55.792  1.00  0.00    -0.325 N 
HETATM    2  C   UNL     1     -43.362  59.500 -54.730  1.00  0.00     0.250 C 
HETATM    3  O   UNL     1     -43.270  59.849 -53.563  1.00  0.00    -0.270 OA
HETATM    4  C   UNL     1     -43.365  58.061 -55.285  1.00  0.00     0.118 C 
HETATM    5  C   UNL     1     -44.398  57.239 -54.501  1.00  0.00     0.061 C 
HETATM    6  C   UNL     1     -43.887  56.814 -53.126  1.00  0.00     0.129 C 
HETATM    7  N   UNL     1     -42.541  56.255 -53.208  1.00  0.00    -0.352 N 
HETATM    8  C   UNL     1     -42.323  54.959 -52.762  1.00  0.00     0.220 C 
HETATM    9  O   UNL     1     -43.249  54.226 -52.405  1.00  0.00    -0.273 OA
HETATM   10  C   UNL     1     -41.538  57.156 -53.763  1.00  0.00     0.129 C 
HETATM   11  C   UNL     1     -41.913  57.555 -55.188  1.00  0.00     0.061 C 
HETATM   12  N   UNL     1     -43.774  58.292 -56.703  1.00  0.00    -0.346 N 
HETATM   13  C   UNL     1     -43.798  59.716 -57.020  1.00  0.00     0.254 C 
ENDROOT
BRANCH  12  14
HETATM   14  C   UNL     1     -44.010  57.354 -57.692  1.00  0.00     0.032 A 
HETATM   15  C   UNL     1     -45.071  57.499 -58.608  1.00  0.00     0.029 A 
HETATM   16  C   UNL     1     -45.338  56.559 -59.615  1.00  0.00     0.002 A 
HETATM   17  C   UNL     1     -44.541  55.433 -59.744  1.00  0.00     0.000 A 
HETATM   18  C   UNL     1     -43.486  55.251 -58.863  1.00  0.00     0.002 A 
HETATM   19  C   UNL     1     -43.233  56.197 -57.857  1.00  0.00     0.029 A 
ENDBRANCH  12  14
BRANCH   1  20
HETATM   20  C   UNL     1     -43.316  61.807 -55.708  1.00  0.00     0.230 C 
BRANCH  20  21
HETATM   21  C   UNL     1     -42.884  62.507 -56.999  1.00  0.00     0.240 C 
HETATM   22  N   UNL     1     -41.630  62.131 -57.442  1.00  0.00    -0.326 N 
HETATM   23  H   UNL     1     -41.112  61.506 -56.833  1.00  0.00     0.169 HD
HETATM   24  O   UNL     1     -43.679  63.230 -57.594  1.00  0.00    -0.271 OA
BRANCH  22  25
HETATM   25  C   UNL     1     -41.016  62.454 -58.670  1.00  0.00     0.037 A 
HETATM   26  C   UNL     1     -41.500  62.055 -59.917  1.00  0.00     0.066 A 
HETATM   27  C   UNL     1     -40.802  62.359 -61.093  1.00  0.00     0.070 A 
HETATM   28  C   UNL     1     -39.632  63.115 -61.024  1.00  0.00     0.037 A 
HETATM   29  C   UNL     1     -39.149  63.534 -59.785  1.00  0.00     0.005 A 
HETATM   30  C   UNL     1     -39.831  63.197 -58.614  1.00  0.00     0.029 A 
BRANCH  27  31
HETATM   31  O   UNL     1     -41.367  61.874 -62.242  1.00  0.00    -0.356 OA
HETATM   32  C   UNL     1     -42.193  60.725 -62.105  1.00  0.00     0.210 C 
ENDBRANCH  27  31
ENDBRANCH  22  25
ENDBRANCH  20  21
ENDBRANCH   1  20
BRANCH   8  33
HETATM   33  C   UNL     1     -40.900  54.451 -52.657  1.00  0.00     0.107 C 
BRANCH  33  34
HETATM   34  C   UNL     1     -40.573  53.571 -53.860  1.00  0.00     0.047 C 
BRANCH  34  35
HETATM   35  C   UNL     1     -40.214  52.163 -53.454  1.00  0.00    -0.058 A 
HETATM   36  C   UNL     1     -40.268  51.116 -54.382  1.00  0.00     0.007 A 
HETATM   37  C   UNL     1     -39.933  49.816 -54.000  1.00  0.00     0.001 A 
HETATM   38  C   UNL     1     -39.549  49.550 -52.686  1.00  0.00     0.000 A 
HETATM   39  C   UNL     1     -39.501  50.585 -51.753  1.00  0.00     0.001 A 
HETATM   40  C   UNL     1     -39.835  51.884 -52.135  1.00  0.00     0.007 A 
ENDBRANCH  34  35
ENDBRANCH  33  34
ENDBRANCH   8  33
TORSDOF 8
ENDMDL
MODEL 3
REMARK VINA RESULT:      -9.2      2.555      7.382
REMARK  8 active torsions:
REMARK  status: ('A' for Active; 'I' for Inactive)
REMARK    1  A    between atoms: O_2  and  C_3 
REMARK    2  A    between atoms: C_5  and  N_6 
REMARK       I    between atoms: N_6  and  C_7 
REMARK    3  A    between atoms: C_7  and  C_8 
REMARK    4  A    between atoms: C_8  and  N_9 
REMARK       I    between atoms: N_15  and  C_16 
REMARK    5  A    between atoms: C_16  and  C_17 
REMARK    6  A    between atoms: C_17  and  C_18 
REMARK    7  A    between atoms: C_18  and  C_19 
REMARK    8  A    between atoms: N_28  and  C_29 
ROOT
HETATM    1  N   UNL     1     -42.862  61.200 -54.150  1.00  0.00    -0.325 N 
HETATM    2  C   UNL     1     -42.117  60.138 -53.705  1.00  0.00     0.250 C 
HETATM    3  O   UNL     1     -41.280  59.552 -54.375  1.00  0.00    -0.270 OA
HETATM    4  C   UNL     1     -42.551  59.826 -52.259  1.00  0.00     0.118 C 
HETATM    5  C   UNL     1     -41.292  59.713 -51.386  1.00  0.00     0.061 C 
HETATM    6  C   UNL     1     -40.573  58.379 -51.564  1.00  0.00     0.129 C 
HETATM    7  N   UNL     1     -41.506  57.258 -51.501  1.00  0.00    -0.352 N 
HETATM    8  C   UNL     1     -41.316  56.277 -50.538  1.00  0.00     0.220 C 
HETATM    9  O   UNL     1     -40.452  56.379 -49.663  1.00  0.00    -0.273 OA
HETATM   10  C   UNL     1     -42.569  57.292 -52.499  1.00  0.00     0.129 C 
HETATM   11  C   UNL     1     -43.416  58.551 -52.330  1.00  0.00     0.061 C 
HETATM   12  N   UNL     1     -43.370  61.030 -51.930  1.00  0.00    -0.346 N 
HETATM   13  C   UNL     1     -43.587  61.860 -53.110  1.00  0.00     0.254 C 
ENDROOT
BRANCH  12  14
HETATM   14  C   UNL     1     -43.983  61.350 -50.731  1.00  0.00     0.032 A 
HETATM   15  C   UNL     1     -43.668  62.534 -50.034  1.00  0.00     0.029 A 
HETATM   16  C   UNL     1     -44.268  62.878 -48.814  1.00  0.00     0.002 A 
HETATM   17  C   UNL     1     -45.216  62.044 -48.245  1.00  0.00     0.000 A 
HETATM   18  C   UNL     1     -45.555  60.868 -48.897  1.00  0.00     0.002 A 
HETATM   19  C   UNL     1     -44.944  60.533 -50.115  1.00  0.00     0.029 A 
ENDBRANCH  12  14
BRANCH   1  20
HETATM   20  C   UNL     1     -42.876  61.694 -55.517  1.00  0.00     0.230 C 
BRANCH  20  21
HETATM   21  C   UNL     1     -43.344  60.693 -56.578  1.00  0.00     0.240 C 
HETATM   22  N   UNL     1     -42.319  59.955 -57.135  1.00  0.00    -0.326 N 
HETATM   23  H   UNL     1     -41.380  60.205 -56.844  1.00  0.00     0.169 HD
HETATM   24  O   UNL     1     -44.546  60.534 -56.773  1.00  0.00    -0.271 OA
BRANCH  22  25
HETATM   25  C   UNL     1     -42.426  58.848 -58.003  1.00  0.00     0.037 A 
HETATM   26  C   UNL     1     -42.840  57.576 -57.603  1.00  0.00     0.066 A 
HETATM   27  C   UNL     1     -42.862  56.506 -58.508  1.00  0.00     0.070 A 
HETATM   28  C   UNL     1     -42.513  56.724 -59.840  1.00  0.00     0.037 A 
HETATM   29  C   UNL     1     -42.114  57.994 -60.255  1.00  0.00     0.005 A 
HETATM   30  C   UNL     1     -42.061  59.047 -59.340  1.00  0.00     0.029 A 
BRANCH  27  31
HETATM   31  O   UNL     1     -43.251  55.307 -57.975  1.00  0.00    -0.356 OA
HETATM   32  C   UNL     1     -42.915  55.081 -56.611  1.00  0.00     0.210 C 
ENDBRANCH  27  31
ENDBRANCH  22  25
ENDBRANCH  20  21
ENDBRANCH   1  20
BRANCH   8  33
HETATM   33  C   UNL     1     -42.155  55.018 -50.600  1.00  0.00     0.107 C 
BRANCH  33  34
HETATM   34  C   UNL     1     -41.265  53.791 -50.418  1.00  0.00     0.047 C 
BRANCH  34  35
HETATM   35  C   UNL     1     -40.886  53.163 -51.736  1.00  0.00    -0.058 A 
HETATM   36  C   UNL     1     -39.887  52.184 -51.801  1.00  0.00     0.007 A 
HETATM   37  C   UNL     1     -39.543  51.605 -53.024  1.00  0.00     0.001 A 
HETATM   38  C   UNL     1     -40.189  52.005 -54.193  1.00  0.00     0.000 A 
HETATM   39  C   UNL     1     -41.179  52.986 -54.140  1.00  0.00     0.001 A 
HETATM   40  C   UNL     1     -41.523  53.564 -52.918  1.00  0.00     0.007 A 
ENDBRANCH  34  35
ENDBRANCH  33  34
ENDBRANCH   8  33
TORSDOF 8
ENDMDL
MODEL 4
REMARK VINA RESULT:      -8.9      2.754      7.776
REMARK  8 active torsions:
REMARK  status: ('A' for Active; 'I' for Inactive)
REMARK    1  A    between atoms: O_2  and  C_3 
REMARK    2  A    between atoms: C_5  and  N_6 
REMARK       I    between atoms: N_6  and  C_7 
REMARK    3  A    between atoms: C_7  and  C_8 
REMARK    4  A    between atoms: C_8  and  N_9 
REMARK       I    between atoms: N_15  and  C_16 
REMARK    5  A    between atoms: C_16  and  C_17 
REMARK    6  A    between atoms: C_17  and  C_18 
REMARK    7  A    between atoms: C_18  and  C_19 
REMARK    8  A    between atoms: N_28  and  C_29 
ROOT
HETATM    1  N   UNL     1     -44.345  59.911 -54.546  1.00  0.00    -0.325 N 
HETATM    2  C   UNL     1     -43.366  59.022 -54.181  1.00  0.00     0.250 C 
HETATM    3  O   UNL     1     -42.672  58.397 -54.968  1.00  0.00    -0.270 OA
HETATM    4  C   UNL     1     -43.340  58.952 -52.641  1.00  0.00     0.118 C 
HETATM    5  C   UNL     1     -41.887  59.118 -52.170  1.00  0.00     0.061 C 
HETATM    6  C   UNL     1     -41.066  57.844 -52.343  1.00  0.00     0.129 C 
HETATM    7  N   UNL     1     -41.780  56.676 -51.834  1.00  0.00    -0.352 N 
HETATM    8  C   UNL     1     -41.199  55.915 -50.830  1.00  0.00     0.220 C 
HETATM    9  O   UNL     1     -40.152  56.257 -50.274  1.00  0.00    -0.273 OA
HETATM   10  C   UNL     1     -43.070  56.427 -52.469  1.00  0.00     0.129 C 
HETATM   11  C   UNL     1     -44.005  57.615 -52.255  1.00  0.00     0.061 C 
HETATM   12  N   UNL     1     -44.198  60.119 -52.276  1.00  0.00    -0.346 N 
HETATM   13  C   UNL     1     -44.842  60.689 -53.455  1.00  0.00     0.254 C 
ENDROOT
BRANCH  12  14
HETATM   14  C   UNL     1     -44.498  60.603 -51.016  1.00  0.00     0.032 A 
HETATM   15  C   UNL     1     -43.884  61.766 -50.507  1.00  0.00     0.029 A 
HETATM   16  C   UNL     1     -44.163  62.275 -49.230  1.00  0.00     0.002 A 
HETATM   17  C   UNL     1     -45.077  61.632 -48.410  1.00  0.00     0.000 A 
HETATM   18  C   UNL     1     -45.704  60.484 -48.871  1.00  0.00     0.002 A 
HETATM   19  C   UNL     1     -45.412  59.984 -50.149  1.00  0.00     0.029 A 
ENDBRANCH  12  14
BRANCH   1  20
HETATM   20  C   UNL     1     -44.802  60.135 -55.908  1.00  0.00     0.230 C 
BRANCH  20  21
HETATM   21  C   UNL     1     -45.218  58.880 -56.681  1.00  0.00     0.240 C 
HETATM   22  N   UNL     1     -44.360  58.554 -57.713  1.00  0.00    -0.326 N 
HETATM   23  H   UNL     1     -43.608  59.210 -57.892  1.00  0.00     0.169 HD
HETATM   24  O   UNL     1     -46.170  58.212 -56.287  1.00  0.00    -0.271 OA
BRANCH  22  25
HETATM   25  C   UNL     1     -44.362  57.382 -58.498  1.00  0.00     0.037 A 
HETATM   26  C   UNL     1     -45.321  57.092 -59.471  1.00  0.00     0.066 A 
HETATM   27  C   UNL     1     -45.296  55.877 -60.169  1.00  0.00     0.070 A 
HETATM   28  C   UNL     1     -44.271  54.963 -59.926  1.00  0.00     0.037 A 
HETATM   29  C   UNL     1     -43.298  55.250 -58.969  1.00  0.00     0.005 A 
HETATM   30  C   UNL     1     -43.349  56.447 -58.252  1.00  0.00     0.029 A 
BRANCH  27  31
HETATM   31  O   UNL     1     -46.316  55.706 -61.065  1.00  0.00    -0.356 OA
HETATM   32  C   UNL     1     -47.426  56.586 -60.938  1.00  0.00     0.210 C 
ENDBRANCH  27  31
ENDBRANCH  22  25
ENDBRANCH  20  21
ENDBRANCH   1  20
BRANCH   8  33
HETATM   33  C   UNL     1     -41.840  54.598 -50.446  1.00  0.00     0.107 C 
BRANCH  33  34
HETATM   34  C   UNL     1     -40.784  53.495 -50.424  1.00  0.00     0.047 C 
BRANCH  34  35
HETATM   35  C   UNL     1     -40.589  52.867 -51.781  1.00  0.00    -0.058 A 
HETATM   36  C   UNL     1     -41.354  53.282 -52.878  1.00  0.00     0.007 A 
HETATM   37  C   UNL     1     -41.167  52.697 -54.131  1.00  0.00     0.001 A 
HETATM   38  C   UNL     1     -40.220  51.688 -54.298  1.00  0.00     0.000 A 
HETATM   39  C   UNL     1     -39.460  51.262 -53.210  1.00  0.00     0.001 A 
HETATM   40  C   UNL     1     -39.646  51.846 -51.957  1.00  0.00     0.007 A 
ENDBRANCH  34  35
ENDBRANCH  33  34
ENDBRANCH   8  33
TORSDOF 8
ENDMDL
MODEL 5
REMARK VINA RESULT:      -8.8      2.635      7.664
REMARK  8 active torsions:
REMARK  status: ('A' for Active; 'I' for Inactive)
REMARK    1  A    between atoms: O_2  and  C_3 
REMARK    2  A    between atoms: C_5  and  N_6 
REMARK       I    between atoms: N_6  and  C_7 
REMARK    3  A    between atoms: C_7  and  C_8 
REMARK    4  A    between atoms: C_8  and  N_9 
REMARK       I    between atoms: N_15  and  C_16 
REMARK    5  A    between atoms: C_16  and  C_17 
REMARK    6  A    between atoms: C_17  and  C_18 
REMARK    7  A    between atoms: C_18  and  C_19 
REMARK    8  A    between atoms: N_28  and  C_29 
ROOT
HETATM    1  N   UNL     1     -42.888  61.636 -53.252  1.00  0.00    -0.325 N 
HETATM    2  C   UNL     1     -42.245  60.475 -52.904  1.00  0.00     0.250 C 
HETATM    3  O   UNL     1     -41.400  59.921 -53.591  1.00  0.00    -0.270 OA
HETATM    4  C   UNL     1     -42.801  60.013 -51.542  1.00  0.00     0.118 C 
HETATM    5  C   UNL     1     -41.619  59.701 -50.613  1.00  0.00     0.061 C 
HETATM    6  C   UNL     1     -40.973  58.352 -50.920  1.00  0.00     0.129 C 
HETATM    7  N   UNL     1     -41.977  57.302 -51.064  1.00  0.00    -0.352 N 
HETATM    8  C   UNL     1     -41.919  56.195 -50.229  1.00  0.00     0.220 C 
HETATM    9  O   UNL     1     -41.117  56.123 -49.295  1.00  0.00    -0.273 OA
HETATM   10  C   UNL     1     -42.961  57.539 -52.115  1.00  0.00     0.129 C 
HETATM   11  C   UNL     1     -43.737  58.824 -51.835  1.00  0.00     0.061 C 
HETATM   12  N   UNL     1     -43.566  61.221 -51.110  1.00  0.00    -0.346 N 
HETATM   13  C   UNL     1     -43.644  62.208 -52.182  1.00  0.00     0.254 C 
ENDROOT
BRANCH  12  14
HETATM   14  C   UNL     1     -44.242  61.429 -49.921  1.00  0.00     0.032 A 
HETATM   15  C   UNL     1     -44.069  62.610 -49.170  1.00  0.00     0.029 A 
HETATM   16  C   UNL     1     -44.736  62.843 -47.958  1.00  0.00     0.002 A 
HETATM   17  C   UNL     1     -45.610  61.895 -47.452  1.00  0.00     0.000 A 
HETATM   18  C   UNL     1     -45.810  60.719 -48.159  1.00  0.00     0.002 A 
HETATM   19  C   UNL     1     -45.133  60.497 -49.368  1.00  0.00     0.029 A 
ENDBRANCH  12  14
BRANCH   1  20
HETATM   20  C   UNL     1     -42.772  62.299 -54.540  1.00  0.00     0.230 C 
BRANCH  20  21
HETATM   21  C   UNL     1     -43.146  61.450 -55.758  1.00  0.00     0.240 C 
HETATM   22  N   UNL     1     -42.095  60.710 -56.262  1.00  0.00    -0.326 N 
HETATM   23  H   UNL     1     -41.191  60.866 -55.829  1.00  0.00     0.169 HD
HETATM   24  O   UNL     1     -44.318  61.391 -56.120  1.00  0.00    -0.271 OA
BRANCH  22  25
HETATM   25  C   UNL     1     -42.143  59.711 -57.257  1.00  0.00     0.037 A 
HETATM   26  C   UNL     1     -41.926  59.947 -58.616  1.00  0.00     0.066 A 
HETATM   27  C   UNL     1     -42.053  58.916 -59.557  1.00  0.00     0.070 A 
HETATM   28  C   UNL     1     -42.352  57.624 -59.127  1.00  0.00     0.037 A 
HETATM   29  C   UNL     1     -42.553  57.373 -57.770  1.00  0.00     0.005 A 
HETATM   30  C   UNL     1     -42.460  58.412 -56.842  1.00  0.00     0.029 A 
BRANCH  27  31
HETATM   31  O   UNL     1     -41.851  59.294 -60.857  1.00  0.00    -0.356 OA
HETATM   32  C   UNL     1     -41.904  60.689 -61.127  1.00  0.00     0.210 C 
ENDBRANCH  27  31
ENDBRANCH  22  25
ENDBRANCH  20  21
ENDBRANCH   1  20
BRANCH   8  33
HETATM   33  C   UNL     1     -42.829  55.018 -50.510  1.00  0.00     0.107 C 
BRANCH  33  34
HETATM   34  C   UNL     1     -42.024  53.875 -51.124  1.00  0.00     0.047 C 
BRANCH  34  35
HETATM   35  C   UNL     1     -41.843  54.043 -52.612  1.00  0.00    -0.058 A 
HETATM   36  C   UNL     1     -40.576  53.916 -53.197  1.00  0.00     0.007 A 
HETATM   37  C   UNL     1     -40.417  54.070 -54.574  1.00  0.00     0.001 A 
HETATM   38  C   UNL     1     -41.518  54.360 -55.378  1.00  0.00     0.000 A 
HETATM   39  C   UNL     1     -42.781  54.497 -54.804  1.00  0.00     0.001 A 
HETATM   40  C   UNL     1     -42.942  54.342 -53.427  1.00  0.00     0.007 A 
ENDBRANCH  34  35
ENDBRANCH  33  34
ENDBRANCH   8  33
TORSDOF 8
ENDMDL
MODEL 6
REMARK VINA RESULT:      -8.7      1.581      2.049
REMARK  8 active torsions:
REMARK  status: ('A' for Active; 'I' for Inactive)
REMARK    1  A    between atoms: O_2  and  C_3 
REMARK    2  A    between atoms: C_5  and  N_6 
REMARK       I    between atoms: N_6  and  C_7 
REMARK    3  A    between atoms: C_7  and  C_8 
REMARK    4  A    between atoms: C_8  and  N_9 
REMARK       I    between atoms: N_15  and  C_16 
REMARK    5  A    between atoms: C_16  and  C_17 
REMARK    6  A    between atoms: C_17  and  C_18 
REMARK    7  A    between atoms: C_18  and  C_19 
REMARK    8  A    between atoms: N_28  and  C_29 
ROOT
HETATM    1  N   UNL     1     -44.101  60.826 -54.133  1.00  0.00    -0.325 N 
HETATM    2  C   UNL     1     -43.953  59.507 -53.786  1.00  0.00     0.250 C 
HETATM    3  O   UNL     1     -44.020  59.082 -52.643  1.00  0.00    -0.270 OA
HETATM    4  C   UNL     1     -43.667  58.707 -55.073  1.00  0.00     0.118 C 
HETATM    5  C   UNL     1     -44.609  57.494 -55.112  1.00  0.00     0.061 C 
HETATM    6  C   UNL     1     -44.152  56.367 -54.189  1.00  0.00     0.129 C 
HETATM    7  N   UNL     1     -42.729  56.086 -54.356  1.00  0.00    -0.352 N 
HETATM    8  C   UNL     1     -42.333  54.810 -54.730  1.00  0.00     0.220 C 
HETATM    9  O   UNL     1     -43.149  53.937 -55.036  1.00  0.00    -0.273 OA
HETATM   10  C   UNL     1     -41.848  57.220 -54.093  1.00  0.00     0.129 C 
HETATM   11  C   UNL     1     -42.163  58.369 -55.049  1.00  0.00     0.061 C 
HETATM   12  N   UNL     1     -43.987  59.716 -56.126  1.00  0.00    -0.346 N 
HETATM   13  C   UNL     1     -44.224  61.032 -55.542  1.00  0.00     0.254 C 
ENDROOT
BRANCH  12  14
HETATM   14  C   UNL     1     -43.977  59.555 -57.500  1.00  0.00     0.032 A 
HETATM   15  C   UNL     1     -42.853  59.907 -58.276  1.00  0.00     0.029 A 
HETATM   16  C   UNL     1     -42.819  59.763 -59.671  1.00  0.00     0.002 A 
HETATM   17  C   UNL     1     -43.917  59.253 -60.344  1.00  0.00     0.000 A 
HETATM   18  C   UNL     1     -45.043  58.894 -59.620  1.00  0.00     0.002 A 
HETATM   19  C   UNL     1     -45.066  59.049 -58.225  1.00  0.00     0.029 A 
ENDBRANCH  12  14
BRANCH   1  20
HETATM   20  C   UNL     1     -44.214  61.928 -53.192  1.00  0.00     0.230 C 
BRANCH  20  21
HETATM   21  C   UNL     1     -45.049  61.645 -51.939  1.00  0.00     0.240 C 
HETATM   22  N   UNL     1     -44.303  61.578 -50.779  1.00  0.00    -0.326 N 
HETATM   23  H   UNL     1     -43.297  61.643 -50.892  1.00  0.00     0.169 HD
HETATM   24  O   UNL     1     -46.274  61.615 -52.020  1.00  0.00    -0.271 OA
BRANCH  22  25
HETATM   25  C   UNL     1     -44.776  61.503 -49.452  1.00  0.00     0.037 A 
HETATM   26  C   UNL     1     -45.412  60.384 -48.909  1.00  0.00     0.066 A 
HETATM   27  C   UNL     1     -45.914  60.404 -47.601  1.00  0.00     0.070 A 
HETATM   28  C   UNL     1     -45.734  61.539 -46.811  1.00  0.00     0.037 A 
HETATM   29  C   UNL     1     -45.085  62.655 -47.337  1.00  0.00     0.005 A 
HETATM   30  C   UNL     1     -44.618  62.641 -48.653  1.00  0.00     0.029 A 
BRANCH  27  31
HETATM   31  O   UNL     1     -46.548  59.256 -47.209  1.00  0.00    -0.356 OA
HETATM   32  C   UNL     1     -46.728  59.078 -45.810  1.00  0.00     0.210 C 
ENDBRANCH  27  31
ENDBRANCH  22  25
ENDBRANCH  20  21
ENDBRANCH   1  20
BRANCH   8  33
HETATM   33  C   UNL     1     -40.859  54.463 -54.705  1.00  0.00     0.107 C 
BRANCH  33  34
HETATM   34  C   UNL     1     -40.460  53.996 -53.308  1.00  0.00     0.047 C 
BRANCH  34  35
HETATM   35  C   UNL     1     -40.195  52.512 -53.259  1.00  0.00    -0.058 A 
HETATM   36  C   UNL     1     -40.396  51.712 -54.390  1.00  0.00     0.007 A 
HETATM   37  C   UNL     1     -40.147  50.340 -54.338  1.00  0.00     0.001 A 
HETATM   38  C   UNL     1     -39.703  49.754 -53.153  1.00  0.00     0.000 A 
HETATM   39  C   UNL     1     -39.509  50.541 -52.019  1.00  0.00     0.001 A 
HETATM   40  C   UNL     1     -39.756  51.913 -52.071  1.00  0.00     0.007 A 
ENDBRANCH  34  35
ENDBRANCH  33  34
ENDBRANCH   8  33
TORSDOF 8
ENDMDL
MODEL 7
REMARK VINA RESULT:      -8.6      3.106     10.080
REMARK  8 active torsions:
REMARK  status: ('A' for Active; 'I' for Inactive)
REMARK    1  A    between atoms: O_2  and  C_3 
REMARK    2  A    between atoms: C_5  and  N_6 
REMARK       I    between atoms: N_6  and  C_7 
REMARK    3  A    between atoms: C_7  and  C_8 
REMARK    4  A    between atoms: C_8  and  N_9 
REMARK       I    between atoms: N_15  and  C_16 
REMARK    5  A    between atoms: C_16  and  C_17 
REMARK    6  A    between atoms: C_17  and  C_18 
REMARK    7  A    between atoms: C_18  and  C_19 
REMARK    8  A    between atoms: N_28  and  C_29 
ROOT
HETATM    1  N   UNL     1     -42.417  58.684 -55.431  1.00  0.00    -0.325 N 
HETATM    2  C   UNL     1     -43.289  59.361 -54.618  1.00  0.00     0.250 C 
HETATM    3  O   UNL     1     -43.889  60.375 -54.941  1.00  0.00    -0.270 OA
HETATM    4  C   UNL     1     -43.336  58.632 -53.260  1.00  0.00     0.118 C 
HETATM    5  C   UNL     1     -44.807  58.411 -52.876  1.00  0.00     0.061 C 
HETATM    6  C   UNL     1     -45.467  59.675 -52.333  1.00  0.00     0.129 C 
HETATM    7  N   UNL     1     -44.628  60.327 -51.332  1.00  0.00    -0.352 N 
HETATM    8  C   UNL     1     -45.133  60.522 -50.054  1.00  0.00     0.220 C 
HETATM    9  O   UNL     1     -46.223  60.063 -49.706  1.00  0.00    -0.273 OA
HETATM   10  C   UNL     1     -43.305  60.721 -51.806  1.00  0.00     0.129 C 
HETATM   11  C   UNL     1     -42.524  59.496 -52.275  1.00  0.00     0.061 C 
HETATM   12  N   UNL     1     -42.631  57.356 -53.585  1.00  0.00    -0.346 N 
HETATM   13  C   UNL     1     -42.036  57.405 -54.917  1.00  0.00     0.254 C 
ENDROOT
BRANCH  12  14
HETATM   14  C   UNL     1     -42.414  56.262 -52.766  1.00  0.00     0.032 A 
HETATM   15  C   UNL     1     -41.383  56.252 -51.805  1.00  0.00     0.029 A 
HETATM   16  C   UNL     1     -41.136  55.154 -50.968  1.00  0.00     0.002 A 
HETATM   17  C   UNL     1     -41.923  54.017 -51.062  1.00  0.00     0.000 A 
HETATM   18  C   UNL     1     -42.950  53.985 -51.994  1.00  0.00     0.002 A 
HETATM   19  C   UNL     1     -43.182  55.089 -52.828  1.00  0.00     0.029 A 
ENDBRANCH  12  14
BRANCH   1  20
HETATM   20  C   UNL     1     -41.965  59.143 -56.735  1.00  0.00     0.230 C 
BRANCH  20  21
HETATM   21  C   UNL     1     -42.387  58.276 -57.924  1.00  0.00     0.240 C 
HETATM   22  N   UNL     1     -43.594  57.629 -57.739  1.00  0.00    -0.326 N 
HETATM   23  H   UNL     1     -44.020  57.735 -56.824  1.00  0.00     0.169 HD
HETATM   24  O   UNL     1     -41.725  58.299 -58.958  1.00  0.00    -0.271 OA
BRANCH  22  25
HETATM   25  C   UNL     1     -44.337  56.902 -58.692  1.00  0.00     0.037 A 
HETATM   26  C   UNL     1     -45.521  57.358 -59.276  1.00  0.00     0.066 A 
HETATM   27  C   UNL     1     -46.241  56.553 -60.168  1.00  0.00     0.070 A 
HETATM   28  C   UNL     1     -45.745  55.298 -60.519  1.00  0.00     0.037 A 
HETATM   29  C   UNL     1     -44.555  54.840 -59.955  1.00  0.00     0.005 A 
HETATM   30  C   UNL     1     -43.861  55.632 -59.039  1.00  0.00     0.029 A 
BRANCH  27  31
HETATM   31  O   UNL     1     -47.403  57.106 -60.636  1.00  0.00    -0.356 OA
HETATM   32  C   UNL     1     -47.921  56.565 -61.845  1.00  0.00     0.210 C 
ENDBRANCH  27  31
ENDBRANCH  22  25
ENDBRANCH  20  21
ENDBRANCH   1  20
BRANCH   8  33
HETATM   33  C   UNL     1     -44.347  61.374 -49.079  1.00  0.00     0.107 C 
BRANCH  33  34
HETATM   34  C   UNL     1     -45.299  62.261 -48.281  1.00  0.00     0.047 C 
BRANCH  34  35
HETATM   35  C   UNL     1     -45.014  62.213 -46.801  1.00  0.00    -0.058 A 
HETATM   36  C   UNL     1     -44.649  61.012 -46.180  1.00  0.00     0.007 A 
HETATM   37  C   UNL     1     -44.384  60.976 -44.811  1.00  0.00     0.001 A 
HETATM   38  C   UNL     1     -44.489  62.138 -44.047  1.00  0.00     0.000 A 
HETATM   39  C   UNL     1     -44.859  63.337 -44.654  1.00  0.00     0.001 A 
HETATM   40  C   UNL     1     -45.123  63.374 -46.023  1.00  0.00     0.007 A 
ENDBRANCH  34  35
ENDBRANCH  33  34
ENDBRANCH   8  33
TORSDOF 8
ENDMDL
MODEL 8
REMARK VINA RESULT:      -8.5      2.992     10.291
REMARK  8 active torsions:
REMARK  status: ('A' for Active; 'I' for Inactive)
REMARK    1  A    between atoms: O_2  and  C_3 
REMARK    2  A    between atoms: C_5  and  N_6 
REMARK       I    between atoms: N_6  and  C_7 
REMARK    3  A    between atoms: C_7  and  C_8 
REMARK    4  A    between atoms: C_8  and  N_9 
REMARK       I    between atoms: N_15  and  C_16 
REMARK    5  A    between atoms: C_16  and  C_17 
REMARK    6  A    between atoms: C_17  and  C_18 
REMARK    7  A    between atoms: C_18  and  C_19 
REMARK    8  A    between atoms: N_28  and  C_29 
ROOT
HETATM    1  N   UNL     1     -43.127  59.334 -53.751  1.00  0.00    -0.325 N 
HETATM    2  C   UNL     1     -43.983  59.871 -52.823  1.00  0.00     0.250 C 
HETATM    3  O   UNL     1     -44.746  60.799 -53.043  1.00  0.00    -0.270 OA
HETATM    4  C   UNL     1     -43.775  59.119 -51.493  1.00  0.00     0.118 C 
HETATM    5  C   UNL     1     -45.148  58.693 -50.954  1.00  0.00     0.061 C 
HETATM    6  C   UNL     1     -45.904  59.846 -50.300  1.00  0.00     0.129 C 
HETATM    7  N   UNL     1     -45.049  60.588 -49.378  1.00  0.00    -0.352 N 
HETATM    8  C   UNL     1     -45.425  60.691 -48.046  1.00  0.00     0.220 C 
HETATM    9  O   UNL     1     -46.396  60.082 -47.592  1.00  0.00    -0.273 OA
HETATM   10  C   UNL     1     -43.855  61.167 -49.984  1.00  0.00     0.129 C 
HETATM   11  C   UNL     1     -42.976  60.068 -50.578  1.00  0.00     0.061 C 
HETATM   12  N   UNL     1     -42.947  57.958 -51.937  1.00  0.00    -0.346 N 
HETATM   13  C   UNL     1     -42.523  58.110 -53.324  1.00  0.00     0.254 C 
ENDROOT
BRANCH  12  14
HETATM   14  C   UNL     1     -42.494  56.889 -51.183  1.00  0.00     0.032 A 
HETATM   15  C   UNL     1     -41.213  56.892 -50.595  1.00  0.00     0.029 A 
HETATM   16  C   UNL     1     -40.725  55.819 -49.834  1.00  0.00     0.002 A 
HETATM   17  C   UNL     1     -41.511  54.697 -49.631  1.00  0.00     0.000 A 
HETATM   18  C   UNL     1     -42.779  54.652 -50.192  1.00  0.00     0.002 A 
HETATM   19  C   UNL     1     -43.252  55.730 -50.955  1.00  0.00     0.029 A 
ENDBRANCH  12  14
BRANCH   1  20
HETATM   20  C   UNL     1     -42.894  59.872 -55.081  1.00  0.00     0.230 C 
BRANCH  20  21
HETATM   21  C   UNL     1     -43.768  59.287 -56.194  1.00  0.00     0.240 C 
HETATM   22  N   UNL     1     -43.105  58.384 -57.003  1.00  0.00    -0.326 N 
HETATM   23  H   UNL     1     -42.114  58.269 -56.823  1.00  0.00     0.169 HD
HETATM   24  O   UNL     1     -44.967  59.551 -56.228  1.00  0.00    -0.271 OA
BRANCH  22  25
HETATM   25  C   UNL     1     -43.658  57.551 -57.998  1.00  0.00     0.037 A 
HETATM   26  C   UNL     1     -44.779  57.880 -58.762  1.00  0.00     0.066 A 
HETATM   27  C   UNL     1     -45.311  56.974 -59.690  1.00  0.00     0.070 A 
HETATM   28  C   UNL     1     -44.684  55.745 -59.890  1.00  0.00     0.037 A 
HETATM   29  C   UNL     1     -43.553  55.413 -59.144  1.00  0.00     0.005 A 
HETATM   30  C   UNL     1     -43.049  56.306 -58.197  1.00  0.00     0.029 A 
BRANCH  27  31
HETATM   31  O   UNL     1     -46.433  57.409 -60.342  1.00  0.00    -0.356 OA
HETATM   32  C   UNL     1     -47.243  56.408 -60.946  1.00  0.00     0.210 C 
ENDBRANCH  27  31
ENDBRANCH  22  25
ENDBRANCH  20  21
ENDBRANCH   1  20
BRANCH   8  33
HETATM   33  C   UNL     1     -44.652  61.625 -47.137  1.00  0.00     0.107 C 
BRANCH  33  34
HETATM   34  C   UNL     1     -45.538  62.072 -45.978  1.00  0.00     0.047 C 
BRANCH  34  35
HETATM   35  C   UNL     1     -44.740  62.691 -44.858  1.00  0.00    -0.058 A 
HETATM   36  C   UNL     1     -44.006  61.890 -43.974  1.00  0.00     0.007 A 
HETATM   37  C   UNL     1     -43.268  62.470 -42.942  1.00  0.00     0.001 A 
HETATM   38  C   UNL     1     -43.263  63.855 -42.778  1.00  0.00     0.000 A 
HETATM   39  C   UNL     1     -43.999  64.660 -43.647  1.00  0.00     0.001 A 
HETATM   40  C   UNL     1     -44.735  64.081 -44.680  1.00  0.00     0.007 A 
ENDBRANCH  34  35
ENDBRANCH  33  34
ENDBRANCH   8  33
TORSDOF 8
ENDMDL
MODEL 9
REMARK VINA RESULT:      -8.5      2.348      3.037
REMARK  8 active torsions:
REMARK  status: ('A' for Active; 'I' for Inactive)
REMARK    1  A    between atoms: O_2  and  C_3 
REMARK    2  A    between atoms: C_5  and  N_6 
REMARK       I    between atoms: N_6  and  C_7 
REMARK    3  A    between atoms: C_7  and  C_8 
REMARK    4  A    between atoms: C_8  and  N_9 
REMARK       I    between atoms: N_15  and  C_16 
REMARK    5  A    between atoms: C_16  and  C_17 
REMARK    6  A    between atoms: C_17  and  C_18 
REMARK    7  A    between atoms: C_18  and  C_19 
REMARK    8  A    between atoms: N_28  and  C_29 
ROOT
HETATM    1  N   UNL     1     -43.460  60.062 -51.633  1.00  0.00    -0.325 N 
HETATM    2  C   UNL     1     -43.498  58.717 -51.900  1.00  0.00     0.250 C 
HETATM    3  O   UNL     1     -43.816  57.861 -51.088  1.00  0.00    -0.270 OA
HETATM    4  C   UNL     1     -43.050  58.509 -53.361  1.00  0.00     0.118 C 
HETATM    5  C   UNL     1     -44.073  57.602 -54.060  1.00  0.00     0.061 C 
HETATM    6  C   UNL     1     -43.899  56.131 -53.692  1.00  0.00     0.129 C 
HETATM    7  N   UNL     1     -42.501  55.720 -53.784  1.00  0.00    -0.352 N 
HETATM    8  C   UNL     1     -42.159  54.681 -54.637  1.00  0.00     0.220 C 
HETATM    9  O   UNL     1     -42.978  54.169 -55.404  1.00  0.00    -0.273 OA
HETATM   10  C   UNL     1     -41.587  56.471 -52.930  1.00  0.00     0.129 C 
HETATM   11  C   UNL     1     -41.613  57.953 -53.299  1.00  0.00     0.061 C 
HETATM   12  N   UNL     1     -43.076  59.909 -53.880  1.00  0.00    -0.346 N 
HETATM   13  C   UNL     1     -43.298  60.868 -52.803  1.00  0.00     0.254 C 
ENDROOT
BRANCH  12  14
HETATM   14  C   UNL     1     -42.823  60.352 -55.166  1.00  0.00     0.032 A 
HETATM   15  C   UNL     1     -42.109  59.564 -56.091  1.00  0.00     0.029 A 
HETATM   16  C   UNL     1     -41.832  59.993 -57.398  1.00  0.00     0.002 A 
HETATM   17  C   UNL     1     -42.266  61.235 -57.829  1.00  0.00     0.000 A 
HETATM   18  C   UNL     1     -42.973  62.043 -56.951  1.00  0.00     0.002 A 
HETATM   19  C   UNL     1     -43.239  61.604 -55.645  1.00  0.00     0.029 A 
ENDBRANCH  12  14
BRANCH   1  20
HETATM   20  C   UNL     1     -43.647  60.657 -50.321  1.00  0.00     0.230 C 
BRANCH  20  21
HETATM   21  C   UNL     1     -45.099  60.937 -49.922  1.00  0.00     0.240 C 
HETATM   22  N   UNL     1     -45.443  62.274 -49.981  1.00  0.00    -0.326 N 
HETATM   23  H   UNL     1     -44.691  62.918 -50.201  1.00  0.00     0.169 HD
HETATM   24  O   UNL     1     -45.860  59.999 -49.701  1.00  0.00    -0.271 OA
BRANCH  22  25
HETATM   25  C   UNL     1     -46.728  62.840 -49.844  1.00  0.00     0.037 A 
HETATM   26  C   UNL     1     -47.544  63.201 -50.918  1.00  0.00     0.066 A 
HETATM   27  C   UNL     1     -48.783  63.819 -50.707  1.00  0.00     0.070 A 
HETATM   28  C   UNL     1     -49.234  64.033 -49.405  1.00  0.00     0.037 A 
HETATM   29  C   UNL     1     -48.434  63.661 -48.324  1.00  0.00     0.005 A 
HETATM   30  C   UNL     1     -47.185  63.078 -48.542  1.00  0.00     0.029 A 
BRANCH  27  31
HETATM   31  O   UNL     1     -49.463  64.154 -51.847  1.00  0.00    -0.356 OA
HETATM   32  C   UNL     1     -50.278  63.140 -52.421  1.00  0.00     0.210 C 
ENDBRANCH  27  31
ENDBRANCH  22  25
ENDBRANCH  20  21
ENDBRANCH   1  20
BRANCH   8  33
HETATM   33  C   UNL     1     -40.753  54.121 -54.582  1.00  0.00     0.107 C 
BRANCH  33  34
HETATM   34  C   UNL     1     -40.449  53.619 -53.173  1.00  0.00     0.047 C 
BRANCH  34  35
HETATM   35  C   UNL     1     -40.126  52.146 -53.152  1.00  0.00    -0.058 A 
HETATM   36  C   UNL     1     -39.776  51.507 -51.956  1.00  0.00     0.007 A 
HETATM   37  C   UNL     1     -39.481  50.143 -51.944  1.00  0.00     0.001 A 
HETATM   38  C   UNL     1     -39.526  49.407 -53.127  1.00  0.00     0.000 A 
HETATM   39  C   UNL     1     -39.864  50.036 -54.325  1.00  0.00     0.001 A 
HETATM   40  C   UNL     1     -40.160  51.399 -54.337  1.00  0.00     0.007 A 
ENDBRANCH  34  35
ENDBRANCH  33  34
ENDBRANCH   8  33
TORSDOF 8
ENDMDL
MODEL 10
REMARK VINA RESULT:      -8.5      2.555      6.616
REMARK  8 active torsions:
REMARK  status: ('A' for Active; 'I' for Inactive)
REMARK    1  A    between atoms: O_2  and  C_3 
REMARK    2  A    between atoms: C_5  and  N_6 
REMARK       I    between atoms: N_6  and  C_7 
REMARK    3  A    between atoms: C_7  and  C_8 
REMARK    4  A    between atoms: C_8  and  N_9 
REMARK       I    between atoms: N_15  and  C_16 
REMARK    5  A    between atoms: C_16  and  C_17 
REMARK    6  A    between atoms: C_17  and  C_18 
REMARK    7  A    between atoms: C_18  and  C_19 
REMARK    8  A    between atoms: N_28  and  C_29 
ROOT
HETATM    1  N   UNL     1     -42.456  59.843 -51.569  1.00  0.00    -0.325 N 
HETATM    2  C   UNL     1     -42.727  60.031 -52.901  1.00  0.00     0.250 C 
HETATM    3  O   UNL     1     -42.852  61.124 -53.433  1.00  0.00    -0.270 OA
HETATM    4  C   UNL     1     -42.865  58.643 -53.558  1.00  0.00     0.118 C 
HETATM    5  C   UNL     1     -41.997  58.615 -54.825  1.00  0.00     0.061 C 
HETATM    6  C   UNL     1     -42.647  59.345 -55.997  1.00  0.00     0.129 C 
HETATM    7  N   UNL     1     -44.043  58.953 -56.161  1.00  0.00    -0.352 N 
HETATM    8  C   UNL     1     -44.450  58.400 -57.367  1.00  0.00     0.220 C 
HETATM    9  O   UNL     1     -43.648  58.125 -58.263  1.00  0.00    -0.273 OA
HETATM   10  C   UNL     1     -44.888  59.201 -54.998  1.00  0.00     0.129 C 
HETATM   11  C   UNL     1     -44.373  58.421 -53.791  1.00  0.00     0.061 C 
HETATM   12  N   UNL     1     -42.337  57.752 -52.482  1.00  0.00    -0.346 N 
HETATM   13  C   UNL     1     -42.116  58.493 -51.244  1.00  0.00     0.254 C 
ENDROOT
BRANCH  12  14
HETATM   14  C   UNL     1     -42.155  56.381 -52.514  1.00  0.00     0.032 A 
HETATM   15  C   UNL     1     -41.107  55.794 -53.253  1.00  0.00     0.029 A 
HETATM   16  C   UNL     1     -40.905  54.407 -53.310  1.00  0.00     0.002 A 
HETATM   17  C   UNL     1     -41.749  53.551 -52.621  1.00  0.00     0.000 A 
HETATM   18  C   UNL     1     -42.793  54.088 -51.883  1.00  0.00     0.002 A 
HETATM   19  C   UNL     1     -42.987  55.476 -51.838  1.00  0.00     0.029 A 
ENDBRANCH  12  14
BRANCH   1  20
HETATM   20  C   UNL     1     -42.421  60.897 -50.569  1.00  0.00     0.230 C 
BRANCH  20  21
HETATM   21  C   UNL     1     -43.775  61.285 -49.969  1.00  0.00     0.240 C 
HETATM   22  N   UNL     1     -43.881  61.018 -48.618  1.00  0.00    -0.326 N 
HETATM   23  H   UNL     1     -43.096  60.532 -48.197  1.00  0.00     0.169 HD
HETATM   24  O   UNL     1     -44.596  61.884 -50.659  1.00  0.00    -0.271 OA
BRANCH  22  25
HETATM   25  C   UNL     1     -44.916  61.404 -47.741  1.00  0.00     0.037 A 
HETATM   26  C   UNL     1     -45.855  60.523 -47.200  1.00  0.00     0.066 A 
HETATM   27  C   UNL     1     -46.896  60.989 -46.386  1.00  0.00     0.070 A 
HETATM   28  C   UNL     1     -46.969  62.344 -46.068  1.00  0.00     0.037 A 
HETATM   29  C   UNL     1     -46.026  63.231 -46.588  1.00  0.00     0.005 A 
HETATM   30  C   UNL     1     -45.012  62.766 -47.428  1.00  0.00     0.029 A 
BRANCH  27  31
HETATM   31  O   UNL     1     -47.767  60.024 -45.956  1.00  0.00    -0.356 OA
HETATM   32  C   UNL     1     -47.196  58.781 -45.568  1.00  0.00     0.210 C 
ENDBRANCH  27  31
ENDBRANCH  22  25
ENDBRANCH  20  21
ENDBRANCH   1  20
BRANCH   8  33
HETATM   33  C   UNL     1     -45.929  58.182 -57.611  1.00  0.00     0.107 C 
BRANCH  33  34
HETATM   34  C   UNL     1     -46.417  59.120 -58.711  1.00  0.00     0.047 C 
BRANCH  34  35
HETATM   35  C   UNL     1     -47.036  58.370 -59.864  1.00  0.00    -0.058 A 
HETATM   36  C   UNL     1     -46.863  56.986 -59.993  1.00  0.00     0.007 A 
HETATM   37  C   UNL     1     -47.441  56.299 -61.061  1.00  0.00     0.001 A 
HETATM   38  C   UNL     1     -48.190  56.989 -62.014  1.00  0.00     0.000 A 
HETATM   39  C   UNL     1     -48.361  58.367 -61.899  1.00  0.00     0.001 A 
HETATM   40  C   UNL     1     -47.784  59.055 -60.831  1.00  0.00     0.007 A 
ENDBRANCH  34  35
ENDBRANCH  33  34
ENDBRANCH   8  33
TORSDOF 8
ENDMDL
