MODEL 1
REMARK VINA RESULT:      -7.7      0.000      0.000
REMARK  5 active torsions:
REMARK  status: ('A' for Active; 'I' for Inactive)
REMARK    1  A    between atoms: C_2  and  C_3 
REMARK       I    between atoms: C_3  and  N_4 
REMARK    2  A    between atoms: N_4  and  C_5 
REMARK    3  A    between atoms: C_5  and  C_6 
REMARK    4  A    between atoms: C_5  and  C_17 
REMARK    5  A    between atoms: C_7  and  O_8 
ROOT
HETATM    1  C   UNL     1     -41.300  55.591 -54.643  1.00  0.00     0.154 C 
ENDROOT
BRANCH   1   2
HETATM    2  N   UNL     1     -42.273  55.233 -55.672  1.00  0.00    -0.348 N 
HETATM    3  C   UNL     1     -42.546  56.078 -56.725  1.00  0.00     0.218 C 
HETATM    4  O   UNL     1     -42.118  57.227 -56.802  1.00  0.00    -0.274 OA
HETATM    5  H   UNL     1     -42.370  54.246 -55.863  1.00  0.00     0.163 HD
BRANCH   3   6
HETATM    6  C   UNL     1     -43.359  55.449 -57.838  1.00  0.00     0.098 C 
HETATM    7  C   UNL     1     -42.942  55.905 -59.225  1.00  0.00     0.014 C 
ENDBRANCH   3   6
ENDBRANCH   1   2
BRANCH   1   8
HETATM    8  C   UNL     1     -41.803  56.700 -53.725  1.00  0.00     0.005 A 
HETATM    9  C   UNL     1     -43.096  56.641 -53.161  1.00  0.00     0.103 A 
HETATM   10  C   UNL     1     -43.639  57.651 -52.351  1.00  0.00     0.100 A 
HETATM   11  C   UNL     1     -42.821  58.767 -52.081  1.00  0.00    -0.004 A 
HETATM   12  N   UNL     1     -44.889  57.561 -51.836  1.00  0.00    -0.257 NA
HETATM   13  C   UNL     1     -41.518  58.836 -52.600  1.00  0.00     0.014 A 
HETATM   14  C   UNL     1     -43.336  59.798 -51.281  1.00  0.00     0.015 A 
HETATM   15  C   UNL     1     -41.014  57.812 -53.404  1.00  0.00     0.013 A 
HETATM   16  C   UNL     1     -44.623  59.703 -50.769  1.00  0.00     0.020 A 
HETATM   17  C   UNL     1     -45.353  58.572 -51.071  1.00  0.00     0.117 A 
BRANCH   9  18
HETATM   18  O   UNL     1     -43.864  55.519 -53.397  1.00  0.00    -0.358 OA
HETATM   19  H   UNL     1     -43.697  55.284 -54.340  1.00  0.00     0.218 HD
ENDBRANCH   9  18
ENDBRANCH   1   8
BRANCH   1  20
HETATM   20  C   UNL     1     -40.808  54.345 -53.901  1.00  0.00    -0.031 A 
HETATM   21  C   UNL     1     -40.432  53.212 -54.640  1.00  0.00     0.010 A 
HETATM   22  C   UNL     1     -40.009  52.045 -53.999  1.00  0.00     0.007 A 
HETATM   23  C   UNL     1     -39.951  51.983 -52.603  1.00  0.00    -0.062 A 
HETATM   24  C   UNL     1     -39.474  50.739 -51.915  1.00  0.00     0.048 C 
HETATM   25  C   UNL     1     -40.284  53.119 -51.860  1.00  0.00     0.007 A 
HETATM   26  C   UNL     1     -40.712  54.285 -52.500  1.00  0.00     0.010 A 
ENDBRANCH   1  20
TORSDOF 5
ENDMDL
MODEL 2
REMARK VINA RESULT:      -7.7      1.391      1.860
REMARK  5 active torsions:
REMARK  status: ('A' for Active; 'I' for Inactive)
REMARK    1  A    between atoms: C_2  and  C_3 
REMARK       I    between atoms: C_3  and  N_4 
REMARK    2  A    between atoms: N_4  and  C_5 
REMARK    3  A    between atoms: C_5  and  C_6 
REMARK    4  A    between atoms: C_5  and  C_17 
REMARK    5  A    between atoms: C_7  and  O_8 
ROOT
HETATM    1  C   UNL     1     -41.837  56.061 -54.798  1.00  0.00     0.154 C 
ENDROOT
BRANCH   1   2
HETATM    2  N   UNL     1     -42.662  55.669 -55.937  1.00  0.00    -0.348 N 
HETATM    3  C   UNL     1     -42.709  56.429 -57.085  1.00  0.00     0.218 C 
HETATM    4  O   UNL     1     -42.193  57.540 -57.184  1.00  0.00    -0.274 OA
HETATM    5  H   UNL     1     -42.798  54.676 -56.061  1.00  0.00     0.163 HD
BRANCH   3   6
HETATM    6  C   UNL     1     -43.383  55.751 -58.259  1.00  0.00     0.098 C 
HETATM    7  C   UNL     1     -42.704  56.025 -59.589  1.00  0.00     0.014 C 
ENDBRANCH   3   6
ENDBRANCH   1   2
BRANCH   1   8
HETATM    8  C   UNL     1     -42.573  56.987 -53.835  1.00  0.00     0.005 A 
HETATM    9  C   UNL     1     -41.907  58.069 -53.220  1.00  0.00     0.103 A 
HETATM   10  C   UNL     1     -42.512  58.927 -52.287  1.00  0.00     0.100 A 
HETATM   11  C   UNL     1     -43.865  58.687 -51.978  1.00  0.00    -0.004 A 
HETATM   12  N   UNL     1     -41.834  59.950 -51.711  1.00  0.00    -0.257 NA
HETATM   13  C   UNL     1     -44.563  57.640 -52.600  1.00  0.00     0.014 A 
HETATM   14  C   UNL     1     -44.497  59.521 -51.043  1.00  0.00     0.015 A 
HETATM   15  C   UNL     1     -43.927  56.807 -53.522  1.00  0.00     0.013 A 
HETATM   16  C   UNL     1     -43.792  60.559 -50.449  1.00  0.00     0.020 A 
HETATM   17  C   UNL     1     -42.473  60.732 -50.815  1.00  0.00     0.117 A 
BRANCH   9  18
HETATM   18  O   UNL     1     -40.596  58.318 -53.571  1.00  0.00    -0.358 OA
HETATM   19  H   UNL     1     -40.581  59.259 -53.865  1.00  0.00     0.218 HD
ENDBRANCH   9  18
ENDBRANCH   1   8
BRANCH   1  20
HETATM   20  C   UNL     1     -41.215  54.834 -54.126  1.00  0.00    -0.031 A 
HETATM   21  C   UNL     1     -40.733  53.787 -54.928  1.00  0.00     0.010 A 
HETATM   22  C   UNL     1     -40.188  52.636 -54.352  1.00  0.00     0.007 A 
HETATM   23  C   UNL     1     -40.111  52.505 -52.962  1.00  0.00    -0.062 A 
HETATM   24  C   UNL     1     -39.505  51.280 -52.345  1.00  0.00     0.048 C 
HETATM   25  C   UNL     1     -40.551  53.559 -52.157  1.00  0.00     0.007 A 
HETATM   26  C   UNL     1     -41.100  54.708 -52.731  1.00  0.00     0.010 A 
ENDBRANCH   1  20
TORSDOF 5
ENDMDL
MODEL 3
REMARK VINA RESULT:      -7.5      2.373      4.477
REMARK  5 active torsions:
REMARK  status: ('A' for Active; 'I' for Inactive)
REMARK    1  A    between atoms: C_2  and  C_3 
REMARK       I    between atoms: C_3  and  N_4 
REMARK    2  A    between atoms: N_4  and  C_5 
REMARK    3  A    between atoms: C_5  and  C_6 
REMARK    4  A    between atoms: C_5  and  C_17 
REMARK    5  A    between atoms: C_7  and  O_8 
ROOT
HETATM    1  C   UNL     1     -42.222  55.299 -53.057  1.00  0.00     0.154 C 
ENDROOT
BRANCH   1   2
HETATM    2  N   UNL     1     -41.453  56.201 -52.203  1.00  0.00    -0.348 N 
HETATM    3  C   UNL     1     -41.985  56.718 -51.043  1.00  0.00     0.218 C 
HETATM    4  O   UNL     1     -43.163  56.586 -50.718  1.00  0.00    -0.274 OA
HETATM    5  H   UNL     1     -40.453  56.063 -52.207  1.00  0.00     0.163 HD
BRANCH   3   6
HETATM    6  C   UNL     1     -40.977  57.403 -50.143  1.00  0.00     0.098 C 
HETATM    7  C   UNL     1     -40.417  58.687 -50.728  1.00  0.00     0.014 C 
ENDBRANCH   3   6
ENDBRANCH   1   2
BRANCH   1   8
HETATM    8  C   UNL     1     -42.676  55.965 -54.351  1.00  0.00     0.005 A 
HETATM    9  C   UNL     1     -43.901  56.664 -54.414  1.00  0.00     0.103 A 
HETATM   10  C   UNL     1     -44.401  57.255 -55.586  1.00  0.00     0.100 A 
HETATM   11  C   UNL     1     -43.608  57.151 -56.746  1.00  0.00    -0.004 A 
HETATM   12  N   UNL     1     -45.587  57.911 -55.607  1.00  0.00    -0.257 NA
HETATM   13  C   UNL     1     -42.369  56.493 -56.704  1.00  0.00     0.014 A 
HETATM   14  C   UNL     1     -44.082  57.725 -57.936  1.00  0.00     0.015 A 
HETATM   15  C   UNL     1     -41.907  55.915 -55.521  1.00  0.00     0.013 A 
HETATM   16  C   UNL     1     -45.304  58.383 -57.951  1.00  0.00     0.020 A 
HETATM   17  C   UNL     1     -46.013  58.450 -56.769  1.00  0.00     0.117 A 
BRANCH   9  18
HETATM   18  O   UNL     1     -44.641  56.797 -53.257  1.00  0.00    -0.358 OA
HETATM   19  H   UNL     1     -44.628  55.905 -52.838  1.00  0.00     0.218 HD
ENDBRANCH   9  18
ENDBRANCH   1   8
BRANCH   1  20
HETATM   20  C   UNL     1     -41.477  53.977 -53.266  1.00  0.00    -0.031 A 
HETATM   21  C   UNL     1     -41.802  53.177 -54.373  1.00  0.00     0.010 A 
HETATM   22  C   UNL     1     -41.167  51.950 -54.581  1.00  0.00     0.007 A 
HETATM   23  C   UNL     1     -40.191  51.494 -53.689  1.00  0.00    -0.062 A 
HETATM   24  C   UNL     1     -39.493  50.188 -53.925  1.00  0.00     0.048 C 
HETATM   25  C   UNL     1     -39.832  52.303 -52.606  1.00  0.00     0.007 A 
HETATM   26  C   UNL     1     -40.470  53.528 -52.394  1.00  0.00     0.010 A 
ENDBRANCH   1  20
TORSDOF 5
ENDMDL
MODEL 4
REMARK VINA RESULT:      -7.4     16.134     18.662
REMARK  5 active torsions:
REMARK  status: ('A' for Active; 'I' for Inactive)
REMARK    1  A    between atoms: C_2  and  C_3 
REMARK       I    between atoms: C_3  and  N_4 
REMARK    2  A    between atoms: N_4  and  C_5 
REMARK    3  A    between atoms: C_5  and  C_6 
REMARK    4  A    between atoms: C_5  and  C_17 
REMARK    5  A    between atoms: C_7  and  O_8 
ROOT
HETATM    1  C   UNL     1     -33.755  39.862 -54.648  1.00  0.00     0.154 C 
ENDROOT
BRANCH   1   2
HETATM    2  N   UNL     1     -33.637  40.687 -53.448  1.00  0.00    -0.348 N 
HETATM    3  C   UNL     1     -34.468  40.502 -52.366  1.00  0.00     0.218 C 
HETATM    4  O   UNL     1     -35.442  39.753 -52.378  1.00  0.00    -0.274 OA
HETATM    5  H   UNL     1     -32.710  41.028 -53.238  1.00  0.00     0.163 HD
BRANCH   3   6
HETATM    6  C   UNL     1     -34.041  41.240 -51.114  1.00  0.00     0.098 C 
HETATM    7  C   UNL     1     -33.111  40.435 -50.224  1.00  0.00     0.014 C 
ENDBRANCH   3   6
ENDBRANCH   1   2
BRANCH   1   8
HETATM    8  C   UNL     1     -34.605  40.522 -55.728  1.00  0.00     0.005 A 
HETATM    9  C   UNL     1     -35.200  39.752 -56.751  1.00  0.00     0.103 A 
HETATM   10  C   UNL     1     -35.951  40.302 -57.803  1.00  0.00     0.100 A 
HETATM   11  C   UNL     1     -36.123  41.700 -57.806  1.00  0.00    -0.004 A 
HETATM   12  N   UNL     1     -36.499  39.528 -58.772  1.00  0.00    -0.257 NA
HETATM   13  C   UNL     1     -35.572  42.487 -56.783  1.00  0.00     0.014 A 
HETATM   14  C   UNL     1     -36.861  42.282 -58.848  1.00  0.00     0.015 A 
HETATM   15  C   UNL     1     -34.830  41.904 -55.754  1.00  0.00     0.013 A 
HETATM   16  C   UNL     1     -37.408  41.483 -59.843  1.00  0.00     0.020 A 
HETATM   17  C   UNL     1     -37.202  40.121 -59.760  1.00  0.00     0.117 A 
BRANCH   9  18
HETATM   18  O   UNL     1     -35.061  38.379 -56.705  1.00  0.00    -0.358 OA
HETATM   19  H   UNL     1     -34.320  38.174 -57.322  1.00  0.00     0.218 HD
ENDBRANCH   9  18
ENDBRANCH   1   8
BRANCH   1  20
HETATM   20  C   UNL     1     -32.376  39.406 -55.134  1.00  0.00    -0.031 A 
HETATM   21  C   UNL     1     -31.757  38.313 -54.506  1.00  0.00     0.010 A 
HETATM   22  C   UNL     1     -30.486  37.886 -54.899  1.00  0.00     0.007 A 
HETATM   23  C   UNL     1     -29.804  38.541 -55.930  1.00  0.00    -0.062 A 
HETATM   24  C   UNL     1     -28.450  38.069 -56.367  1.00  0.00     0.048 C 
HETATM   25  C   UNL     1     -30.429  39.605 -56.588  1.00  0.00     0.007 A 
HETATM   26  C   UNL     1     -31.698  40.035 -56.192  1.00  0.00     0.010 A 
ENDBRANCH   1  20
TORSDOF 5
ENDMDL
MODEL 5
REMARK VINA RESULT:      -7.1      2.373      5.540
REMARK  5 active torsions:
REMARK  status: ('A' for Active; 'I' for Inactive)
REMARK    1  A    between atoms: C_2  and  C_3 
REMARK       I    between atoms: C_3  and  N_4 
REMARK    2  A    between atoms: N_4  and  C_5 
REMARK    3  A    between atoms: C_5  and  C_6 
REMARK    4  A    between atoms: C_5  and  C_17 
REMARK    5  A    between atoms: C_7  and  O_8 
ROOT
HETATM    1  C   UNL     1     -41.821  56.319 -54.622  1.00  0.00     0.154 C 
ENDROOT
BRANCH   1   2
HETATM    2  N   UNL     1     -41.991  54.909 -54.279  1.00  0.00    -0.348 N 
HETATM    3  C   UNL     1     -41.108  53.951 -54.727  1.00  0.00     0.218 C 
HETATM    4  O   UNL     1     -40.220  54.176 -55.546  1.00  0.00    -0.274 OA
HETATM    5  H   UNL     1     -42.430  54.721 -53.390  1.00  0.00     0.163 HD
BRANCH   3   6
HETATM    6  C   UNL     1     -41.262  52.598 -54.064  1.00  0.00     0.098 C 
HETATM    7  C   UNL     1     -40.002  51.753 -54.110  1.00  0.00     0.014 C 
ENDBRANCH   3   6
ENDBRANCH   1   2
BRANCH   1   8
HETATM    8  C   UNL     1     -43.000  56.872 -55.416  1.00  0.00     0.005 A 
HETATM    9  C   UNL     1     -43.096  56.661 -56.808  1.00  0.00     0.103 A 
HETATM   10  C   UNL     1     -44.127  57.186 -57.606  1.00  0.00     0.100 A 
HETATM   11  C   UNL     1     -45.120  57.943 -56.955  1.00  0.00    -0.004 A 
HETATM   12  N   UNL     1     -44.178  56.969 -58.943  1.00  0.00    -0.257 NA
HETATM   13  C   UNL     1     -45.069  58.139 -55.566  1.00  0.00     0.014 A 
HETATM   14  C   UNL     1     -46.159  58.488 -57.724  1.00  0.00     0.015 A 
HETATM   15  C   UNL     1     -44.027  57.603 -54.807  1.00  0.00     0.013 A 
HETATM   16  C   UNL     1     -46.197  58.271 -59.094  1.00  0.00     0.020 A 
HETATM   17  C   UNL     1     -45.192  57.509 -59.652  1.00  0.00     0.117 A 
BRANCH   9  18
HETATM   18  O   UNL     1     -42.140  55.877 -57.421  1.00  0.00    -0.358 OA
HETATM   19  H   UNL     1     -41.288  56.123 -56.991  1.00  0.00     0.218 HD
ENDBRANCH   9  18
ENDBRANCH   1   8
BRANCH   1  20
HETATM   20  C   UNL     1     -41.467  57.142 -53.380  1.00  0.00    -0.031 A 
HETATM   21  C   UNL     1     -41.791  56.640 -52.111  1.00  0.00     0.010 A 
HETATM   22  C   UNL     1     -41.513  57.375 -50.955  1.00  0.00     0.007 A 
HETATM   23  C   UNL     1     -40.904  58.631 -51.043  1.00  0.00    -0.062 A 
HETATM   24  C   UNL     1     -40.584  59.410 -49.802  1.00  0.00     0.048 C 
HETATM   25  C   UNL     1     -40.540  59.122 -52.300  1.00  0.00     0.007 A 
HETATM   26  C   UNL     1     -40.822  58.389 -53.456  1.00  0.00     0.010 A 
ENDBRANCH   1  20
TORSDOF 5
ENDMDL
MODEL 6
REMARK VINA RESULT:      -7.0      1.782      4.431
REMARK  5 active torsions:
REMARK  status: ('A' for Active; 'I' for Inactive)
REMARK    1  A    between atoms: C_2  and  C_3 
REMARK       I    between atoms: C_3  and  N_4 
REMARK    2  A    between atoms: N_4  and  C_5 
REMARK    3  A    between atoms: C_5  and  C_6 
REMARK    4  A    between atoms: C_5  and  C_17 
REMARK    5  A    between atoms: C_7  and  O_8 
ROOT
HETATM    1  C   UNL     1     -42.301  55.534 -53.111  1.00  0.00     0.154 C 
ENDROOT
BRANCH   1   2
HETATM    2  N   UNL     1     -41.149  54.679 -52.834  1.00  0.00    -0.348 N 
HETATM    3  C   UNL     1     -41.200  53.698 -51.868  1.00  0.00     0.218 C 
HETATM    4  O   UNL     1     -42.138  53.565 -51.085  1.00  0.00    -0.274 OA
HETATM    5  H   UNL     1     -40.539  54.495 -53.617  1.00  0.00     0.163 HD
BRANCH   3   6
HETATM    6  C   UNL     1     -40.035  52.731 -51.896  1.00  0.00     0.098 C 
HETATM    7  C   UNL     1     -39.861  52.029 -53.232  1.00  0.00     0.014 C 
ENDBRANCH   3   6
ENDBRANCH   1   2
BRANCH   1   8
HETATM    8  C   UNL     1     -42.222  56.873 -52.386  1.00  0.00     0.005 A 
HETATM    9  C   UNL     1     -43.394  57.540 -51.969  1.00  0.00     0.103 A 
HETATM   10  C   UNL     1     -43.394  58.797 -51.343  1.00  0.00     0.100 A 
HETATM   11  C   UNL     1     -42.142  59.398 -51.109  1.00  0.00    -0.004 A 
HETATM   12  N   UNL     1     -44.544  59.409 -50.966  1.00  0.00    -0.257 NA
HETATM   13  C   UNL     1     -40.958  58.742 -51.481  1.00  0.00     0.014 A 
HETATM   14  C   UNL     1     -42.107  60.658 -50.493  1.00  0.00     0.015 A 
HETATM   15  C   UNL     1     -40.998  57.493 -52.103  1.00  0.00     0.013 A 
HETATM   16  C   UNL     1     -43.290  61.283 -50.122  1.00  0.00     0.020 A 
HETATM   17  C   UNL     1     -44.474  60.622 -50.376  1.00  0.00     0.117 A 
BRANCH   9  18
HETATM   18  O   UNL     1     -44.610  56.915 -52.163  1.00  0.00    -0.358 OA
HETATM   19  H   UNL     1     -44.819  57.047 -53.117  1.00  0.00     0.218 HD
ENDBRANCH   9  18
ENDBRANCH   1   8
BRANCH   1  20
HETATM   20  C   UNL     1     -42.538  55.657 -54.619  1.00  0.00    -0.031 A 
HETATM   21  C   UNL     1     -43.036  54.551 -55.326  1.00  0.00     0.010 A 
HETATM   22  C   UNL     1     -43.236  54.614 -56.707  1.00  0.00     0.007 A 
HETATM   23  C   UNL     1     -42.943  55.784 -57.415  1.00  0.00    -0.062 A 
HETATM   24  C   UNL     1     -43.179  55.859 -58.894  1.00  0.00     0.048 C 
HETATM   25  C   UNL     1     -42.485  56.903 -56.714  1.00  0.00     0.007 A 
HETATM   26  C   UNL     1     -42.280  56.840 -55.334  1.00  0.00     0.010 A 
ENDBRANCH   1  20
TORSDOF 5
ENDMDL
MODEL 7
REMARK VINA RESULT:      -7.0      1.942      5.312
REMARK  5 active torsions:
REMARK  status: ('A' for Active; 'I' for Inactive)
REMARK    1  A    between atoms: C_2  and  C_3 
REMARK       I    between atoms: C_3  and  N_4 
REMARK    2  A    between atoms: N_4  and  C_5 
REMARK    3  A    between atoms: C_5  and  C_6 
REMARK    4  A    between atoms: C_5  and  C_17 
REMARK    5  A    between atoms: C_7  and  O_8 
ROOT
HETATM    1  C   UNL     1     -42.522  56.439 -54.144  1.00  0.00     0.154 C 
ENDROOT
BRANCH   1   2
HETATM    2  N   UNL     1     -42.028  57.413 -53.176  1.00  0.00    -0.348 N 
HETATM    3  C   UNL     1     -42.782  57.787 -52.085  1.00  0.00     0.218 C 
HETATM    4  O   UNL     1     -43.954  57.454 -51.924  1.00  0.00    -0.274 OA
HETATM    5  H   UNL     1     -41.027  57.438 -53.048  1.00  0.00     0.163 HD
BRANCH   3   6
HETATM    6  C   UNL     1     -42.025  58.584 -51.043  1.00  0.00     0.098 C 
HETATM    7  C   UNL     1     -40.674  57.989 -50.689  1.00  0.00     0.014 C 
ENDBRANCH   3   6
ENDBRANCH   1   2
BRANCH   1   8
HETATM    8  C   UNL     1     -42.639  57.020 -55.550  1.00  0.00     0.005 A 
HETATM    9  C   UNL     1     -43.155  56.246 -56.612  1.00  0.00     0.103 A 
HETATM   10  C   UNL     1     -43.241  56.703 -57.937  1.00  0.00     0.100 A 
HETATM   11  C   UNL     1     -42.803  58.017 -58.194  1.00  0.00    -0.004 A 
HETATM   12  N   UNL     1     -43.734  55.924 -58.932  1.00  0.00    -0.257 NA
HETATM   13  C   UNL     1     -42.318  58.821 -57.150  1.00  0.00     0.014 A 
HETATM   14  C   UNL     1     -42.868  58.501 -59.509  1.00  0.00     0.015 A 
HETATM   15  C   UNL     1     -42.246  58.331 -55.845  1.00  0.00     0.013 A 
HETATM   16  C   UNL     1     -43.363  57.692 -60.523  1.00  0.00     0.020 A 
HETATM   17  C   UNL     1     -43.782  56.422 -60.186  1.00  0.00     0.117 A 
BRANCH   9  18
HETATM   18  O   UNL     1     -43.624  54.978 -56.333  1.00  0.00    -0.358 OA
HETATM   19  H   UNL     1     -44.561  54.976 -56.640  1.00  0.00     0.218 HD
ENDBRANCH   9  18
ENDBRANCH   1   8
BRANCH   1  20
HETATM   20  C   UNL     1     -41.712  55.141 -54.075  1.00  0.00    -0.031 A 
HETATM   21  C   UNL     1     -42.056  54.171 -53.120  1.00  0.00     0.010 A 
HETATM   22  C   UNL     1     -41.322  52.988 -53.003  1.00  0.00     0.007 A 
HETATM   23  C   UNL     1     -40.227  52.746 -53.838  1.00  0.00    -0.062 A 
HETATM   24  C   UNL     1     -39.453  51.466 -53.729  1.00  0.00     0.048 C 
HETATM   25  C   UNL     1     -39.902  53.687 -54.819  1.00  0.00     0.007 A 
HETATM   26  C   UNL     1     -40.633  54.873 -54.934  1.00  0.00     0.010 A 
ENDBRANCH   1  20
TORSDOF 5
ENDMDL
MODEL 8
REMARK VINA RESULT:      -6.9      2.706      5.386
REMARK  5 active torsions:
REMARK  status: ('A' for Active; 'I' for Inactive)
REMARK    1  A    between atoms: C_2  and  C_3 
REMARK       I    between atoms: C_3  and  N_4 
REMARK    2  A    between atoms: N_4  and  C_5 
REMARK    3  A    between atoms: C_5  and  C_6 
REMARK    4  A    between atoms: C_5  and  C_17 
REMARK    5  A    between atoms: C_7  and  O_8 
ROOT
HETATM    1  C   UNL     1     -42.722  56.854 -54.392  1.00  0.00     0.154 C 
ENDROOT
BRANCH   1   2
HETATM    2  N   UNL     1     -42.311  57.769 -53.330  1.00  0.00    -0.348 N 
HETATM    3  C   UNL     1     -43.063  57.926 -52.187  1.00  0.00     0.218 C 
HETATM    4  O   UNL     1     -44.181  57.437 -52.038  1.00  0.00    -0.274 OA
HETATM    5  H   UNL     1     -41.316  57.901 -53.224  1.00  0.00     0.163 HD
BRANCH   3   6
HETATM    6  C   UNL     1     -42.367  58.688 -51.079  1.00  0.00     0.098 C 
HETATM    7  C   UNL     1     -41.030  58.091 -50.680  1.00  0.00     0.014 C 
ENDBRANCH   3   6
ENDBRANCH   1   2
BRANCH   1   8
HETATM    8  C   UNL     1     -42.690  57.508 -55.770  1.00  0.00     0.005 A 
HETATM    9  C   UNL     1     -42.041  58.746 -55.967  1.00  0.00     0.103 A 
HETATM   10  C   UNL     1     -42.018  59.426 -57.197  1.00  0.00     0.100 A 
HETATM   11  C   UNL     1     -42.668  58.808 -58.284  1.00  0.00    -0.004 A 
HETATM   12  N   UNL     1     -41.391  60.619 -57.343  1.00  0.00    -0.257 NA
HETATM   13  C   UNL     1     -43.291  57.560 -58.124  1.00  0.00     0.014 A 
HETATM   14  C   UNL     1     -42.671  59.465 -59.524  1.00  0.00     0.015 A 
HETATM   15  C   UNL     1     -43.294  56.916 -56.886  1.00  0.00     0.013 A 
HETATM   16  C   UNL     1     -42.037  60.692 -59.661  1.00  0.00     0.020 A 
HETATM   17  C   UNL     1     -41.414  61.223 -58.550  1.00  0.00     0.117 A 
BRANCH   9  18
HETATM   18  O   UNL     1     -41.369  59.313 -54.903  1.00  0.00    -0.358 OA
HETATM   19  H   UNL     1     -40.416  59.283 -55.154  1.00  0.00     0.218 HD
ENDBRANCH   9  18
ENDBRANCH   1   8
BRANCH   1  20
HETATM   20  C   UNL     1     -41.944  55.538 -54.310  1.00  0.00    -0.031 A 
HETATM   21  C   UNL     1     -42.396  54.529 -53.446  1.00  0.00     0.010 A 
HETATM   22  C   UNL     1     -41.696  53.326 -53.319  1.00  0.00     0.007 A 
HETATM   23  C   UNL     1     -40.527  53.104 -54.054  1.00  0.00    -0.062 A 
HETATM   24  C   UNL     1     -39.788  51.805 -53.936  1.00  0.00     0.048 C 
HETATM   25  C   UNL     1     -40.091  54.087 -54.948  1.00  0.00     0.007 A 
HETATM   26  C   UNL     1     -40.788  55.292 -55.072  1.00  0.00     0.010 A 
ENDBRANCH   1  20
TORSDOF 5
ENDMDL
MODEL 9
REMARK VINA RESULT:      -6.8      1.973      6.442
REMARK  5 active torsions:
REMARK  status: ('A' for Active; 'I' for Inactive)
REMARK    1  A    between atoms: C_2  and  C_3 
REMARK       I    between atoms: C_3  and  N_4 
REMARK    2  A    between atoms: N_4  and  C_5 
REMARK    3  A    between atoms: C_5  and  C_6 
REMARK    4  A    between atoms: C_5  and  C_17 
REMARK    5  A    between atoms: C_7  and  O_8 
ROOT
HETATM    1  C   UNL     1     -42.163  57.026 -54.621  1.00  0.00     0.154 C 
ENDROOT
BRANCH   1   2
HETATM    2  N   UNL     1     -43.341  57.278 -53.794  1.00  0.00    -0.348 N 
HETATM    3  C   UNL     1     -43.550  58.502 -53.198  1.00  0.00     0.218 C 
HETATM    4  O   UNL     1     -42.716  59.405 -53.192  1.00  0.00    -0.274 OA
HETATM    5  H   UNL     1     -44.172  56.761 -54.041  1.00  0.00     0.163 HD
BRANCH   3   6
HETATM    6  C   UNL     1     -44.934  58.686 -52.612  1.00  0.00     0.098 C 
HETATM    7  C   UNL     1     -45.018  58.345 -51.135  1.00  0.00     0.014 C 
ENDBRANCH   3   6
ENDBRANCH   1   2
BRANCH   1   8
HETATM    8  C   UNL     1     -41.565  55.645 -54.377  1.00  0.00     0.005 A 
HETATM    9  C   UNL     1     -41.257  55.210 -53.069  1.00  0.00     0.103 A 
HETATM   10  C   UNL     1     -40.658  53.973 -52.780  1.00  0.00     0.100 A 
HETATM   11  C   UNL     1     -40.376  53.126 -53.870  1.00  0.00    -0.004 A 
HETATM   12  N   UNL     1     -40.370  53.597 -51.510  1.00  0.00    -0.257 NA
HETATM   13  C   UNL     1     -40.703  53.517 -55.178  1.00  0.00     0.014 A 
HETATM   14  C   UNL     1     -39.771  51.886 -53.617  1.00  0.00     0.015 A 
HETATM   15  C   UNL     1     -41.297  54.756 -55.426  1.00  0.00     0.013 A 
HETATM   16  C   UNL     1     -39.468  51.514 -52.314  1.00  0.00     0.020 A 
HETATM   17  C   UNL     1     -39.786  52.397 -51.303  1.00  0.00     0.117 A 
BRANCH   9  18
HETATM   18  O   UNL     1     -41.584  56.033 -52.010  1.00  0.00    -0.358 OA
HETATM   19  H   UNL     1     -40.731  56.434 -51.722  1.00  0.00     0.218 HD
ENDBRANCH   9  18
ENDBRANCH   1   8
BRANCH   1  20
HETATM   20  C   UNL     1     -42.457  57.325 -56.093  1.00  0.00    -0.031 A 
HETATM   21  C   UNL     1     -43.341  56.491 -56.797  1.00  0.00     0.010 A 
HETATM   22  C   UNL     1     -43.611  56.711 -58.150  1.00  0.00     0.007 A 
HETATM   23  C   UNL     1     -43.004  57.770 -58.832  1.00  0.00    -0.062 A 
HETATM   24  C   UNL     1     -43.311  58.021 -60.278  1.00  0.00     0.048 C 
HETATM   25  C   UNL     1     -42.154  58.630 -58.130  1.00  0.00     0.007 A 
HETATM   26  C   UNL     1     -41.880  58.408 -56.778  1.00  0.00     0.010 A 
ENDBRANCH   1  20
TORSDOF 5
ENDMDL
MODEL 10
REMARK VINA RESULT:      -6.8     16.210     18.262
REMARK  5 active torsions:
REMARK  status: ('A' for Active; 'I' for Inactive)
REMARK    1  A    between atoms: C_2  and  C_3 
REMARK       I    between atoms: C_3  and  N_4 
REMARK    2  A    between atoms: N_4  and  C_5 
REMARK    3  A    between atoms: C_5  and  C_6 
REMARK    4  A    between atoms: C_5  and  C_17 
REMARK    5  A    between atoms: C_7  and  O_8 
ROOT
HETATM    1  C   UNL     1     -33.754  40.389 -54.389  1.00  0.00     0.154 C 
ENDROOT
BRANCH   1   2
HETATM    2  N   UNL     1     -32.962  39.208 -54.725  1.00  0.00    -0.348 N 
HETATM    3  C   UNL     1     -31.712  39.320 -55.291  1.00  0.00     0.218 C 
HETATM    4  O   UNL     1     -31.237  40.384 -55.684  1.00  0.00    -0.274 OA
HETATM    5  H   UNL     1     -33.110  38.398 -54.141  1.00  0.00     0.163 HD
BRANCH   3   6
HETATM    6  C   UNL     1     -30.919  38.030 -55.320  1.00  0.00     0.098 C 
HETATM    7  C   UNL     1     -30.889  37.307 -53.985  1.00  0.00     0.014 C 
ENDBRANCH   3   6
ENDBRANCH   1   2
BRANCH   1   8
HETATM    8  C   UNL     1     -34.612  40.867 -55.556  1.00  0.00     0.005 A 
HETATM    9  C   UNL     1     -35.177  39.945 -56.463  1.00  0.00     0.103 A 
HETATM   10  C   UNL     1     -35.933  40.321 -57.586  1.00  0.00     0.100 A 
HETATM   11  C   UNL     1     -36.144  41.699 -57.786  1.00  0.00    -0.004 A 
HETATM   12  N   UNL     1     -36.451  39.404 -58.439  1.00  0.00    -0.257 NA
HETATM   13  C   UNL     1     -35.623  42.637 -56.880  1.00  0.00     0.014 A 
HETATM   14  C   UNL     1     -36.888  42.109 -58.902  1.00  0.00     0.015 A 
HETATM   15  C   UNL     1     -34.875  42.225 -55.776  1.00  0.00     0.013 A 
HETATM   16  C   UNL     1     -37.404  41.163 -59.778  1.00  0.00     0.020 A 
HETATM   17  C   UNL     1     -37.162  39.833 -59.504  1.00  0.00     0.117 A 
BRANCH   9  18
HETATM   18  O   UNL     1     -35.001  38.597 -56.225  1.00  0.00    -0.358 OA
HETATM   19  H   UNL     1     -35.224  38.471 -55.273  1.00  0.00     0.218 HD
ENDBRANCH   9  18
ENDBRANCH   1   8
BRANCH   1  20
HETATM   20  C   UNL     1     -34.536  40.170 -53.091  1.00  0.00    -0.031 A 
HETATM   21  C   UNL     1     -34.644  41.226 -52.172  1.00  0.00     0.010 A 
HETATM   22  C   UNL     1     -35.323  41.056 -50.962  1.00  0.00     0.007 A 
HETATM   23  C   UNL     1     -35.910  39.828 -50.643  1.00  0.00    -0.062 A 
HETATM   24  C   UNL     1     -36.658  39.652 -49.355  1.00  0.00     0.048 C 
HETATM   25  C   UNL     1     -35.843  38.783 -51.570  1.00  0.00     0.007 A 
HETATM   26  C   UNL     1     -35.161  38.950 -52.778  1.00  0.00     0.010 A 
ENDBRANCH   1  20
TORSDOF 5
ENDMDL
