MODEL 1
REMARK VINA RESULT:      -8.4      0.000      0.000
REMARK  4 active torsions:
REMARK  status: ('A' for Active; 'I' for Inactive)
REMARK    1  A    between atoms: C_3  and  C_4 
REMARK       I    between atoms: C_4  and  N_5 
REMARK    2  A    between atoms: N_5  and  C_6 
REMARK    3  A    between atoms: C_6  and  C_7 
REMARK    4  A    between atoms: C_23  and  O_24 
ROOT
HETATM    1  C   UNL     1     -42.204  55.824 -54.550  1.00  0.00     0.276 C 
HETATM    2  N   UNL     1     -41.681  56.278 -55.739  1.00  0.00    -0.348 N 
HETATM    3  O   UNL     1     -43.154  56.400 -54.023  1.00  0.00    -0.265 OA
HETATM    4  H   UNL     1     -40.897  55.802 -56.174  1.00  0.00     0.163 HD
ENDROOT
BRANCH   1   5
HETATM    5  C   UNL     1     -41.561  54.649 -53.992  1.00  0.00     0.150 A 
HETATM    6  C   UNL     1     -41.141  54.360 -52.698  1.00  0.00    -0.009 A 
HETATM    7  C   UNL     1     -41.240  55.211 -51.483  1.00  0.00     0.052 C 
HETATM    8  C   UNL     1     -40.581  53.046 -52.746  1.00  0.00     0.009 A 
HETATM    9  C   UNL     1     -40.693  52.625 -54.061  1.00  0.00     0.087 A 
HETATM   10  C   UNL     1     -39.994  52.173 -51.812  1.00  0.00     0.051 A 
HETATM   11  O   UNL     1     -41.282  53.588 -54.819  1.00  0.00    -0.304 OA
HETATM   12  C   UNL     1     -40.256  51.384 -54.519  1.00  0.00     0.041 A 
HETATM   13  C   UNL     1     -39.673  50.529 -53.570  1.00  0.00     0.039 A 
HETATM   14  C   UNL     1     -39.541  50.912 -52.232  1.00  0.00     0.069 A 
BRANCH  14  15
HETATM   15  O   UNL     1     -38.991  50.158 -51.230  1.00  0.00    -0.356 OA
HETATM   16  C   UNL     1     -39.867  49.685 -50.216  1.00  0.00     0.210 C 
ENDBRANCH  14  15
ENDBRANCH   1   5
BRANCH   2  17
HETATM   17  C   UNL     1     -42.240  57.440 -56.375  1.00  0.00     0.201 C 
BRANCH  17  18
HETATM   18  C   UNL     1     -43.176  57.051 -57.464  1.00  0.00     0.123 A 
HETATM   19  N   UNL     1     -44.330  57.602 -57.791  1.00  0.00    -0.232 NA
HETATM   20  C   UNL     1     -44.796  56.874 -58.862  1.00  0.00     0.085 A 
HETATM   21  C   UNL     1     -43.909  55.857 -59.195  1.00  0.00     0.062 A 
HETATM   22  C   UNL     1     -45.974  57.020 -59.608  1.00  0.00     0.034 A 
HETATM   23  N   UNL     1     -42.888  55.991 -58.292  1.00  0.00    -0.341 N 
HETATM   24  C   UNL     1     -44.122  54.960 -60.244  1.00  0.00     0.032 A 
HETATM   25  H   UNL     1     -42.064  55.410 -58.244  1.00  0.00     0.167 HD
HETATM   26  C   UNL     1     -45.302  55.121 -60.977  1.00  0.00     0.002 A 
HETATM   27  C   UNL     1     -46.215  56.133 -60.667  1.00  0.00     0.002 A 
ENDBRANCH  17  18
ENDBRANCH   2  17
TORSDOF 4
ENDMDL
MODEL 2
REMARK VINA RESULT:      -8.3      1.264      2.261
REMARK  4 active torsions:
REMARK  status: ('A' for Active; 'I' for Inactive)
REMARK    1  A    between atoms: C_3  and  C_4 
REMARK       I    between atoms: C_4  and  N_5 
REMARK    2  A    between atoms: N_5  and  C_6 
REMARK    3  A    between atoms: C_6  and  C_7 
REMARK    4  A    between atoms: C_23  and  O_24 
ROOT
HETATM    1  C   UNL     1     -41.576  56.621 -54.225  1.00  0.00     0.276 C 
HETATM    2  N   UNL     1     -42.392  56.400 -55.310  1.00  0.00    -0.348 N 
HETATM    3  O   UNL     1     -41.222  57.760 -53.927  1.00  0.00    -0.265 OA
HETATM    4  H   UNL     1     -42.684  55.459 -55.554  1.00  0.00     0.163 HD
ENDROOT
BRANCH   1   5
HETATM    5  C   UNL     1     -41.182  55.435 -53.487  1.00  0.00     0.150 A 
HETATM    6  C   UNL     1     -40.607  54.240 -53.907  1.00  0.00    -0.009 A 
HETATM    7  C   UNL     1     -40.224  53.835 -55.285  1.00  0.00     0.052 C 
HETATM    8  C   UNL     1     -40.440  53.444 -52.733  1.00  0.00     0.009 A 
HETATM    9  C   UNL     1     -40.925  54.201 -51.679  1.00  0.00     0.087 A 
HETATM   10  C   UNL     1     -39.927  52.164 -52.455  1.00  0.00     0.051 A 
HETATM   11  O   UNL     1     -41.376  55.403 -52.127  1.00  0.00    -0.304 OA
HETATM   12  C   UNL     1     -40.939  53.770 -50.355  1.00  0.00     0.041 A 
HETATM   13  C   UNL     1     -40.422  52.489 -50.101  1.00  0.00     0.039 A 
HETATM   14  C   UNL     1     -39.922  51.691 -51.134  1.00  0.00     0.069 A 
BRANCH  14  15
HETATM   15  O   UNL     1     -39.398  50.433 -50.996  1.00  0.00    -0.356 OA
HETATM   16  C   UNL     1     -39.606  49.521 -52.065  1.00  0.00     0.210 C 
ENDBRANCH  14  15
ENDBRANCH   1   5
BRANCH   2  17
HETATM   17  C   UNL     1     -42.835  57.507 -56.113  1.00  0.00     0.201 C 
BRANCH  17  18
HETATM   18  C   UNL     1     -43.550  57.030 -57.328  1.00  0.00     0.123 A 
HETATM   19  N   UNL     1     -43.144  56.155 -58.229  1.00  0.00    -0.232 NA
HETATM   20  C   UNL     1     -44.170  56.065 -59.142  1.00  0.00     0.085 A 
HETATM   21  C   UNL     1     -45.223  56.900 -58.792  1.00  0.00     0.062 A 
HETATM   22  C   UNL     1     -44.277  55.286 -60.304  1.00  0.00     0.034 A 
HETATM   23  N   UNL     1     -44.805  57.503 -57.635  1.00  0.00    -0.341 N 
HETATM   24  C   UNL     1     -46.399  57.013 -59.536  1.00  0.00     0.032 A 
HETATM   25  H   UNL     1     -45.330  58.178 -57.100  1.00  0.00     0.167 HD
HETATM   26  C   UNL     1     -46.489  56.229 -60.691  1.00  0.00     0.002 A 
HETATM   27  C   UNL     1     -45.446  55.379 -61.071  1.00  0.00     0.002 A 
ENDBRANCH  17  18
ENDBRANCH   2  17
TORSDOF 4
ENDMDL
MODEL 3
REMARK VINA RESULT:      -7.7      2.243      3.140
REMARK  4 active torsions:
REMARK  status: ('A' for Active; 'I' for Inactive)
REMARK    1  A    between atoms: C_3  and  C_4 
REMARK       I    between atoms: C_4  and  N_5 
REMARK    2  A    between atoms: N_5  and  C_6 
REMARK    3  A    between atoms: C_6  and  C_7 
REMARK    4  A    between atoms: C_23  and  O_24 
ROOT
HETATM    1  C   UNL     1     -42.330  56.846 -53.449  1.00  0.00     0.276 C 
HETATM    2  N   UNL     1     -41.441  57.824 -53.834  1.00  0.00    -0.348 N 
HETATM    3  O   UNL     1     -43.542  57.046 -53.496  1.00  0.00    -0.265 OA
HETATM    4  H   UNL     1     -40.441  57.656 -53.796  1.00  0.00     0.163 HD
ENDROOT
BRANCH   1   5
HETATM    5  C   UNL     1     -41.734  55.601 -53.000  1.00  0.00     0.150 A 
HETATM    6  C   UNL     1     -41.077  54.592 -53.697  1.00  0.00    -0.009 A 
HETATM    7  C   UNL     1     -40.795  54.511 -55.154  1.00  0.00     0.052 C 
HETATM    8  C   UNL     1     -40.703  53.615 -52.725  1.00  0.00     0.009 A 
HETATM    9  C   UNL     1     -41.158  54.088 -51.504  1.00  0.00     0.087 A 
HETATM   10  C   UNL     1     -40.027  52.381 -52.753  1.00  0.00     0.051 A 
HETATM   11  O   UNL     1     -41.783  55.285 -51.663  1.00  0.00    -0.304 OA
HETATM   12  C   UNL     1     -40.988  53.413 -50.298  1.00  0.00     0.041 A 
HETATM   13  C   UNL     1     -40.310  52.184 -50.350  1.00  0.00     0.039 A 
HETATM   14  C   UNL     1     -39.834  51.669 -51.559  1.00  0.00     0.069 A 
BRANCH  14  15
HETATM   15  O   UNL     1     -39.163  50.486 -51.720  1.00  0.00    -0.356 OA
HETATM   16  C   UNL     1     -39.656  49.588 -52.705  1.00  0.00     0.210 C 
ENDBRANCH  14  15
ENDBRANCH   1   5
BRANCH   2  17
HETATM   17  C   UNL     1     -41.927  59.097 -54.290  1.00  0.00     0.201 C 
BRANCH  17  18
HETATM   18  C   UNL     1     -41.989  59.141 -55.776  1.00  0.00     0.123 A 
HETATM   19  N   UNL     1     -41.722  60.153 -56.580  1.00  0.00    -0.232 NA
HETATM   20  C   UNL     1     -41.930  59.677 -57.854  1.00  0.00     0.085 A 
HETATM   21  C   UNL     1     -42.334  58.347 -57.828  1.00  0.00     0.062 A 
HETATM   22  C   UNL     1     -41.795  60.322 -59.091  1.00  0.00     0.034 A 
HETATM   23  N   UNL     1     -42.364  58.031 -56.496  1.00  0.00    -0.341 N 
HETATM   24  C   UNL     1     -42.616  57.604 -58.975  1.00  0.00     0.032 A 
HETATM   25  H   UNL     1     -42.618  57.133 -56.109  1.00  0.00     0.167 HD
HETATM   26  C   UNL     1     -42.476  58.264 -60.200  1.00  0.00     0.002 A 
HETATM   27  C   UNL     1     -42.072  59.601 -60.261  1.00  0.00     0.002 A 
ENDBRANCH  17  18
ENDBRANCH   2  17
TORSDOF 4
ENDMDL
MODEL 4
REMARK VINA RESULT:      -7.6      2.285      3.026
REMARK  4 active torsions:
REMARK  status: ('A' for Active; 'I' for Inactive)
REMARK    1  A    between atoms: C_3  and  C_4 
REMARK       I    between atoms: C_4  and  N_5 
REMARK    2  A    between atoms: N_5  and  C_6 
REMARK    3  A    between atoms: C_6  and  C_7 
REMARK    4  A    between atoms: C_23  and  O_24 
ROOT
HETATM    1  C   UNL     1     -42.459  56.574 -53.643  1.00  0.00     0.276 C 
HETATM    2  N   UNL     1     -41.663  57.589 -54.123  1.00  0.00    -0.348 N 
HETATM    3  O   UNL     1     -43.671  56.737 -53.512  1.00  0.00    -0.265 OA
HETATM    4  H   UNL     1     -40.663  57.453 -54.231  1.00  0.00     0.163 HD
ENDROOT
BRANCH   1   5
HETATM    5  C   UNL     1     -41.770  55.339 -53.317  1.00  0.00     0.150 A 
HETATM    6  C   UNL     1     -41.321  54.831 -52.103  1.00  0.00    -0.009 A 
HETATM    7  C   UNL     1     -41.428  55.441 -50.751  1.00  0.00     0.052 C 
HETATM    8  C   UNL     1     -40.721  53.569 -52.397  1.00  0.00     0.009 A 
HETATM    9  C   UNL     1     -40.840  53.393 -53.766  1.00  0.00     0.087 A 
HETATM   10  C   UNL     1     -40.091  52.559 -51.646  1.00  0.00     0.051 A 
HETATM   11  O   UNL     1     -41.471  54.459 -54.328  1.00  0.00    -0.304 OA
HETATM   12  C   UNL     1     -40.371  52.273 -54.449  1.00  0.00     0.041 A 
HETATM   13  C   UNL     1     -39.746  51.278 -53.680  1.00  0.00     0.039 A 
HETATM   14  C   UNL     1     -39.605  51.414 -52.295  1.00  0.00     0.069 A 
BRANCH  14  15
HETATM   15  O   UNL     1     -39.015  50.507 -51.455  1.00  0.00    -0.356 OA
HETATM   16  C   UNL     1     -39.876  49.677 -50.687  1.00  0.00     0.210 C 
ENDBRANCH  14  15
ENDBRANCH   1   5
BRANCH   2  17
HETATM   17  C   UNL     1     -42.245  58.857 -54.470  1.00  0.00     0.201 C 
BRANCH  17  18
HETATM   18  C   UNL     1     -42.176  59.088 -55.938  1.00  0.00     0.123 A 
HETATM   19  N   UNL     1     -42.361  58.221 -56.916  1.00  0.00    -0.232 NA
HETATM   20  C   UNL     1     -42.188  58.935 -58.080  1.00  0.00     0.085 A 
HETATM   21  C   UNL     1     -41.890  60.265 -57.807  1.00  0.00     0.062 A 
HETATM   22  C   UNL     1     -42.269  58.517 -59.416  1.00  0.00     0.034 A 
HETATM   23  N   UNL     1     -41.888  60.336 -56.440  1.00  0.00    -0.341 N 
HETATM   24  C   UNL     1     -41.664  61.224 -58.797  1.00  0.00     0.032 A 
HETATM   25  H   UNL     1     -41.707  61.166 -55.893  1.00  0.00     0.167 HD
HETATM   26  C   UNL     1     -41.750  60.788 -60.123  1.00  0.00     0.002 A 
HETATM   27  C   UNL     1     -42.047  59.457 -60.431  1.00  0.00     0.002 A 
ENDBRANCH  17  18
ENDBRANCH   2  17
TORSDOF 4
ENDMDL
MODEL 5
REMARK VINA RESULT:      -7.5      3.212      8.669
REMARK  4 active torsions:
REMARK  status: ('A' for Active; 'I' for Inactive)
REMARK    1  A    between atoms: C_3  and  C_4 
REMARK       I    between atoms: C_4  and  N_5 
REMARK    2  A    between atoms: N_5  and  C_6 
REMARK    3  A    between atoms: C_6  and  C_7 
REMARK    4  A    between atoms: C_23  and  O_24 
ROOT
HETATM    1  C   UNL     1     -42.729  57.136 -55.296  1.00  0.00     0.276 C 
HETATM    2  N   UNL     1     -43.604  56.079 -55.395  1.00  0.00    -0.348 N 
HETATM    3  O   UNL     1     -42.186  57.403 -54.226  1.00  0.00    -0.265 OA
HETATM    4  H   UNL     1     -44.050  55.859 -56.280  1.00  0.00     0.163 HD
ENDROOT
BRANCH   1   5
HETATM    5  C   UNL     1     -42.508  57.882 -56.522  1.00  0.00     0.150 A 
HETATM    6  C   UNL     1     -42.322  59.241 -56.749  1.00  0.00    -0.009 A 
HETATM    7  C   UNL     1     -42.299  60.348 -55.756  1.00  0.00     0.052 C 
HETATM    8  C   UNL     1     -42.145  59.389 -58.158  1.00  0.00     0.009 A 
HETATM    9  C   UNL     1     -42.238  58.115 -58.696  1.00  0.00     0.087 A 
HETATM   10  C   UNL     1     -41.916  60.468 -59.032  1.00  0.00     0.051 A 
HETATM   11  O   UNL     1     -42.459  57.201 -57.714  1.00  0.00    -0.304 OA
HETATM   12  C   UNL     1     -42.119  57.836 -60.056  1.00  0.00     0.041 A 
HETATM   13  C   UNL     1     -41.891  58.928 -60.909  1.00  0.00     0.039 A 
HETATM   14  C   UNL     1     -41.789  60.230 -60.409  1.00  0.00     0.069 A 
BRANCH  14  15
HETATM   15  O   UNL     1     -41.568  61.360 -61.151  1.00  0.00    -0.356 OA
HETATM   16  C   UNL     1     -40.810  62.398 -60.544  1.00  0.00     0.210 C 
ENDBRANCH  14  15
ENDBRANCH   1   5
BRANCH   2  17
HETATM   17  C   UNL     1     -43.898  55.278 -54.238  1.00  0.00     0.201 C 
BRANCH  17  18
HETATM   18  C   UNL     1     -42.782  54.339 -53.944  1.00  0.00     0.123 A 
HETATM   19  N   UNL     1     -42.232  53.443 -54.742  1.00  0.00    -0.232 NA
HETATM   20  C   UNL     1     -41.246  52.840 -53.994  1.00  0.00     0.085 A 
HETATM   21  C   UNL     1     -41.193  53.379 -52.714  1.00  0.00     0.062 A 
HETATM   22  C   UNL     1     -40.348  51.820 -54.340  1.00  0.00     0.034 A 
HETATM   23  N   UNL     1     -42.180  54.329 -52.708  1.00  0.00    -0.341 N 
HETATM   24  C   UNL     1     -40.288  52.961 -51.737  1.00  0.00     0.032 A 
HETATM   25  H   UNL     1     -42.421  54.922 -51.927  1.00  0.00     0.167 HD
HETATM   26  C   UNL     1     -39.400  51.942 -52.100  1.00  0.00     0.002 A 
HETATM   27  C   UNL     1     -39.428  51.379 -53.379  1.00  0.00     0.002 A 
ENDBRANCH  17  18
ENDBRANCH   2  17
TORSDOF 4
ENDMDL
MODEL 6
REMARK VINA RESULT:      -7.5      4.161      5.951
REMARK  4 active torsions:
REMARK  status: ('A' for Active; 'I' for Inactive)
REMARK    1  A    between atoms: C_3  and  C_4 
REMARK       I    between atoms: C_4  and  N_5 
REMARK    2  A    between atoms: N_5  and  C_6 
REMARK    3  A    between atoms: C_6  and  C_7 
REMARK    4  A    between atoms: C_23  and  O_24 
ROOT
HETATM    1  C   UNL     1     -41.598  56.801 -53.574  1.00  0.00     0.276 C 
HETATM    2  N   UNL     1     -40.828  57.875 -53.189  1.00  0.00    -0.348 N 
HETATM    3  O   UNL     1     -42.568  56.959 -54.314  1.00  0.00    -0.265 OA
HETATM    4  H   UNL     1     -40.027  57.743 -52.579  1.00  0.00     0.163 HD
ENDROOT
BRANCH   1   5
HETATM    5  C   UNL     1     -41.182  55.513 -53.051  1.00  0.00     0.150 A 
HETATM    6  C   UNL     1     -40.591  54.417 -53.671  1.00  0.00    -0.009 A 
HETATM    7  C   UNL     1     -40.208  54.261 -55.099  1.00  0.00     0.052 C 
HETATM    8  C   UNL     1     -40.405  53.435 -52.651  1.00  0.00     0.009 A 
HETATM    9  C   UNL     1     -40.897  53.993 -51.482  1.00  0.00     0.087 A 
HETATM   10  C   UNL     1     -39.872  52.134 -52.598  1.00  0.00     0.051 A 
HETATM   11  O   UNL     1     -41.370  55.246 -51.717  1.00  0.00    -0.304 OA
HETATM   12  C   UNL     1     -40.898  53.340 -50.251  1.00  0.00     0.041 A 
HETATM   13  C   UNL     1     -40.360  52.043 -50.222  1.00  0.00     0.039 A 
HETATM   14  C   UNL     1     -39.852  51.442 -51.377  1.00  0.00     0.069 A 
BRANCH  14  15
HETATM   15  O   UNL     1     -39.308  50.188 -51.458  1.00  0.00    -0.356 OA
HETATM   16  C   UNL     1     -39.537  49.456 -52.654  1.00  0.00     0.210 C 
ENDBRANCH  14  15
ENDBRANCH   1   5
BRANCH   2  17
HETATM   17  C   UNL     1     -41.157  59.197 -53.647  1.00  0.00     0.201 C 
BRANCH  17  18
HETATM   18  C   UNL     1     -42.197  59.815 -52.781  1.00  0.00     0.123 A 
HETATM   19  N   UNL     1     -42.054  60.358 -51.586  1.00  0.00    -0.232 NA
HETATM   20  C   UNL     1     -43.312  60.781 -51.221  1.00  0.00     0.085 A 
HETATM   21  C   UNL     1     -44.242  60.491 -52.212  1.00  0.00     0.062 A 
HETATM   22  C   UNL     1     -43.743  61.427 -50.053  1.00  0.00     0.034 A 
HETATM   23  N   UNL     1     -43.508  59.876 -53.192  1.00  0.00    -0.341 N 
HETATM   24  C   UNL     1     -45.598  60.806 -52.114  1.00  0.00     0.032 A 
HETATM   25  H   UNL     1     -43.870  59.529 -54.068  1.00  0.00     0.167 HD
HETATM   26  C   UNL     1     -46.010  61.449 -50.943  1.00  0.00     0.002 A 
HETATM   27  C   UNL     1     -45.099  61.756 -49.927  1.00  0.00     0.002 A 
ENDBRANCH  17  18
ENDBRANCH   2  17
TORSDOF 4
ENDMDL
MODEL 7
REMARK VINA RESULT:      -7.4     14.385     15.965
REMARK  4 active torsions:
REMARK  status: ('A' for Active; 'I' for Inactive)
REMARK    1  A    between atoms: C_3  and  C_4 
REMARK       I    between atoms: C_4  and  N_5 
REMARK    2  A    between atoms: N_5  and  C_6 
REMARK    3  A    between atoms: C_6  and  C_7 
REMARK    4  A    between atoms: C_23  and  O_24 
ROOT
HETATM    1  C   UNL     1     -35.398  41.922 -53.151  1.00  0.00     0.276 C 
HETATM    2  N   UNL     1     -34.705  41.729 -54.324  1.00  0.00    -0.348 N 
HETATM    3  O   UNL     1     -36.310  42.744 -53.090  1.00  0.00    -0.265 OA
HETATM    4  H   UNL     1     -33.952  41.049 -54.373  1.00  0.00     0.163 HD
ENDROOT
BRANCH   1   5
HETATM    5  C   UNL     1     -34.974  41.101 -52.031  1.00  0.00     0.150 A 
HETATM    6  C   UNL     1     -35.671  40.188 -51.247  1.00  0.00    -0.009 A 
HETATM    7  C   UNL     1     -37.099  39.788 -51.344  1.00  0.00     0.052 C 
HETATM    8  C   UNL     1     -34.731  39.680 -50.298  1.00  0.00     0.009 A 
HETATM    9  C   UNL     1     -33.530  40.317 -50.564  1.00  0.00     0.087 A 
HETATM   10  C   UNL     1     -34.775  38.748 -49.245  1.00  0.00     0.051 A 
HETATM   11  O   UNL     1     -33.670  41.177 -51.607  1.00  0.00    -0.304 OA
HETATM   12  C   UNL     1     -32.356  40.092 -49.847  1.00  0.00     0.041 A 
HETATM   13  C   UNL     1     -32.423  39.157 -48.801  1.00  0.00     0.039 A 
HETATM   14  C   UNL     1     -33.614  38.490 -48.499  1.00  0.00     0.069 A 
BRANCH  14  15
HETATM   15  O   UNL     1     -33.787  37.565 -47.504  1.00  0.00    -0.356 OA
HETATM   16  C   UNL     1     -34.925  37.716 -46.666  1.00  0.00     0.210 C 
ENDBRANCH  14  15
ENDBRANCH   1   5
BRANCH   2  17
HETATM   17  C   UNL     1     -35.040  42.496 -55.492  1.00  0.00     0.201 C 
BRANCH  17  18
HETATM   18  C   UNL     1     -35.840  41.685 -56.449  1.00  0.00     0.123 A 
HETATM   19  N   UNL     1     -36.581  40.620 -56.203  1.00  0.00    -0.232 NA
HETATM   20  C   UNL     1     -37.108  40.251 -57.420  1.00  0.00     0.085 A 
HETATM   21  C   UNL     1     -36.681  41.106 -58.428  1.00  0.00     0.062 A 
HETATM   22  C   UNL     1     -37.966  39.190 -57.746  1.00  0.00     0.034 A 
HETATM   23  N   UNL     1     -35.876  42.008 -57.785  1.00  0.00    -0.341 N 
HETATM   24  C   UNL     1     -37.059  40.973 -59.765  1.00  0.00     0.032 A 
HETATM   25  H   UNL     1     -35.392  42.781 -58.220  1.00  0.00     0.167 HD
HETATM   26  C   UNL     1     -37.915  39.909 -60.072  1.00  0.00     0.002 A 
HETATM   27  C   UNL     1     -38.362  39.031 -59.081  1.00  0.00     0.002 A 
ENDBRANCH  17  18
ENDBRANCH   2  17
TORSDOF 4
ENDMDL
MODEL 8
REMARK VINA RESULT:      -7.4      2.111      2.843
REMARK  4 active torsions:
REMARK  status: ('A' for Active; 'I' for Inactive)
REMARK    1  A    between atoms: C_3  and  C_4 
REMARK       I    between atoms: C_4  and  N_5 
REMARK    2  A    between atoms: N_5  and  C_6 
REMARK    3  A    between atoms: C_6  and  C_7 
REMARK    4  A    between atoms: C_23  and  O_24 
ROOT
HETATM    1  C   UNL     1     -42.698  57.205 -53.533  1.00  0.00     0.276 C 
HETATM    2  N   UNL     1     -44.039  57.080 -53.811  1.00  0.00    -0.348 N 
HETATM    3  O   UNL     1     -42.136  58.295 -53.633  1.00  0.00    -0.265 OA
HETATM    4  H   UNL     1     -44.502  56.180 -53.726  1.00  0.00     0.163 HD
ENDROOT
BRANCH   1   5
HETATM    5  C   UNL     1     -42.026  55.985 -53.124  1.00  0.00     0.150 A 
HETATM    6  C   UNL     1     -41.577  54.894 -53.859  1.00  0.00    -0.009 A 
HETATM    7  C   UNL     1     -41.666  54.669 -55.326  1.00  0.00     0.052 C 
HETATM    8  C   UNL     1     -40.988  53.995 -52.918  1.00  0.00     0.009 A 
HETATM    9  C   UNL     1     -41.119  54.594 -51.675  1.00  0.00     0.087 A 
HETATM   10  C   UNL     1     -40.356  52.740 -52.990  1.00  0.00     0.051 A 
HETATM   11  O   UNL     1     -41.747  55.795 -51.792  1.00  0.00    -0.304 OA
HETATM   12  C   UNL     1     -40.665  54.026 -50.487  1.00  0.00     0.041 A 
HETATM   13  C   UNL     1     -40.038  52.773 -50.583  1.00  0.00     0.039 A 
HETATM   14  C   UNL     1     -39.883  52.133 -51.817  1.00  0.00     0.069 A 
BRANCH  14  15
HETATM   15  O   UNL     1     -39.290  50.916 -52.021  1.00  0.00    -0.356 OA
HETATM   16  C   UNL     1     -39.480  49.924 -51.021  1.00  0.00     0.210 C 
ENDBRANCH  14  15
ENDBRANCH   1   5
BRANCH   2  17
HETATM   17  C   UNL     1     -44.797  58.227 -54.231  1.00  0.00     0.201 C 
BRANCH  17  18
HETATM   18  C   UNL     1     -44.973  58.236 -55.708  1.00  0.00     0.123 A 
HETATM   19  N   UNL     1     -44.085  58.533 -56.639  1.00  0.00    -0.232 NA
HETATM   20  C   UNL     1     -44.746  58.387 -57.837  1.00  0.00     0.085 A 
HETATM   21  C   UNL     1     -46.064  57.994 -57.635  1.00  0.00     0.062 A 
HETATM   22  C   UNL     1     -44.286  58.573 -59.149  1.00  0.00     0.034 A 
HETATM   23  N   UNL     1     -46.183  57.905 -56.273  1.00  0.00    -0.341 N 
HETATM   24  C   UNL     1     -46.970  57.769 -58.672  1.00  0.00     0.032 A 
HETATM   25  H   UNL     1     -47.018  57.640 -55.771  1.00  0.00     0.167 HD
HETATM   26  C   UNL     1     -46.494  57.959 -59.974  1.00  0.00     0.002 A 
HETATM   27  C   UNL     1     -45.174  58.355 -60.211  1.00  0.00     0.002 A 
ENDBRANCH  17  18
ENDBRANCH   2  17
TORSDOF 4
ENDMDL
MODEL 9
REMARK VINA RESULT:      -7.4      2.776      8.895
REMARK  4 active torsions:
REMARK  status: ('A' for Active; 'I' for Inactive)
REMARK    1  A    between atoms: C_3  and  C_4 
REMARK       I    between atoms: C_4  and  N_5 
REMARK    2  A    between atoms: N_5  and  C_6 
REMARK    3  A    between atoms: C_6  and  C_7 
REMARK    4  A    between atoms: C_23  and  O_24 
ROOT
HETATM    1  C   UNL     1     -42.896  57.582 -56.683  1.00  0.00     0.276 C 
HETATM    2  N   UNL     1     -42.893  56.727 -55.605  1.00  0.00    -0.348 N 
HETATM    3  O   UNL     1     -42.080  58.499 -56.759  1.00  0.00    -0.265 OA
HETATM    4  H   UNL     1     -43.566  55.970 -55.544  1.00  0.00     0.163 HD
ENDROOT
BRANCH   1   5
HETATM    5  C   UNL     1     -43.909  57.317 -57.689  1.00  0.00     0.150 A 
HETATM    6  C   UNL     1     -45.200  57.808 -57.843  1.00  0.00    -0.009 A 
HETATM    7  C   UNL     1     -45.927  58.780 -56.984  1.00  0.00     0.052 C 
HETATM    8  C   UNL     1     -45.722  57.194 -59.022  1.00  0.00     0.009 A 
HETATM    9  C   UNL     1     -44.719  56.368 -59.505  1.00  0.00     0.087 A 
HETATM   10  C   UNL     1     -46.937  57.252 -59.729  1.00  0.00     0.051 A 
HETATM   11  O   UNL     1     -43.622  56.436 -58.704  1.00  0.00    -0.304 OA
HETATM   12  C   UNL     1     -44.841  55.587 -60.652  1.00  0.00     0.041 A 
HETATM   13  C   UNL     1     -46.062  55.662 -61.342  1.00  0.00     0.039 A 
HETATM   14  C   UNL     1     -47.101  56.482 -60.891  1.00  0.00     0.069 A 
BRANCH  14  15
HETATM   15  O   UNL     1     -48.326  56.627 -61.486  1.00  0.00    -0.356 OA
HETATM   16  C   UNL     1     -48.344  56.847 -62.890  1.00  0.00     0.210 C 
ENDBRANCH  14  15
ENDBRANCH   1   5
BRANCH   2  17
HETATM   17  C   UNL     1     -41.934  56.906 -54.549  1.00  0.00     0.201 C 
BRANCH  17  18
HETATM   18  C   UNL     1     -41.370  55.599 -54.117  1.00  0.00     0.123 A 
HETATM   19  N   UNL     1     -41.044  54.559 -54.862  1.00  0.00    -0.232 NA
HETATM   20  C   UNL     1     -40.569  53.611 -53.983  1.00  0.00     0.085 A 
HETATM   21  C   UNL     1     -40.607  54.081 -52.676  1.00  0.00     0.062 A 
HETATM   22  C   UNL     1     -40.085  52.318 -54.227  1.00  0.00     0.034 A 
HETATM   23  N   UNL     1     -41.120  55.346 -52.788  1.00  0.00    -0.341 N 
HETATM   24  C   UNL     1     -40.185  53.334 -51.575  1.00  0.00     0.032 A 
HETATM   25  H   UNL     1     -41.285  55.985 -52.023  1.00  0.00     0.167 HD
HETATM   26  C   UNL     1     -39.705  52.047 -51.837  1.00  0.00     0.002 A 
HETATM   27  C   UNL     1     -39.655  51.544 -53.140  1.00  0.00     0.002 A 
ENDBRANCH  17  18
ENDBRANCH   2  17
TORSDOF 4
ENDMDL
MODEL 10
REMARK VINA RESULT:      -7.4      1.918      2.777
REMARK  4 active torsions:
REMARK  status: ('A' for Active; 'I' for Inactive)
REMARK    1  A    between atoms: C_3  and  C_4 
REMARK       I    between atoms: C_4  and  N_5 
REMARK    2  A    between atoms: N_5  and  C_6 
REMARK    3  A    between atoms: C_6  and  C_7 
REMARK    4  A    between atoms: C_23  and  O_24 
ROOT
HETATM    1  C   UNL     1     -43.285  57.490 -54.300  1.00  0.00     0.276 C 
HETATM    2  N   UNL     1     -42.582  57.913 -55.406  1.00  0.00    -0.348 N 
HETATM    3  O   UNL     1     -44.476  57.768 -54.171  1.00  0.00    -0.265 OA
HETATM    4  H   UNL     1     -41.599  57.682 -55.512  1.00  0.00     0.163 HD
ENDROOT
BRANCH   1   5
HETATM    5  C   UNL     1     -42.527  56.716 -53.335  1.00  0.00     0.150 A 
HETATM    6  C   UNL     1     -42.120  57.010 -52.038  1.00  0.00    -0.009 A 
HETATM    7  C   UNL     1     -42.361  58.250 -51.254  1.00  0.00     0.052 C 
HETATM    8  C   UNL     1     -41.407  55.862 -51.574  1.00  0.00     0.009 A 
HETATM    9  C   UNL     1     -41.423  54.949 -52.617  1.00  0.00     0.087 A 
HETATM   10  C   UNL     1     -40.753  55.503 -50.382  1.00  0.00     0.051 A 
HETATM   11  O   UNL     1     -42.096  55.459 -53.683  1.00  0.00    -0.304 OA
HETATM   12  C   UNL     1     -40.827  53.692 -52.557  1.00  0.00     0.041 A 
HETATM   13  C   UNL     1     -40.179  53.354 -51.357  1.00  0.00     0.039 A 
HETATM   14  C   UNL     1     -40.140  54.244 -50.280  1.00  0.00     0.069 A 
BRANCH  14  15
HETATM   15  O   UNL     1     -39.538  54.016 -49.070  1.00  0.00    -0.356 OA
HETATM   16  C   UNL     1     -40.376  53.986 -47.923  1.00  0.00     0.210 C 
ENDBRANCH  14  15
ENDBRANCH   1   5
BRANCH   2  17
HETATM   17  C   UNL     1     -43.238  58.692 -56.420  1.00  0.00     0.201 C 
BRANCH  17  18
HETATM   18  C   UNL     1     -43.742  57.821 -57.516  1.00  0.00     0.123 A 
HETATM   19  N   UNL     1     -43.113  56.846 -58.145  1.00  0.00    -0.232 NA
HETATM   20  C   UNL     1     -44.015  56.360 -59.065  1.00  0.00     0.085 A 
HETATM   21  C   UNL     1     -45.218  57.051 -58.996  1.00  0.00     0.062 A 
HETATM   22  C   UNL     1     -43.879  55.323 -59.999  1.00  0.00     0.034 A 
HETATM   23  N   UNL     1     -45.019  57.975 -58.004  1.00  0.00    -0.341 N 
HETATM   24  C   UNL     1     -46.316  56.773 -59.811  1.00  0.00     0.032 A 
HETATM   25  H   UNL     1     -45.696  58.652 -57.686  1.00  0.00     0.167 HD
HETATM   26  C   UNL     1     -46.163  55.735 -60.737  1.00  0.00     0.002 A 
HETATM   27  C   UNL     1     -44.966  55.020 -60.832  1.00  0.00     0.002 A 
ENDBRANCH  17  18
ENDBRANCH   2  17
TORSDOF 4
ENDMDL
