MODEL 1
REMARK VINA RESULT:      -7.7      0.000      0.000
REMARK  2 active torsions:
REMARK  status: ('A' for Active; 'I' for Inactive)
REMARK    1  A    between atoms: C_2  and  C_3 
REMARK    2  A    between atoms: C_3  and  N_4 
ROOT
HETATM    1  N   UNL     1     -41.335  55.545 -53.527  1.00  0.00    -0.203 NA
HETATM    2  S   UNL     1     -43.017  55.745 -53.359  1.00  0.00     0.219 S 
HETATM    3  O   UNL     1     -43.506  54.989 -52.237  1.00  0.00    -0.211 OA
HETATM    4  O   UNL     1     -43.593  55.659 -54.684  1.00  0.00    -0.211 OA
HETATM    5  C   UNL     1     -42.956  57.479 -52.979  1.00  0.00     0.164 C 
HETATM    6  C   UNL     1     -41.506  57.906 -53.226  1.00  0.00     0.116 C 
HETATM    7  O   UNL     1     -40.939  58.053 -51.899  1.00  0.00    -0.369 OA
HETATM    8  C   UNL     1     -41.989  58.679 -51.139  1.00  0.00     0.149 C 
HETATM    9  C   UNL     1     -42.030  60.166 -51.560  1.00  0.00     0.264 C 
HETATM   10  N   UNL     1     -42.226  60.302 -53.062  1.00  0.00    -0.070 N 
HETATM   11  H   UNL     1     -43.230  60.239 -53.286  1.00  0.00     0.277 HD
HETATM   12  H   UNL     1     -41.951  61.256 -53.342  1.00  0.00     0.277 HD
HETATM   13  C   UNL     1     -41.425  59.297 -53.881  1.00  0.00     0.273 C 
HETATM   14  C   UNL     1     -40.761  56.821 -54.016  1.00  0.00     0.148 C 
HETATM   15  C   UNL     1     -43.223  57.873 -51.533  1.00  0.00     0.058 C 
ENDROOT
BRANCH   1  16
HETATM   16  C   UNL     1     -40.893  54.360 -54.304  1.00  0.00     0.145 C 
BRANCH  16  17
HETATM   17  C   UNL     1     -40.454  53.190 -53.461  1.00  0.00    -0.044 A 
HETATM   18  C   UNL     1     -40.384  53.306 -52.064  1.00  0.00     0.010 A 
HETATM   19  C   UNL     1     -39.977  52.223 -51.282  1.00  0.00     0.024 A 
HETATM   20  C   UNL     1     -39.633  51.019 -51.893  1.00  0.00     0.034 A 
HETATM   21  C   UNL     1     -39.691  50.890 -53.279  1.00  0.00     0.024 A 
HETATM   22 CL   UNL     1     -39.134  49.685 -50.929  1.00  0.00    -0.084 Cl
HETATM   23  C   UNL     1     -40.099  51.973 -54.062  1.00  0.00     0.010 A 
ENDBRANCH  16  17
ENDBRANCH   1  16
TORSDOF 2
ENDMDL
MODEL 2
REMARK VINA RESULT:      -7.2      2.078      3.264
REMARK  2 active torsions:
REMARK  status: ('A' for Active; 'I' for Inactive)
REMARK    1  A    between atoms: C_2  and  C_3 
REMARK    2  A    between atoms: C_3  and  N_4 
ROOT
HETATM    1  N   UNL     1     -41.796  56.047 -53.042  1.00  0.00    -0.203 NA
HETATM    2  S   UNL     1     -41.540  57.707 -52.764  1.00  0.00     0.219 S 
HETATM    3  O   UNL     1     -40.253  58.109 -53.266  1.00  0.00    -0.211 OA
HETATM    4  O   UNL     1     -41.991  57.991 -51.419  1.00  0.00    -0.211 OA
HETATM    5  C   UNL     1     -42.843  58.271 -53.831  1.00  0.00     0.164 C 
HETATM    6  C   UNL     1     -43.623  57.016 -54.232  1.00  0.00     0.116 C 
HETATM    7  O   UNL     1     -43.221  56.759 -55.603  1.00  0.00    -0.369 OA
HETATM    8  C   UNL     1     -43.170  58.068 -56.200  1.00  0.00     0.149 C 
HETATM    9  C   UNL     1     -44.631  58.512 -56.446  1.00  0.00     0.264 C 
HETATM   10  N   UNL     1     -45.434  58.483 -55.155  1.00  0.00    -0.070 N 
HETATM   11  H   UNL     1     -45.284  59.360 -54.636  1.00  0.00     0.277 HD
HETATM   12  H   UNL     1     -46.437  58.485 -55.395  1.00  0.00     0.277 HD
HETATM   13  C   UNL     1     -45.140  57.275 -54.274  1.00  0.00     0.273 C 
HETATM   14  C   UNL     1     -43.235  55.839 -53.326  1.00  0.00     0.148 C 
HETATM   15  C   UNL     1     -42.424  58.891 -55.156  1.00  0.00     0.058 C 
ENDROOT
BRANCH   1  16
HETATM   16  C   UNL     1     -41.255  55.123 -52.014  1.00  0.00     0.145 C 
BRANCH  16  17
HETATM   17  C   UNL     1     -40.740  53.816 -52.558  1.00  0.00    -0.044 A 
HETATM   18  C   UNL     1     -40.172  52.862 -51.700  1.00  0.00     0.010 A 
HETATM   19  C   UNL     1     -39.694  51.650 -52.203  1.00  0.00     0.024 A 
HETATM   20  C   UNL     1     -39.778  51.386 -53.567  1.00  0.00     0.034 A 
HETATM   21  C   UNL     1     -40.334  52.325 -54.434  1.00  0.00     0.024 A 
HETATM   22 CL   UNL     1     -39.192  49.892 -54.186  1.00  0.00    -0.084 Cl
HETATM   23  C   UNL     1     -40.812  53.537 -53.932  1.00  0.00     0.010 A 
ENDBRANCH  16  17
ENDBRANCH   1  16
TORSDOF 2
ENDMDL
MODEL 3
REMARK VINA RESULT:      -7.2      1.946      3.176
REMARK  2 active torsions:
REMARK  status: ('A' for Active; 'I' for Inactive)
REMARK    1  A    between atoms: C_2  and  C_3 
REMARK    2  A    between atoms: C_3  and  N_4 
ROOT
HETATM    1  N   UNL     1     -42.041  56.118 -51.840  1.00  0.00    -0.203 NA
HETATM    2  S   UNL     1     -41.171  57.522 -52.252  1.00  0.00     0.219 S 
HETATM    3  O   UNL     1     -40.493  57.345 -53.508  1.00  0.00    -0.211 OA
HETATM    4  O   UNL     1     -40.509  57.985 -51.052  1.00  0.00    -0.211 OA
HETATM    5  C   UNL     1     -42.595  58.567 -52.441  1.00  0.00     0.164 C 
HETATM    6  C   UNL     1     -43.781  57.748 -51.924  1.00  0.00     0.116 C 
HETATM    7  O   UNL     1     -44.486  57.331 -53.122  1.00  0.00    -0.369 OA
HETATM    8  C   UNL     1     -44.442  58.491 -53.973  1.00  0.00     0.149 C 
HETATM    9  C   UNL     1     -45.471  59.502 -53.416  1.00  0.00     0.264 C 
HETATM   10  N   UNL     1     -45.182  59.827 -51.958  1.00  0.00    -0.070 N 
HETATM   11  H   UNL     1     -44.467  60.566 -51.904  1.00  0.00     0.277 HD
HETATM   12  H   UNL     1     -46.029  60.245 -51.543  1.00  0.00     0.277 HD
HETATM   13  C   UNL     1     -44.771  58.617 -51.128  1.00  0.00     0.273 C 
HETATM   14  C   UNL     1     -43.281  56.527 -51.139  1.00  0.00     0.148 C 
HETATM   15  C   UNL     1     -42.988  58.940 -53.863  1.00  0.00     0.058 C 
ENDROOT
BRANCH   1  16
HETATM   16  C   UNL     1     -41.276  55.065 -51.126  1.00  0.00     0.145 C 
BRANCH  16  17
HETATM   17  C   UNL     1     -40.888  53.887 -51.982  1.00  0.00    -0.044 A 
HETATM   18  C   UNL     1     -41.386  53.762 -53.289  1.00  0.00     0.010 A 
HETATM   19  C   UNL     1     -41.027  52.671 -54.083  1.00  0.00     0.024 A 
HETATM   20  C   UNL     1     -40.172  51.696 -53.575  1.00  0.00     0.034 A 
HETATM   21  C   UNL     1     -39.675  51.802 -52.277  1.00  0.00     0.024 A 
HETATM   22 CL   UNL     1     -39.729  50.354 -54.555  1.00  0.00    -0.084 Cl
HETATM   23  C   UNL     1     -40.032  52.893 -51.483  1.00  0.00     0.010 A 
ENDBRANCH  16  17
ENDBRANCH   1  16
TORSDOF 2
ENDMDL
MODEL 4
REMARK VINA RESULT:      -6.7     15.204     17.224
REMARK  2 active torsions:
REMARK  status: ('A' for Active; 'I' for Inactive)
REMARK    1  A    between atoms: C_2  and  C_3 
REMARK    2  A    between atoms: C_3  and  N_4 
ROOT
HETATM    1  N   UNL     1     -36.145  41.079 -54.814  1.00  0.00    -0.203 NA
HETATM    2  S   UNL     1     -36.130  41.541 -53.176  1.00  0.00     0.219 S 
HETATM    3  O   UNL     1     -37.268  40.994 -52.487  1.00  0.00    -0.211 OA
HETATM    4  O   UNL     1     -35.773  42.942 -53.128  1.00  0.00    -0.211 OA
HETATM    5  C   UNL     1     -34.647  40.658 -52.753  1.00  0.00     0.164 C 
HETATM    6  C   UNL     1     -34.065  40.167 -54.082  1.00  0.00     0.116 C 
HETATM    7  O   UNL     1     -34.367  38.748 -54.109  1.00  0.00    -0.369 OA
HETATM    8  C   UNL     1     -34.125  38.316 -52.757  1.00  0.00     0.149 C 
HETATM    9  C   UNL     1     -32.592  38.243 -52.571  1.00  0.00     0.264 C 
HETATM   10  N   UNL     1     -31.940  39.580 -52.889  1.00  0.00    -0.070 N 
HETATM   11  H   UNL     1     -31.984  40.190 -52.061  1.00  0.00     0.277 HD
HETATM   12  H   UNL     1     -30.933  39.421 -53.049  1.00  0.00     0.277 HD
HETATM   13  C   UNL     1     -32.530  40.277 -54.108  1.00  0.00     0.273 C 
HETATM   14  C   UNL     1     -34.744  40.886 -55.257  1.00  0.00     0.148 C 
HETATM   15  C   UNL     1     -34.815  39.392 -51.926  1.00  0.00     0.058 C 
ENDROOT
BRANCH   1  16
HETATM   16  C   UNL     1     -36.941  41.939 -55.726  1.00  0.00     0.145 C 
BRANCH  16  17
HETATM   17  C   UNL     1     -37.186  41.344 -57.089  1.00  0.00    -0.044 A 
HETATM   18  C   UNL     1     -36.850  42.060 -58.249  1.00  0.00     0.010 A 
HETATM   19  C   UNL     1     -37.076  41.510 -59.512  1.00  0.00     0.024 A 
HETATM   20  C   UNL     1     -37.643  40.243 -59.624  1.00  0.00     0.034 A 
HETATM   21  C   UNL     1     -37.988  39.522 -58.483  1.00  0.00     0.024 A 
HETATM   22 CL   UNL     1     -37.920  39.566 -61.181  1.00  0.00    -0.084 Cl
HETATM   23  C   UNL     1     -37.761  40.071 -57.219  1.00  0.00     0.010 A 
ENDBRANCH  16  17
ENDBRANCH   1  16
TORSDOF 2
ENDMDL
MODEL 5
REMARK VINA RESULT:      -6.6      1.367      1.987
REMARK  2 active torsions:
REMARK  status: ('A' for Active; 'I' for Inactive)
REMARK    1  A    between atoms: C_2  and  C_3 
REMARK    2  A    between atoms: C_3  and  N_4 
ROOT
HETATM    1  N   UNL     1     -41.977  57.115 -53.761  1.00  0.00    -0.203 NA
HETATM    2  S   UNL     1     -43.650  57.127 -53.451  1.00  0.00     0.219 S 
HETATM    3  O   UNL     1     -43.977  56.196 -52.405  1.00  0.00    -0.211 OA
HETATM    4  O   UNL     1     -44.324  57.148 -54.732  1.00  0.00    -0.211 OA
HETATM    5  C   UNL     1     -43.711  58.800 -52.856  1.00  0.00     0.164 C 
HETATM    6  C   UNL     1     -42.330  59.393 -53.148  1.00  0.00     0.116 C 
HETATM    7  O   UNL     1     -41.670  59.432 -51.856  1.00  0.00    -0.369 OA
HETATM    8  C   UNL     1     -42.705  59.856 -50.950  1.00  0.00     0.149 C 
HETATM    9  C   UNL     1     -42.911  61.372 -51.172  1.00  0.00     0.264 C 
HETATM   10  N   UNL     1     -43.242  61.670 -52.626  1.00  0.00    -0.070 N 
HETATM   11  H   UNL     1     -44.250  61.537 -52.785  1.00  0.00     0.277 HD
HETATM   12  H   UNL     1     -43.075  62.673 -52.799  1.00  0.00     0.277 HD
HETATM   13  C   UNL     1     -42.425  60.855 -53.622  1.00  0.00     0.273 C 
HETATM   14  C   UNL     1     -41.559  58.490 -54.121  1.00  0.00     0.148 C 
HETATM   15  C   UNL     1     -43.891  58.988 -51.357  1.00  0.00     0.058 C 
ENDROOT
BRANCH   1  16
HETATM   16  C   UNL     1     -41.498  56.082 -54.714  1.00  0.00     0.145 C 
BRANCH  16  17
HETATM   17  C   UNL     1     -41.003  54.816 -54.064  1.00  0.00    -0.044 A 
HETATM   18  C   UNL     1     -40.589  53.728 -54.849  1.00  0.00     0.010 A 
HETATM   19  C   UNL     1     -40.130  52.554 -54.249  1.00  0.00     0.024 A 
HETATM   20  C   UNL     1     -40.085  52.458 -52.860  1.00  0.00     0.034 A 
HETATM   21  C   UNL     1     -40.499  53.527 -52.066  1.00  0.00     0.024 A 
HETATM   22 CL   UNL     1     -39.518  51.012 -52.121  1.00  0.00    -0.084 Cl
HETATM   23  C   UNL     1     -40.957  54.702 -52.666  1.00  0.00     0.010 A 
ENDBRANCH  16  17
ENDBRANCH   1  16
TORSDOF 2
ENDMDL
MODEL 6
REMARK VINA RESULT:      -6.6      3.109      4.238
REMARK  2 active torsions:
REMARK  status: ('A' for Active; 'I' for Inactive)
REMARK    1  A    between atoms: C_2  and  C_3 
REMARK    2  A    between atoms: C_3  and  N_4 
ROOT
HETATM    1  N   UNL     1     -42.102  57.237 -54.516  1.00  0.00    -0.203 NA
HETATM    2  S   UNL     1     -42.186  58.920 -54.278  1.00  0.00     0.219 S 
HETATM    3  O   UNL     1     -40.867  59.479 -54.155  1.00  0.00    -0.211 OA
HETATM    4  O   UNL     1     -43.244  59.166 -53.321  1.00  0.00    -0.211 OA
HETATM    5  C   UNL     1     -42.889  59.292 -55.867  1.00  0.00     0.164 C 
HETATM    6  C   UNL     1     -43.249  57.939 -56.487  1.00  0.00     0.116 C 
HETATM    7  O   UNL     1     -42.226  57.714 -57.491  1.00  0.00    -0.369 OA
HETATM    8  C   UNL     1     -42.042  59.008 -58.095  1.00  0.00     0.149 C 
HETATM    9  C   UNL     1     -43.254  59.254 -59.022  1.00  0.00     0.264 C 
HETATM   10  N   UNL     1     -44.561  59.142 -58.252  1.00  0.00    -0.070 N 
HETATM   11  H   UNL     1     -44.767  60.039 -57.791  1.00  0.00     0.277 HD
HETATM   12  H   UNL     1     -45.328  59.009 -58.930  1.00  0.00     0.277 HD
HETATM   13  C   UNL     1     -44.587  57.998 -57.247  1.00  0.00     0.273 C 
HETATM   14  C   UNL     1     -43.208  56.838 -55.418  1.00  0.00     0.148 C 
HETATM   15  C   UNL     1     -41.966  59.939 -56.889  1.00  0.00     0.058 C 
ENDROOT
BRANCH   1  16
HETATM   16  C   UNL     1     -42.011  56.409 -53.288  1.00  0.00     0.145 C 
BRANCH  16  17
HETATM   17  C   UNL     1     -41.370  55.060 -53.490  1.00  0.00    -0.044 A 
HETATM   18  C   UNL     1     -41.376  54.107 -52.459  1.00  0.00     0.010 A 
HETATM   19  C   UNL     1     -40.782  52.857 -52.645  1.00  0.00     0.024 A 
HETATM   20  C   UNL     1     -40.176  52.553 -53.861  1.00  0.00     0.034 A 
HETATM   21  C   UNL     1     -40.156  53.490 -54.893  1.00  0.00     0.024 A 
HETATM   22 CL   UNL     1     -39.447  51.012 -54.091  1.00  0.00    -0.084 Cl
HETATM   23  C   UNL     1     -40.750  54.740 -54.708  1.00  0.00     0.010 A 
ENDBRANCH  16  17
ENDBRANCH   1  16
TORSDOF 2
ENDMDL
MODEL 7
REMARK VINA RESULT:      -6.5     15.307     16.698
REMARK  2 active torsions:
REMARK  status: ('A' for Active; 'I' for Inactive)
REMARK    1  A    between atoms: C_2  and  C_3 
REMARK    2  A    between atoms: C_3  and  N_4 
ROOT
HETATM    1  N   UNL     1     -36.453  41.395 -55.893  1.00  0.00    -0.203 NA
HETATM    2  S   UNL     1     -35.160  40.462 -56.490  1.00  0.00     0.219 S 
HETATM    3  O   UNL     1     -35.036  39.238 -55.745  1.00  0.00    -0.211 OA
HETATM    4  O   UNL     1     -34.052  41.363 -56.724  1.00  0.00    -0.211 OA
HETATM    5  C   UNL     1     -35.876  40.164 -58.089  1.00  0.00     0.164 C 
HETATM    6  C   UNL     1     -37.114  41.063 -58.161  1.00  0.00     0.116 C 
HETATM    7  O   UNL     1     -38.233  40.155 -57.988  1.00  0.00    -0.369 OA
HETATM    8  C   UNL     1     -37.863  38.997 -58.757  1.00  0.00     0.149 C 
HETATM    9  C   UNL     1     -38.062  39.358 -60.247  1.00  0.00     0.264 C 
HETATM   10  N   UNL     1     -37.260  40.595 -60.620  1.00  0.00    -0.070 N 
HETATM   11  H   UNL     1     -36.292  40.324 -60.843  1.00  0.00     0.277 HD
HETATM   12  H   UNL     1     -37.639  40.976 -61.500  1.00  0.00     0.277 HD
HETATM   13  C   UNL     1     -37.284  41.687 -59.558  1.00  0.00     0.273 C 
HETATM   14  C   UNL     1     -37.081  42.103 -57.033  1.00  0.00     0.148 C 
HETATM   15  C   UNL     1     -36.412  38.764 -58.349  1.00  0.00     0.058 C 
ENDROOT
BRANCH   1  16
HETATM   16  C   UNL     1     -36.140  42.282 -54.744  1.00  0.00     0.145 C 
BRANCH  16  17
HETATM   17  C   UNL     1     -36.276  41.626 -53.394  1.00  0.00    -0.044 A 
HETATM   18  C   UNL     1     -35.266  41.766 -52.430  1.00  0.00     0.010 A 
HETATM   19  C   UNL     1     -35.390  41.158 -51.179  1.00  0.00     0.024 A 
HETATM   20  C   UNL     1     -36.524  40.404 -50.886  1.00  0.00     0.034 A 
HETATM   21  C   UNL     1     -37.533  40.250 -51.834  1.00  0.00     0.024 A 
HETATM   22 CL   UNL     1     -36.678  39.658 -49.343  1.00  0.00    -0.084 Cl
HETATM   23  C   UNL     1     -37.409  40.858 -53.086  1.00  0.00     0.010 A 
ENDBRANCH  16  17
ENDBRANCH   1  16
TORSDOF 2
ENDMDL
MODEL 8
REMARK VINA RESULT:      -6.5      5.924      7.056
REMARK  2 active torsions:
REMARK  status: ('A' for Active; 'I' for Inactive)
REMARK    1  A    between atoms: C_2  and  C_3 
REMARK    2  A    between atoms: C_3  and  N_4 
ROOT
HETATM    1  N   UNL     1     -43.698  56.778 -58.086  1.00  0.00    -0.203 NA
HETATM    2  S   UNL     1     -43.598  55.831 -59.498  1.00  0.00     0.219 S 
HETATM    3  O   UNL     1     -43.992  54.475 -59.225  1.00  0.00    -0.211 OA
HETATM    4  O   UNL     1     -42.360  56.180 -60.161  1.00  0.00    -0.211 OA
HETATM    5  C   UNL     1     -44.871  56.697 -60.385  1.00  0.00     0.164 C 
HETATM    6  C   UNL     1     -45.203  57.928 -59.537  1.00  0.00     0.116 C 
HETATM    7  O   UNL     1     -46.475  57.610 -58.916  1.00  0.00    -0.369 OA
HETATM    8  C   UNL     1     -47.219  56.959 -59.962  1.00  0.00     0.149 C 
HETATM    9  C   UNL     1     -47.686  58.060 -60.941  1.00  0.00     0.264 C 
HETATM   10  N   UNL     1     -46.503  58.858 -61.468  1.00  0.00    -0.070 N 
HETATM   11  H   UNL     1     -46.082  58.364 -62.267  1.00  0.00     0.277 HD
HETATM   12  H   UNL     1     -46.857  59.745 -61.860  1.00  0.00     0.277 HD
HETATM   13  C   UNL     1     -45.452  59.171 -60.410  1.00  0.00     0.273 C 
HETATM   14  C   UNL     1     -44.119  58.145 -58.471  1.00  0.00     0.148 C 
HETATM   15  C   UNL     1     -46.204  55.980 -60.543  1.00  0.00     0.058 C 
ENDROOT
BRANCH   1  16
HETATM   16  C   UNL     1     -42.508  56.752 -57.199  1.00  0.00     0.145 C 
BRANCH  16  17
HETATM   17  C   UNL     1     -42.727  56.053 -55.882  1.00  0.00    -0.044 A 
HETATM   18  C   UNL     1     -43.088  56.785 -54.740  1.00  0.00     0.010 A 
HETATM   19  C   UNL     1     -43.291  56.140 -53.518  1.00  0.00     0.024 A 
HETATM   20  C   UNL     1     -43.130  54.760 -53.430  1.00  0.00     0.034 A 
HETATM   21  C   UNL     1     -42.765  54.019 -54.553  1.00  0.00     0.024 A 
HETATM   22 CL   UNL     1     -43.382  53.965 -51.925  1.00  0.00    -0.084 Cl
HETATM   23  C   UNL     1     -42.563  54.664 -55.775  1.00  0.00     0.010 A 
ENDBRANCH  16  17
ENDBRANCH   1  16
TORSDOF 2
ENDMDL
MODEL 9
REMARK VINA RESULT:      -6.4      2.017      2.665
REMARK  2 active torsions:
REMARK  status: ('A' for Active; 'I' for Inactive)
REMARK    1  A    between atoms: C_2  and  C_3 
REMARK    2  A    between atoms: C_3  and  N_4 
ROOT
HETATM    1  N   UNL     1     -43.256  56.447 -53.023  1.00  0.00    -0.203 NA
HETATM    2  S   UNL     1     -43.211  57.255 -51.526  1.00  0.00     0.219 S 
HETATM    3  O   UNL     1     -41.920  57.101 -50.908  1.00  0.00    -0.211 OA
HETATM    4  O   UNL     1     -44.455  56.966 -50.845  1.00  0.00    -0.211 OA
HETATM    5  C   UNL     1     -43.405  58.889 -52.196  1.00  0.00     0.164 C 
HETATM    6  C   UNL     1     -43.732  58.691 -53.679  1.00  0.00     0.116 C 
HETATM    7  O   UNL     1     -42.506  59.038 -54.372  1.00  0.00    -0.369 OA
HETATM    8  C   UNL     1     -42.018  60.190 -53.660  1.00  0.00     0.149 C 
HETATM    9  C   UNL     1     -42.895  61.391 -54.085  1.00  0.00     0.264 C 
HETATM   10  N   UNL     1     -44.366  61.113 -53.820  1.00  0.00    -0.070 N 
HETATM   11  H   UNL     1     -44.588  61.333 -52.839  1.00  0.00     0.277 HD
HETATM   12  H   UNL     1     -44.928  61.777 -54.375  1.00  0.00     0.277 HD
HETATM   13  C   UNL     1     -44.796  59.693 -54.166  1.00  0.00     0.273 C 
HETATM   14  C   UNL     1     -44.111  57.228 -53.948  1.00  0.00     0.148 C 
HETATM   15  C   UNL     1     -42.170  59.778 -52.200  1.00  0.00     0.058 C 
ENDROOT
BRANCH   1  16
HETATM   16  C   UNL     1     -43.599  55.004 -52.975  1.00  0.00     0.145 C 
BRANCH  16  17
HETATM   17  C   UNL     1     -42.417  54.077 -53.098  1.00  0.00    -0.044 A 
HETATM   18  C   UNL     1     -41.673  53.718 -51.963  1.00  0.00     0.010 A 
HETATM   19  C   UNL     1     -40.578  52.860 -52.075  1.00  0.00     0.024 A 
HETATM   20  C   UNL     1     -40.217  52.358 -53.323  1.00  0.00     0.034 A 
HETATM   21  C   UNL     1     -40.940  52.710 -54.460  1.00  0.00     0.024 A 
HETATM   22 CL   UNL     1     -38.868  51.299 -53.460  1.00  0.00    -0.084 Cl
HETATM   23  C   UNL     1     -42.037  53.568 -54.349  1.00  0.00     0.010 A 
ENDBRANCH  16  17
ENDBRANCH   1  16
TORSDOF 2
ENDMDL
MODEL 10
REMARK VINA RESULT:      -6.3     15.602     17.165
REMARK  2 active torsions:
REMARK  status: ('A' for Active; 'I' for Inactive)
REMARK    1  A    between atoms: C_2  and  C_3 
REMARK    2  A    between atoms: C_3  and  N_4 
ROOT
HETATM    1  N   UNL     1     -35.096  40.694 -54.326  1.00  0.00    -0.203 NA
HETATM    2  S   UNL     1     -36.313  41.488 -53.439  1.00  0.00     0.219 S 
HETATM    3  O   UNL     1     -37.608  41.216 -54.003  1.00  0.00    -0.211 OA
HETATM    4  O   UNL     1     -35.836  42.825 -53.158  1.00  0.00    -0.211 OA
HETATM    5  C   UNL     1     -36.068  40.572 -51.937  1.00  0.00     0.164 C 
HETATM    6  C   UNL     1     -34.792  39.754 -52.154  1.00  0.00     0.116 C 
HETATM    7  O   UNL     1     -35.261  38.399 -52.377  1.00  0.00    -0.369 OA
HETATM    8  C   UNL     1     -36.330  38.241 -51.426  1.00  0.00     0.149 C 
HETATM    9  C   UNL     1     -35.679  38.057 -50.037  1.00  0.00     0.264 C 
HETATM   10  N   UNL     1     -34.762  39.224 -49.704  1.00  0.00    -0.070 N 
HETATM   11  H   UNL     1     -35.317  39.997 -49.312  1.00  0.00     0.277 HD
HETATM   12  H   UNL     1     -34.131  38.935 -48.941  1.00  0.00     0.277 HD
HETATM   13  C   UNL     1     -33.925  39.703 -50.884  1.00  0.00     0.273 C 
HETATM   14  C   UNL     1     -34.033  40.273 -53.384  1.00  0.00     0.148 C 
HETATM   15  C   UNL     1     -37.125  39.533 -51.589  1.00  0.00     0.058 C 
ENDROOT
BRANCH   1  16
HETATM   16  C   UNL     1     -34.582  41.416 -55.517  1.00  0.00     0.145 C 
BRANCH  16  17
HETATM   17  C   UNL     1     -35.318  41.114 -56.796  1.00  0.00    -0.044 A 
HETATM   18  C   UNL     1     -35.237  39.840 -57.380  1.00  0.00     0.010 A 
HETATM   19  C   UNL     1     -35.919  39.559 -58.566  1.00  0.00     0.024 A 
HETATM   20  C   UNL     1     -36.683  40.550 -59.177  1.00  0.00     0.034 A 
HETATM   21  C   UNL     1     -36.768  41.822 -58.614  1.00  0.00     0.024 A 
HETATM   22 CL   UNL     1     -37.524  40.202 -60.637  1.00  0.00    -0.084 Cl
HETATM   23  C   UNL     1     -36.087  42.104 -57.427  1.00  0.00     0.010 A 
ENDBRANCH  16  17
ENDBRANCH   1  16
TORSDOF 2
ENDMDL
