MODEL 1
REMARK VINA RESULT:      -8.3      0.000      0.000
REMARK  4 active torsions:
REMARK  status: ('A' for Active; 'I' for Inactive)
REMARK    1  A    between atoms: O_2  and  C_3 
REMARK    2  A    between atoms: C_5  and  C_6 
REMARK    3  A    between atoms: C_10  and  N_11 
REMARK    4  A    between atoms: C_14  and  C_15 
ROOT
HETATM    1  C   UNL     1     -42.100  56.914 -55.882  1.00  0.00     0.164 C 
HETATM    2  N   UNL     1     -43.182  57.357 -55.005  1.00  0.00    -0.074 N 
HETATM    3  C   UNL     1     -43.407  56.847 -53.752  1.00  0.00     0.736 C 
HETATM    4  N   UNL     1     -44.353  57.539 -53.173  1.00  0.00     0.131 NA
HETATM    5  C   UNL     1     -44.649  58.492 -54.102  1.00  0.00     0.753 C 
HETATM    6  N   UNL     1     -43.909  58.471 -55.208  1.00  0.00     0.037 NA
HETATM    7  N   UNL     1     -42.688  55.810 -53.274  1.00  0.00    -0.214 N 
HETATM    8  C   UNL     1     -41.403  55.516 -53.897  1.00  0.00     0.135 C 
HETATM    9  C   UNL     1     -41.559  55.545 -55.425  1.00  0.00     0.063 C 
HETATM   10  H   UNL     1     -42.730  55.667 -52.267  1.00  0.00     0.178 HD
ENDROOT
BRANCH   1  11
HETATM   11  C   UNL     1     -42.465  56.846 -57.359  1.00  0.00    -0.030 A 
HETATM   12  C   UNL     1     -43.176  55.722 -57.831  1.00  0.00     0.046 A 
HETATM   13  C   UNL     1     -43.594  55.643 -59.162  1.00  0.00     0.068 A 
HETATM   14  C   UNL     1     -43.289  56.686 -60.036  1.00  0.00     0.037 A 
HETATM   15  C   UNL     1     -42.593  57.807 -59.586  1.00  0.00     0.003 A 
HETATM   16  C   UNL     1     -42.193  57.893 -58.254  1.00  0.00     0.009 A 
BRANCH  13  17
HETATM   17  O   UNL     1     -44.300  54.614 -59.722  1.00  0.00    -0.356 OA
HETATM   18  C   UNL     1     -44.968  54.882 -60.948  1.00  0.00     0.210 C 
ENDBRANCH  13  17
ENDBRANCH   1  11
BRANCH   8  19
HETATM   19  C   UNL     1     -40.880  54.165 -53.444  1.00  0.00    -0.035 A 
HETATM   20  C   UNL     1     -40.667  53.876 -52.085  1.00  0.00     0.010 A 
HETATM   21  C   UNL     1     -40.224  52.613 -51.684  1.00  0.00     0.019 A 
HETATM   22  C   UNL     1     -39.999  51.625 -52.640  1.00  0.00     0.011 A 
HETATM   23 BR   UNL     1     -39.410  49.912 -52.099  1.00  0.00    -0.051 Br
HETATM   24  C   UNL     1     -40.211  51.888 -53.991  1.00  0.00     0.019 A 
HETATM   25  C   UNL     1     -40.651  53.154 -54.390  1.00  0.00     0.010 A 
ENDBRANCH   8  19
BRANCH   5  26
HETATM   26  N   UNL     1     -45.591  59.386 -53.817  1.00  0.00    -0.229 N 
HETATM   27  H   UNL     1     -45.282  60.326 -53.616  1.00  0.00     0.174 HD
HETATM   28  H   UNL     1     -46.459  59.317 -54.329  1.00  0.00     0.174 HD
ENDBRANCH   5  26
TORSDOF 4
ENDMDL
MODEL 2
REMARK VINA RESULT:      -7.9      1.132      2.077
REMARK  4 active torsions:
REMARK  status: ('A' for Active; 'I' for Inactive)
REMARK    1  A    between atoms: O_2  and  C_3 
REMARK    2  A    between atoms: C_5  and  C_6 
REMARK    3  A    between atoms: C_10  and  N_11 
REMARK    4  A    between atoms: C_14  and  C_15 
ROOT
HETATM    1  C   UNL     1     -42.184  57.037 -55.870  1.00  0.00     0.164 C 
HETATM    2  N   UNL     1     -43.283  57.539 -55.049  1.00  0.00    -0.074 N 
HETATM    3  C   UNL     1     -43.547  57.102 -53.776  1.00  0.00     0.736 C 
HETATM    4  N   UNL     1     -44.500  57.835 -53.262  1.00  0.00     0.131 NA
HETATM    5  C   UNL     1     -44.760  58.738 -54.250  1.00  0.00     0.753 C 
HETATM    6  N   UNL     1     -43.992  58.648 -55.332  1.00  0.00     0.037 NA
HETATM    7  N   UNL     1     -42.852  56.086 -53.222  1.00  0.00    -0.214 N 
HETATM    8  C   UNL     1     -41.555  55.745 -53.794  1.00  0.00     0.135 C 
HETATM    9  C   UNL     1     -41.671  55.690 -55.324  1.00  0.00     0.063 C 
HETATM   10  H   UNL     1     -42.923  56.000 -52.211  1.00  0.00     0.178 HD
ENDROOT
BRANCH   1  11
HETATM   11  C   UNL     1     -42.511  56.891 -57.351  1.00  0.00    -0.030 A 
HETATM   12  C   UNL     1     -42.059  57.883 -58.246  1.00  0.00     0.046 A 
HETATM   13  C   UNL     1     -42.273  57.761 -59.622  1.00  0.00     0.068 A 
HETATM   14  C   UNL     1     -42.957  56.649 -60.110  1.00  0.00     0.037 A 
HETATM   15  C   UNL     1     -43.406  55.656 -59.241  1.00  0.00     0.003 A 
HETATM   16  C   UNL     1     -43.176  55.769 -57.871  1.00  0.00     0.009 A 
BRANCH  13  17
HETATM   17  O   UNL     1     -41.866  58.649 -60.579  1.00  0.00    -0.356 OA
HETATM   18  C   UNL     1     -42.074  60.030 -60.309  1.00  0.00     0.210 C 
ENDBRANCH  13  17
ENDBRANCH   1  11
BRANCH   8  19
HETATM   19  C   UNL     1     -41.059  54.417 -53.252  1.00  0.00    -0.035 A 
HETATM   20  C   UNL     1     -40.622  53.389 -54.106  1.00  0.00     0.010 A 
HETATM   21  C   UNL     1     -40.130  52.189 -53.587  1.00  0.00     0.019 A 
HETATM   22  C   UNL     1     -40.063  52.011 -52.207  1.00  0.00     0.011 A 
HETATM   23 BR   UNL     1     -39.387  50.392 -51.502  1.00  0.00    -0.051 Br
HETATM   24  C   UNL     1     -40.483  53.018 -51.343  1.00  0.00     0.019 A 
HETATM   25  C   UNL     1     -40.979  54.217 -51.864  1.00  0.00     0.010 A 
ENDBRANCH   8  19
BRANCH   5  26
HETATM   26  N   UNL     1     -45.699  59.656 -54.040  1.00  0.00    -0.229 N 
HETATM   27  H   UNL     1     -45.420  60.622 -54.130  1.00  0.00     0.174 HD
HETATM   28  H   UNL     1     -46.630  59.442 -54.367  1.00  0.00     0.174 HD
ENDBRANCH   5  26
TORSDOF 4
ENDMDL
MODEL 3
REMARK VINA RESULT:      -7.9      3.707      6.936
REMARK  4 active torsions:
REMARK  status: ('A' for Active; 'I' for Inactive)
REMARK    1  A    between atoms: O_2  and  C_3 
REMARK    2  A    between atoms: C_5  and  C_6 
REMARK    3  A    between atoms: C_10  and  N_11 
REMARK    4  A    between atoms: C_14  and  C_15 
ROOT
HETATM    1  C   UNL     1     -41.979  56.148 -52.257  1.00  0.00     0.164 C 
HETATM    2  N   UNL     1     -41.148  57.341 -52.104  1.00  0.00    -0.074 N 
HETATM    3  C   UNL     1     -41.043  58.325 -53.054  1.00  0.00     0.736 C 
HETATM    4  N   UNL     1     -40.340  59.314 -52.568  1.00  0.00     0.131 NA
HETATM    5  C   UNL     1     -40.069  58.902 -51.297  1.00  0.00     0.753 C 
HETATM    6  N   UNL     1     -40.604  57.738 -50.939  1.00  0.00     0.037 NA
HETATM    7  N   UNL     1     -41.638  58.207 -54.260  1.00  0.00    -0.214 N 
HETATM    8  C   UNL     1     -42.733  57.254 -54.399  1.00  0.00     0.135 C 
HETATM    9  C   UNL     1     -42.339  55.925 -53.739  1.00  0.00     0.063 C 
HETATM   10  H   UNL     1     -41.735  59.068 -54.793  1.00  0.00     0.178 HD
ENDROOT
BRANCH   1  11
HETATM   11  C   UNL     1     -41.373  54.873 -51.685  1.00  0.00    -0.030 A 
HETATM   12  C   UNL     1     -40.800  53.937 -52.573  1.00  0.00     0.046 A 
HETATM   13  C   UNL     1     -40.171  52.785 -52.095  1.00  0.00     0.068 A 
HETATM   14  C   UNL     1     -40.124  52.553 -50.721  1.00  0.00     0.037 A 
HETATM   15  C   UNL     1     -40.680  53.469 -49.829  1.00  0.00     0.003 A 
HETATM   16  C   UNL     1     -41.291  54.627 -50.306  1.00  0.00     0.009 A 
BRANCH  13  17
HETATM   17  O   UNL     1     -39.571  51.822 -52.859  1.00  0.00    -0.356 OA
HETATM   18  C   UNL     1     -40.183  51.512 -54.105  1.00  0.00     0.210 C 
ENDBRANCH  13  17
ENDBRANCH   1  11
BRANCH   8  19
HETATM   19  C   UNL     1     -43.078  57.038 -55.861  1.00  0.00    -0.035 A 
HETATM   20  C   UNL     1     -42.740  55.850 -56.530  1.00  0.00     0.010 A 
HETATM   21  C   UNL     1     -43.103  55.653 -57.865  1.00  0.00     0.019 A 
HETATM   22  C   UNL     1     -43.818  56.641 -58.538  1.00  0.00     0.011 A 
HETATM   23 BR   UNL     1     -44.320  56.373 -60.341  1.00  0.00    -0.051 Br
HETATM   24  C   UNL     1     -44.170  57.823 -57.892  1.00  0.00     0.019 A 
HETATM   25  C   UNL     1     -43.802  58.020 -56.557  1.00  0.00     0.010 A 
ENDBRANCH   8  19
BRANCH   5  26
HETATM   26  N   UNL     1     -39.357  59.702 -50.508  1.00  0.00    -0.229 N 
HETATM   27  H   UNL     1     -39.869  60.251 -49.833  1.00  0.00     0.174 HD
HETATM   28  H   UNL     1     -38.461  59.357 -50.195  1.00  0.00     0.174 HD
ENDBRANCH   5  26
TORSDOF 4
ENDMDL
MODEL 4
REMARK VINA RESULT:      -7.6      1.866      2.518
REMARK  4 active torsions:
REMARK  status: ('A' for Active; 'I' for Inactive)
REMARK    1  A    between atoms: O_2  and  C_3 
REMARK    2  A    between atoms: C_5  and  C_6 
REMARK    3  A    between atoms: C_10  and  N_11 
REMARK    4  A    between atoms: C_14  and  C_15 
ROOT
HETATM    1  C   UNL     1     -41.925  57.777 -53.611  1.00  0.00     0.164 C 
HETATM    2  N   UNL     1     -43.062  57.707 -52.696  1.00  0.00    -0.074 N 
HETATM    3  C   UNL     1     -43.346  56.617 -51.912  1.00  0.00     0.736 C 
HETATM    4  N   UNL     1     -44.335  56.914 -51.112  1.00  0.00     0.131 NA
HETATM    5  C   UNL     1     -44.598  58.216 -51.417  1.00  0.00     0.753 C 
HETATM    6  N   UNL     1     -43.798  58.770 -52.325  1.00  0.00     0.037 NA
HETATM    7  N   UNL     1     -42.633  55.475 -52.010  1.00  0.00    -0.214 N 
HETATM    8  C   UNL     1     -41.311  55.537 -52.620  1.00  0.00     0.135 C 
HETATM    9  C   UNL     1     -41.383  56.366 -53.911  1.00  0.00     0.063 C 
HETATM   10  H   UNL     1     -42.728  54.826 -51.232  1.00  0.00     0.178 HD
ENDROOT
BRANCH   1  11
HETATM   11  C   UNL     1     -42.206  58.500 -54.923  1.00  0.00    -0.030 A 
HETATM   12  C   UNL     1     -42.775  57.772 -55.989  1.00  0.00     0.046 A 
HETATM   13  C   UNL     1     -43.116  58.402 -57.188  1.00  0.00     0.068 A 
HETATM   14  C   UNL     1     -42.874  59.768 -57.334  1.00  0.00     0.037 A 
HETATM   15  C   UNL     1     -42.318  60.504 -56.289  1.00  0.00     0.003 A 
HETATM   16  C   UNL     1     -41.996  59.877 -55.086  1.00  0.00     0.009 A 
BRANCH  13  17
HETATM   17  O   UNL     1     -43.684  57.802 -58.278  1.00  0.00    -0.356 OA
HETATM   18  C   UNL     1     -43.405  56.422 -58.474  1.00  0.00     0.210 C 
ENDBRANCH  13  17
ENDBRANCH   1  11
BRANCH   8  19
HETATM   19  C   UNL     1     -40.786  54.143 -52.914  1.00  0.00    -0.035 A 
HETATM   20  C   UNL     1     -40.368  53.281 -51.885  1.00  0.00     0.010 A 
HETATM   21  C   UNL     1     -39.928  51.986 -52.173  1.00  0.00     0.019 A 
HETATM   22  C   UNL     1     -39.911  51.540 -53.492  1.00  0.00     0.011 A 
HETATM   23 BR   UNL     1     -39.326  49.785 -53.882  1.00  0.00    -0.051 Br
HETATM   24  C   UNL     1     -40.329  52.375 -54.525  1.00  0.00     0.019 A 
HETATM   25  C   UNL     1     -40.765  53.671 -54.236  1.00  0.00     0.010 A 
ENDBRANCH   8  19
BRANCH   5  26
HETATM   26  N   UNL     1     -45.572  58.839 -50.760  1.00  0.00    -0.229 N 
HETATM   27  H   UNL     1     -45.618  58.688 -49.763  1.00  0.00     0.174 HD
HETATM   28  H   UNL     1     -45.809  59.771 -51.068  1.00  0.00     0.174 HD
ENDBRANCH   5  26
TORSDOF 4
ENDMDL
MODEL 5
REMARK VINA RESULT:      -7.3      3.733      7.140
REMARK  4 active torsions:
REMARK  status: ('A' for Active; 'I' for Inactive)
REMARK    1  A    between atoms: O_2  and  C_3 
REMARK    2  A    between atoms: C_5  and  C_6 
REMARK    3  A    between atoms: C_10  and  N_11 
REMARK    4  A    between atoms: C_14  and  C_15 
ROOT
HETATM    1  C   UNL     1     -42.028  54.413 -53.668  1.00  0.00     0.164 C 
HETATM    2  N   UNL     1     -41.784  55.439 -52.657  1.00  0.00    -0.074 N 
HETATM    3  C   UNL     1     -41.862  56.787 -52.902  1.00  0.00     0.736 C 
HETATM    4  N   UNL     1     -41.726  57.434 -51.774  1.00  0.00     0.131 NA
HETATM    5  C   UNL     1     -41.607  56.432 -50.857  1.00  0.00     0.753 C 
HETATM    6  N   UNL     1     -41.712  55.195 -51.335  1.00  0.00     0.037 NA
HETATM    7  N   UNL     1     -42.079  57.266 -54.145  1.00  0.00    -0.214 N 
HETATM    8  C   UNL     1     -42.656  56.368 -55.139  1.00  0.00     0.135 C 
HETATM    9  C   UNL     1     -41.933  55.014 -55.084  1.00  0.00     0.063 C 
HETATM   10  H   UNL     1     -42.382  58.235 -54.200  1.00  0.00     0.178 HD
ENDROOT
BRANCH   1  11
HETATM   11  C   UNL     1     -41.118  53.195 -53.573  1.00  0.00    -0.030 A 
HETATM   12  C   UNL     1     -40.658  52.791 -52.302  1.00  0.00     0.046 A 
HETATM   13  C   UNL     1     -39.877  51.642 -52.152  1.00  0.00     0.068 A 
HETATM   14  C   UNL     1     -39.538  50.896 -53.280  1.00  0.00     0.037 A 
HETATM   15  C   UNL     1     -39.988  51.277 -54.544  1.00  0.00     0.003 A 
HETATM   16  C   UNL     1     -40.783  52.414 -54.689  1.00  0.00     0.009 A 
BRANCH  13  17
HETATM   17  O   UNL     1     -39.392  51.149 -50.973  1.00  0.00    -0.356 OA
HETATM   18  C   UNL     1     -39.690  49.792 -50.669  1.00  0.00     0.210 C 
ENDBRANCH  13  17
ENDBRANCH   1  11
BRANCH   8  19
HETATM   19  C   UNL     1     -42.555  56.967 -56.530  1.00  0.00    -0.035 A 
HETATM   20  C   UNL     1     -42.847  56.213 -57.680  1.00  0.00     0.010 A 
HETATM   21  C   UNL     1     -42.788  56.794 -58.949  1.00  0.00     0.019 A 
HETATM   22  C   UNL     1     -42.446  58.138 -59.078  1.00  0.00     0.011 A 
HETATM   23 BR   UNL     1     -42.377  58.929 -60.793  1.00  0.00    -0.051 Br
HETATM   24  C   UNL     1     -42.160  58.905 -57.951  1.00  0.00     0.019 A 
HETATM   25  C   UNL     1     -42.215  58.321 -56.682  1.00  0.00     0.010 A 
ENDBRANCH   8  19
BRANCH   5  26
HETATM   26  N   UNL     1     -41.458  56.757 -49.577  1.00  0.00    -0.229 N 
HETATM   27  H   UNL     1     -41.389  57.741 -49.361  1.00  0.00     0.174 HD
HETATM   28  H   UNL     1     -41.960  56.200 -48.901  1.00  0.00     0.174 HD
ENDBRANCH   5  26
TORSDOF 4
ENDMDL
MODEL 6
REMARK VINA RESULT:      -7.1      2.065      2.802
REMARK  4 active torsions:
REMARK  status: ('A' for Active; 'I' for Inactive)
REMARK    1  A    between atoms: O_2  and  C_3 
REMARK    2  A    between atoms: C_5  and  C_6 
REMARK    3  A    between atoms: C_10  and  N_11 
REMARK    4  A    between atoms: C_14  and  C_15 
ROOT
HETATM    1  C   UNL     1     -42.082  57.247 -54.303  1.00  0.00     0.164 C 
HETATM    2  N   UNL     1     -43.089  57.394 -53.255  1.00  0.00    -0.074 N 
HETATM    3  C   UNL     1     -43.264  56.497 -52.232  1.00  0.00     0.736 C 
HETATM    4  N   UNL     1     -44.142  56.975 -51.391  1.00  0.00     0.131 NA
HETATM    5  C   UNL     1     -44.448  58.192 -51.924  1.00  0.00     0.753 C 
HETATM    6  N   UNL     1     -43.775  58.528 -53.022  1.00  0.00     0.037 NA
HETATM    7  N   UNL     1     -42.566  55.343 -52.181  1.00  0.00    -0.214 N 
HETATM    8  C   UNL     1     -41.334  55.246 -52.955  1.00  0.00     0.135 C 
HETATM    9  C   UNL     1     -41.578  55.792 -54.370  1.00  0.00     0.063 C 
HETATM   10  H   UNL     1     -42.556  54.871 -51.280  1.00  0.00     0.178 HD
ENDROOT
BRANCH   1  11
HETATM   11  C   UNL     1     -42.535  57.689 -55.689  1.00  0.00    -0.030 A 
HETATM   12  C   UNL     1     -42.140  58.959 -56.158  1.00  0.00     0.046 A 
HETATM   13  C   UNL     1     -42.470  59.385 -57.447  1.00  0.00     0.068 A 
HETATM   14  C   UNL     1     -43.216  58.544 -58.273  1.00  0.00     0.037 A 
HETATM   15  C   UNL     1     -43.610  57.283 -57.828  1.00  0.00     0.003 A 
HETATM   16  C   UNL     1     -43.263  56.852 -56.549  1.00  0.00     0.009 A 
BRANCH  13  17
HETATM   17  O   UNL     1     -42.128  60.583 -58.010  1.00  0.00    -0.356 OA
HETATM   18  C   UNL     1     -42.158  60.662 -59.429  1.00  0.00     0.210 C 
ENDBRANCH  13  17
ENDBRANCH   1  11
BRANCH   8  19
HETATM   19  C   UNL     1     -40.847  53.810 -53.017  1.00  0.00    -0.035 A 
HETATM   20  C   UNL     1     -40.872  53.075 -54.215  1.00  0.00     0.010 A 
HETATM   21  C   UNL     1     -40.380  51.768 -54.261  1.00  0.00     0.019 A 
HETATM   22  C   UNL     1     -39.851  51.188 -53.111  1.00  0.00     0.011 A 
HETATM   23 BR   UNL     1     -39.175  49.424 -53.173  1.00  0.00    -0.051 Br
HETATM   24  C   UNL     1     -39.810  51.902 -51.916  1.00  0.00     0.019 A 
HETATM   25  C   UNL     1     -40.306  53.208 -51.870  1.00  0.00     0.010 A 
ENDBRANCH   8  19
BRANCH   5  26
HETATM   26  N   UNL     1     -45.330  58.960 -51.291  1.00  0.00    -0.229 N 
HETATM   27  H   UNL     1     -45.776  59.685 -51.834  1.00  0.00     0.174 HD
HETATM   28  H   UNL     1     -45.917  58.512 -50.602  1.00  0.00     0.174 HD
ENDBRANCH   5  26
TORSDOF 4
ENDMDL
MODEL 7
REMARK VINA RESULT:      -7.1      4.026      7.023
REMARK  4 active torsions:
REMARK  status: ('A' for Active; 'I' for Inactive)
REMARK    1  A    between atoms: O_2  and  C_3 
REMARK    2  A    between atoms: C_5  and  C_6 
REMARK    3  A    between atoms: C_10  and  N_11 
REMARK    4  A    between atoms: C_14  and  C_15 
ROOT
HETATM    1  C   UNL     1     -41.152  56.256 -54.154  1.00  0.00     0.164 C 
HETATM    2  N   UNL     1     -42.126  56.214 -55.242  1.00  0.00    -0.074 N 
HETATM    3  C   UNL     1     -42.979  57.246 -55.543  1.00  0.00     0.736 C 
HETATM    4  N   UNL     1     -43.624  56.959 -56.643  1.00  0.00     0.131 NA
HETATM    5  C   UNL     1     -43.100  55.753 -57.001  1.00  0.00     0.753 C 
HETATM    6  N   UNL     1     -42.127  55.290 -56.220  1.00  0.00     0.037 NA
HETATM    7  N   UNL     1     -43.043  58.354 -54.775  1.00  0.00    -0.214 N 
HETATM    8  C   UNL     1     -41.921  58.647 -53.892  1.00  0.00     0.135 C 
HETATM    9  C   UNL     1     -41.509  57.367 -53.149  1.00  0.00     0.063 C 
HETATM   10  H   UNL     1     -43.491  59.163 -55.200  1.00  0.00     0.178 HD
ENDROOT
BRANCH   1  11
HETATM   11  C   UNL     1     -40.972  54.938 -53.410  1.00  0.00    -0.030 A 
HETATM   12  C   UNL     1     -40.316  53.874 -54.063  1.00  0.00     0.046 A 
HETATM   13  C   UNL     1     -40.065  52.670 -53.401  1.00  0.00     0.068 A 
HETATM   14  C   UNL     1     -40.486  52.516 -52.081  1.00  0.00     0.037 A 
HETATM   15  C   UNL     1     -41.130  53.559 -51.417  1.00  0.00     0.003 A 
HETATM   16  C   UNL     1     -41.363  54.767 -52.073  1.00  0.00     0.009 A 
BRANCH  13  17
HETATM   17  O   UNL     1     -39.426  51.582 -53.929  1.00  0.00    -0.356 OA
HETATM   18  C   UNL     1     -40.227  50.446 -54.230  1.00  0.00     0.210 C 
ENDBRANCH  13  17
ENDBRANCH   1  11
BRANCH   8  19
HETATM   19  C   UNL     1     -42.282  59.741 -52.904  1.00  0.00    -0.035 A 
HETATM   20  C   UNL     1     -41.933  59.652 -51.545  1.00  0.00     0.010 A 
HETATM   21  C   UNL     1     -42.238  60.689 -50.660  1.00  0.00     0.019 A 
HETATM   22  C   UNL     1     -42.888  61.828 -51.129  1.00  0.00     0.011 A 
HETATM   23 BR   UNL     1     -43.292  63.236 -49.934  1.00  0.00    -0.051 Br
HETATM   24  C   UNL     1     -43.236  61.939 -52.472  1.00  0.00     0.019 A 
HETATM   25  C   UNL     1     -42.934  60.900 -53.356  1.00  0.00     0.010 A 
ENDBRANCH   8  19
BRANCH   5  26
HETATM   26  N   UNL     1     -43.546  55.170 -58.110  1.00  0.00    -0.229 N 
HETATM   27  H   UNL     1     -42.959  54.457 -58.519  1.00  0.00     0.174 HD
HETATM   28  H   UNL     1     -44.539  54.999 -58.171  1.00  0.00     0.174 HD
ENDBRANCH   5  26
TORSDOF 4
ENDMDL
MODEL 8
REMARK VINA RESULT:      -7.0      4.653      8.000
REMARK  4 active torsions:
REMARK  status: ('A' for Active; 'I' for Inactive)
REMARK    1  A    between atoms: O_2  and  C_3 
REMARK    2  A    between atoms: C_5  and  C_6 
REMARK    3  A    between atoms: C_10  and  N_11 
REMARK    4  A    between atoms: C_14  and  C_15 
ROOT
HETATM    1  C   UNL     1     -41.596  56.225 -52.021  1.00  0.00     0.164 C 
HETATM    2  N   UNL     1     -42.530  55.839 -53.077  1.00  0.00    -0.074 N 
HETATM    3  C   UNL     1     -43.537  56.648 -53.539  1.00  0.00     0.736 C 
HETATM    4  N   UNL     1     -44.105  56.077 -54.568  1.00  0.00     0.131 NA
HETATM    5  C   UNL     1     -43.380  54.932 -54.723  1.00  0.00     0.753 C 
HETATM    6  N   UNL     1     -42.359  54.776 -53.885  1.00  0.00     0.037 NA
HETATM    7  N   UNL     1     -43.799  57.842 -52.967  1.00  0.00    -0.214 N 
HETATM    8  C   UNL     1     -42.758  58.463 -52.158  1.00  0.00     0.135 C 
HETATM    9  C   UNL     1     -42.152  57.414 -51.213  1.00  0.00     0.063 C 
HETATM   10  H   UNL     1     -44.367  58.482 -53.518  1.00  0.00     0.178 HD
ENDROOT
BRANCH   1  11
HETATM   11  C   UNL     1     -41.214  55.100 -51.067  1.00  0.00    -0.030 A 
HETATM   12  C   UNL     1     -40.649  53.922 -51.599  1.00  0.00     0.046 A 
HETATM   13  C   UNL     1     -40.218  52.890 -50.762  1.00  0.00     0.068 A 
HETATM   14  C   UNL     1     -40.365  53.023 -49.382  1.00  0.00     0.037 A 
HETATM   15  C   UNL     1     -40.917  54.183 -48.838  1.00  0.00     0.003 A 
HETATM   16  C   UNL     1     -41.329  55.220 -49.673  1.00  0.00     0.009 A 
BRANCH  13  17
HETATM   17  O   UNL     1     -39.643  51.716 -51.165  1.00  0.00    -0.356 OA
HETATM   18  C   UNL     1     -39.551  51.490 -52.566  1.00  0.00     0.210 C 
ENDBRANCH  13  17
ENDBRANCH   1  11
BRANCH   8  19
HETATM   19  C   UNL     1     -43.315  59.631 -51.365  1.00  0.00    -0.035 A 
HETATM   20  C   UNL     1     -44.641  59.639 -50.898  1.00  0.00     0.010 A 
HETATM   21  C   UNL     1     -45.122  60.705 -50.134  1.00  0.00     0.019 A 
HETATM   22  C   UNL     1     -44.278  61.768 -49.822  1.00  0.00     0.011 A 
HETATM   23 BR   UNL     1     -44.924  63.206 -48.779  1.00  0.00    -0.051 Br
HETATM   24  C   UNL     1     -42.959  61.776 -50.268  1.00  0.00     0.019 A 
HETATM   25  C   UNL     1     -42.480  60.711 -51.036  1.00  0.00     0.010 A 
ENDBRANCH   8  19
BRANCH   5  26
HETATM   26  N   UNL     1     -43.702  54.105 -55.713  1.00  0.00    -0.229 N 
HETATM   27  H   UNL     1     -42.998  53.441 -56.000  1.00  0.00     0.174 HD
HETATM   28  H   UNL     1     -44.653  53.765 -55.736  1.00  0.00     0.174 HD
ENDBRANCH   5  26
TORSDOF 4
ENDMDL
MODEL 9
REMARK VINA RESULT:      -7.0      3.610      5.725
REMARK  4 active torsions:
REMARK  status: ('A' for Active; 'I' for Inactive)
REMARK    1  A    between atoms: O_2  and  C_3 
REMARK    2  A    between atoms: C_5  and  C_6 
REMARK    3  A    between atoms: C_10  and  N_11 
REMARK    4  A    between atoms: C_14  and  C_15 
ROOT
HETATM    1  C   UNL     1     -43.974  57.609 -52.396  1.00  0.00     0.164 C 
HETATM    2  N   UNL     1     -44.366  57.953 -53.761  1.00  0.00    -0.074 N 
HETATM    3  C   UNL     1     -44.154  57.140 -54.845  1.00  0.00     0.736 C 
HETATM    4  N   UNL     1     -44.734  57.664 -55.893  1.00  0.00     0.131 NA
HETATM    5  C   UNL     1     -45.325  58.784 -55.388  1.00  0.00     0.753 C 
HETATM    6  N   UNL     1     -45.194  58.966 -54.077  1.00  0.00     0.037 NA
HETATM    7  N   UNL     1     -43.466  55.984 -54.734  1.00  0.00    -0.214 N 
HETATM    8  C   UNL     1     -43.326  55.389 -53.410  1.00  0.00     0.135 C 
HETATM    9  C   UNL     1     -42.929  56.477 -52.402  1.00  0.00     0.063 C 
HETATM   10  H   UNL     1     -43.578  55.325 -55.502  1.00  0.00     0.178 HD
ENDROOT
BRANCH   1  11
HETATM   11  C   UNL     1     -43.451  58.777 -51.570  1.00  0.00    -0.030 A 
HETATM   12  C   UNL     1     -42.094  58.780 -51.183  1.00  0.00     0.046 A 
HETATM   13  C   UNL     1     -41.548  59.859 -50.484  1.00  0.00     0.068 A 
HETATM   14  C   UNL     1     -42.364  60.940 -50.153  1.00  0.00     0.037 A 
HETATM   15  C   UNL     1     -43.706  60.958 -50.532  1.00  0.00     0.003 A 
HETATM   16  C   UNL     1     -44.244  59.888 -51.246  1.00  0.00     0.009 A 
BRANCH  13  17
HETATM   17  O   UNL     1     -40.249  59.976 -50.074  1.00  0.00    -0.356 OA
HETATM   18  C   UNL     1     -39.259  59.354 -50.884  1.00  0.00     0.210 C 
ENDBRANCH  13  17
ENDBRANCH   1  11
BRANCH   8  19
HETATM   19  C   UNL     1     -42.292  54.277 -53.425  1.00  0.00    -0.035 A 
HETATM   20  C   UNL     1     -41.528  53.967 -52.287  1.00  0.00     0.010 A 
HETATM   21  C   UNL     1     -40.611  52.912 -52.308  1.00  0.00     0.019 A 
HETATM   22  C   UNL     1     -40.459  52.153 -53.466  1.00  0.00     0.011 A 
HETATM   23 BR   UNL     1     -39.227  50.719 -53.493  1.00  0.00    -0.051 Br
HETATM   24  C   UNL     1     -41.212  52.439 -54.601  1.00  0.00     0.019 A 
HETATM   25  C   UNL     1     -42.126  53.496 -54.580  1.00  0.00     0.010 A 
ENDBRANCH   8  19
BRANCH   5  26
HETATM   26  N   UNL     1     -46.022  59.561 -56.212  1.00  0.00    -0.229 N 
HETATM   27  H   UNL     1     -47.011  59.650 -56.028  1.00  0.00     0.174 HD
HETATM   28  H   UNL     1     -45.567  60.398 -56.547  1.00  0.00     0.174 HD
ENDBRANCH   5  26
TORSDOF 4
ENDMDL
MODEL 10
REMARK VINA RESULT:      -6.9      3.563      6.064
REMARK  4 active torsions:
REMARK  status: ('A' for Active; 'I' for Inactive)
REMARK    1  A    between atoms: O_2  and  C_3 
REMARK    2  A    between atoms: C_5  and  C_6 
REMARK    3  A    between atoms: C_10  and  N_11 
REMARK    4  A    between atoms: C_14  and  C_15 
ROOT
HETATM    1  C   UNL     1     -44.619  57.767 -52.979  1.00  0.00     0.164 C 
HETATM    2  N   UNL     1     -44.617  58.147 -54.390  1.00  0.00    -0.074 N 
HETATM    3  C   UNL     1     -44.073  57.378 -55.388  1.00  0.00     0.736 C 
HETATM    4  N   UNL     1     -44.349  57.921 -56.544  1.00  0.00     0.131 NA
HETATM    5  C   UNL     1     -45.102  59.005 -56.203  1.00  0.00     0.753 C 
HETATM    6  N   UNL     1     -45.358  59.146 -54.905  1.00  0.00     0.037 NA
HETATM    7  N   UNL     1     -43.402  56.240 -55.113  1.00  0.00    -0.214 N 
HETATM    8  C   UNL     1     -43.624  55.604 -53.820  1.00  0.00     0.135 C 
HETATM    9  C   UNL     1     -43.573  56.667 -52.713  1.00  0.00     0.063 C 
HETATM   10  H   UNL     1     -43.266  55.605 -55.896  1.00  0.00     0.178 HD
ENDROOT
BRANCH   1  11
HETATM   11  C   UNL     1     -44.398  58.921 -52.009  1.00  0.00    -0.030 A 
HETATM   12  C   UNL     1     -45.387  59.190 -51.040  1.00  0.00     0.046 A 
HETATM   13  C   UNL     1     -45.203  60.192 -50.083  1.00  0.00     0.068 A 
HETATM   14  C   UNL     1     -44.029  60.944 -50.101  1.00  0.00     0.037 A 
HETATM   15  C   UNL     1     -43.038  60.688 -51.047  1.00  0.00     0.003 A 
HETATM   16  C   UNL     1     -43.215  59.676 -51.989  1.00  0.00     0.009 A 
BRANCH  13  17
HETATM   17  O   UNL     1     -46.083  60.528 -49.092  1.00  0.00    -0.356 OA
HETATM   18  C   UNL     1     -45.531  60.877 -47.829  1.00  0.00     0.210 C 
ENDBRANCH  13  17
ENDBRANCH   1  11
BRANCH   8  19
HETATM   19  C   UNL     1     -42.588  54.524 -53.565  1.00  0.00    -0.035 A 
HETATM   20  C   UNL     1     -42.086  53.724 -54.606  1.00  0.00     0.010 A 
HETATM   21  C   UNL     1     -41.102  52.763 -54.357  1.00  0.00     0.019 A 
HETATM   22  C   UNL     1     -40.606  52.601 -53.066  1.00  0.00     0.011 A 
HETATM   23 BR   UNL     1     -39.267  51.309 -52.730  1.00  0.00    -0.051 Br
HETATM   24  C   UNL     1     -41.084  53.388 -52.022  1.00  0.00     0.019 A 
HETATM   25  C   UNL     1     -42.071  54.346 -52.271  1.00  0.00     0.010 A 
ENDBRANCH   8  19
BRANCH   5  26
HETATM   26  N   UNL     1     -45.563  59.790 -57.172  1.00  0.00    -0.229 N 
HETATM   27  H   UNL     1     -46.290  60.444 -56.923  1.00  0.00     0.174 HD
HETATM   28  H   UNL     1     -44.892  60.125 -57.848  1.00  0.00     0.174 HD
ENDBRANCH   5  26
TORSDOF 4
ENDMDL
