MODEL 1
REMARK VINA RESULT:      -8.2      0.000      0.000
REMARK  9 active torsions:
REMARK  status: ('A' for Active; 'I' for Inactive)
REMARK    1  A    between atoms: O_2  and  C_3 
REMARK    2  A    between atoms: C_6  and  C_7 
REMARK    3  A    between atoms: C_13  and  C_14 
REMARK       I    between atoms: C_14  and  N_15 
REMARK    4  A    between atoms: N_15  and  N_16 
REMARK    5  A    between atoms: N_16  and  C_17 
REMARK    6  A    between atoms: C_17  and  N_18 
REMARK    7  A    between atoms: N_18  and  C_19 
REMARK    8  A    between atoms: C_19  and  C_20 
REMARK    9  A    between atoms: C_27  and  C_28 
ROOT
HETATM    1  C   UNL     1     -40.973  55.438 -53.448  1.00  0.00     0.118 C 
HETATM    2  N   UNL     1     -41.670  55.482 -54.725  1.00  0.00    -0.365 N 
HETATM    3  C   UNL     1     -42.454  56.531 -55.073  1.00  0.00     0.138 A 
HETATM    4  N   UNL     1     -42.785  57.489 -54.152  1.00  0.00    -0.240 N 
HETATM    5  N   UNL     1     -43.661  58.399 -54.608  1.00  0.00    -0.181 NA
HETATM    6  C   UNL     1     -43.849  58.022 -55.878  1.00  0.00     0.160 A 
HETATM    7  C   UNL     1     -43.074  56.893 -56.253  1.00  0.00     0.098 A 
HETATM    8  C   UNL     1     -42.292  57.513 -52.787  1.00  0.00     0.221 C 
HETATM    9  C   UNL     1     -41.853  56.097 -52.364  1.00  0.00     0.066 C 
HETATM   10  H   UNL     1     -41.401  54.784 -55.424  1.00  0.00     0.161 HD
ENDROOT
BRANCH   7  11
HETATM   11  C   UNL     1     -42.962  56.196 -57.522  1.00  0.00     0.275 C 
HETATM   12  N   UNL     1     -42.441  56.868 -58.612  1.00  0.00    -0.263 N 
HETATM   13  H   UNL     1     -42.345  56.315 -59.462  1.00  0.00     0.190 HD
HETATM   14  O   UNL     1     -43.293  55.017 -57.654  1.00  0.00    -0.266 OA
BRANCH  12  15
HETATM   15  N   UNL     1     -41.654  58.034 -58.542  1.00  0.00    -0.274 N 
HETATM   16  H   UNL     1     -40.672  57.920 -58.777  1.00  0.00     0.189 HD
BRANCH  15  17
HETATM   17  C   UNL     1     -42.209  59.243 -58.897  1.00  0.00     0.186 C 
HETATM   18  S   UNL     1     -41.644  60.746 -58.434  1.00  0.00    -0.040 SA
BRANCH  17  19
HETATM   19  N   UNL     1     -43.290  59.181 -59.726  1.00  0.00    -0.364 N 
HETATM   20  H   UNL     1     -43.105  58.642 -60.571  1.00  0.00     0.162 HD
BRANCH  19  21
HETATM   21  C   UNL     1     -44.693  59.172 -59.319  1.00  0.00     0.154 C 
BRANCH  21  22
HETATM   22  C   UNL     1     -45.508  58.217 -60.193  1.00  0.00     0.139 C 
HETATM   23  O   UNL     1     -44.747  57.014 -60.441  1.00  0.00    -0.384 OA
HETATM   24  C   UNL     1     -45.616  55.883 -60.288  1.00  0.00     0.168 C 
HETATM   25  C   UNL     1     -47.027  56.424 -60.203  1.00  0.00     0.029 C 
HETATM   26  C   UNL     1     -46.810  57.767 -59.550  1.00  0.00     0.035 C 
ENDBRANCH  21  22
ENDBRANCH  19  21
ENDBRANCH  17  19
ENDBRANCH  15  17
ENDBRANCH  12  15
ENDBRANCH   7  11
BRANCH   1  27
HETATM   27  C   UNL     1     -40.574  54.008 -53.134  1.00  0.00    -0.035 A 
HETATM   28  C   UNL     1     -40.432  53.086 -54.184  1.00  0.00     0.012 A 
HETATM   29  C   UNL     1     -40.046  51.762 -53.941  1.00  0.00     0.037 A 
HETATM   30  C   UNL     1     -39.798  51.333 -52.639  1.00  0.00     0.068 A 
HETATM   31  C   UNL     1     -39.977  52.229 -51.585  1.00  0.00     0.037 A 
HETATM   32  C   UNL     1     -40.369  53.551 -51.825  1.00  0.00     0.012 A 
BRANCH  30  33
HETATM   33  O   UNL     1     -39.394  50.081 -52.268  1.00  0.00    -0.356 OA
HETATM   34  C   UNL     1     -39.437  49.782 -50.877  1.00  0.00     0.210 C 
ENDBRANCH  30  33
ENDBRANCH   1  27
BRANCH   8  35
HETATM   35  C   UNL     1     -41.174  58.523 -52.666  1.00  0.00     0.409 C 
HETATM   36  F   UNL     1     -40.262  58.200 -51.723  1.00  0.00    -0.169 F 
HETATM   37  F   UNL     1     -40.509  58.709 -53.828  1.00  0.00    -0.169 F 
HETATM   38  F   UNL     1     -41.679  59.734 -52.316  1.00  0.00    -0.169 F 
ENDBRANCH   8  35
TORSDOF 9
ENDMDL
MODEL 2
REMARK VINA RESULT:      -8.2      4.544      7.120
REMARK  9 active torsions:
REMARK  status: ('A' for Active; 'I' for Inactive)
REMARK    1  A    between atoms: O_2  and  C_3 
REMARK    2  A    between atoms: C_6  and  C_7 
REMARK    3  A    between atoms: C_13  and  C_14 
REMARK       I    between atoms: C_14  and  N_15 
REMARK    4  A    between atoms: N_15  and  N_16 
REMARK    5  A    between atoms: N_16  and  C_17 
REMARK    6  A    between atoms: C_17  and  N_18 
REMARK    7  A    between atoms: N_18  and  C_19 
REMARK    8  A    between atoms: C_19  and  C_20 
REMARK    9  A    between atoms: C_27  and  C_28 
ROOT
HETATM    1  C   UNL     1     -41.578  55.055 -53.755  1.00  0.00     0.118 C 
HETATM    2  N   UNL     1     -41.290  56.182 -52.881  1.00  0.00    -0.365 N 
HETATM    3  C   UNL     1     -41.428  57.462 -53.301  1.00  0.00     0.138 A 
HETATM    4  N   UNL     1     -41.643  57.743 -54.624  1.00  0.00    -0.240 N 
HETATM    5  N   UNL     1     -41.642  59.055 -54.907  1.00  0.00    -0.181 NA
HETATM    6  C   UNL     1     -41.464  59.619 -53.707  1.00  0.00     0.160 A 
HETATM    7  C   UNL     1     -41.385  58.679 -52.647  1.00  0.00     0.098 A 
HETATM    8  C   UNL     1     -41.807  56.734 -55.655  1.00  0.00     0.221 C 
HETATM    9  C   UNL     1     -41.162  55.410 -55.198  1.00  0.00     0.066 C 
HETATM   10  H   UNL     1     -41.158  55.976 -51.887  1.00  0.00     0.161 HD
ENDROOT
BRANCH   7  11
HETATM   11  C   UNL     1     -41.230  58.870 -51.215  1.00  0.00     0.275 C 
HETATM   12  N   UNL     1     -42.358  58.916 -50.419  1.00  0.00    -0.263 N 
HETATM   13  H   UNL     1     -42.185  59.007 -49.418  1.00  0.00     0.190 HD
HETATM   14  O   UNL     1     -40.123  58.969 -50.684  1.00  0.00    -0.266 OA
BRANCH  12  15
HETATM   15  N   UNL     1     -43.625  58.419 -50.783  1.00  0.00    -0.274 N 
HETATM   16  H   UNL     1     -43.889  57.532 -50.366  1.00  0.00     0.189 HD
BRANCH  15  17
HETATM   17  C   UNL     1     -44.660  59.304 -50.992  1.00  0.00     0.186 C 
HETATM   18  S   UNL     1     -45.325  59.690 -52.475  1.00  0.00    -0.040 SA
BRANCH  17  19
HETATM   19  N   UNL     1     -45.192  59.873 -49.872  1.00  0.00    -0.364 N 
HETATM   20  H   UNL     1     -45.137  59.261 -49.058  1.00  0.00     0.162 HD
BRANCH  19  21
HETATM   21  C   UNL     1     -45.190  61.295 -49.540  1.00  0.00     0.154 C 
BRANCH  21  22
HETATM   22  C   UNL     1     -45.876  61.542 -48.195  1.00  0.00     0.139 C 
HETATM   23  O   UNL     1     -46.118  60.281 -47.534  1.00  0.00    -0.384 OA
HETATM   24  C   UNL     1     -45.768  60.416 -46.149  1.00  0.00     0.168 C 
HETATM   25  C   UNL     1     -45.553  61.892 -45.894  1.00  0.00     0.029 C 
HETATM   26  C   UNL     1     -45.043  62.371 -47.232  1.00  0.00     0.035 C 
ENDBRANCH  21  22
ENDBRANCH  19  21
ENDBRANCH  17  19
ENDBRANCH  15  17
ENDBRANCH  12  15
ENDBRANCH   7  11
BRANCH   1  27
HETATM   27  C   UNL     1     -40.912  53.805 -53.211  1.00  0.00    -0.035 A 
HETATM   28  C   UNL     1     -40.478  52.811 -54.104  1.00  0.00     0.012 A 
HETATM   29  C   UNL     1     -39.841  51.651 -53.647  1.00  0.00     0.037 A 
HETATM   30  C   UNL     1     -39.629  51.460 -52.283  1.00  0.00     0.068 A 
HETATM   31  C   UNL     1     -40.094  52.420 -51.384  1.00  0.00     0.037 A 
HETATM   32  C   UNL     1     -40.736  53.577 -51.839  1.00  0.00     0.012 A 
BRANCH  30  33
HETATM   33  O   UNL     1     -39.003  50.389 -51.708  1.00  0.00    -0.356 OA
HETATM   34  C   UNL     1     -39.692  49.741 -50.645  1.00  0.00     0.210 C 
ENDBRANCH  30  33
ENDBRANCH   1  27
BRANCH   8  35
HETATM   35  C   UNL     1     -43.273  56.576 -55.985  1.00  0.00     0.409 C 
HETATM   36  F   UNL     1     -43.589  55.343 -56.437  1.00  0.00    -0.169 F 
HETATM   37  F   UNL     1     -44.079  56.843 -54.933  1.00  0.00    -0.169 F 
HETATM   38  F   UNL     1     -43.623  57.449 -56.966  1.00  0.00    -0.169 F 
ENDBRANCH   8  35
TORSDOF 9
ENDMDL
MODEL 3
REMARK VINA RESULT:      -8.0      2.144      2.660
REMARK  9 active torsions:
REMARK  status: ('A' for Active; 'I' for Inactive)
REMARK    1  A    between atoms: O_2  and  C_3 
REMARK    2  A    between atoms: C_6  and  C_7 
REMARK    3  A    between atoms: C_13  and  C_14 
REMARK       I    between atoms: C_14  and  N_15 
REMARK    4  A    between atoms: N_15  and  N_16 
REMARK    5  A    between atoms: N_16  and  C_17 
REMARK    6  A    between atoms: C_17  and  N_18 
REMARK    7  A    between atoms: N_18  and  C_19 
REMARK    8  A    between atoms: C_19  and  C_20 
REMARK    9  A    between atoms: C_27  and  C_28 
ROOT
HETATM    1  C   UNL     1     -41.109  56.705 -53.064  1.00  0.00     0.118 C 
HETATM    2  N   UNL     1     -41.541  57.470 -54.223  1.00  0.00    -0.365 N 
HETATM    3  C   UNL     1     -42.164  58.666 -54.095  1.00  0.00     0.138 A 
HETATM    4  N   UNL     1     -42.596  59.099 -52.870  1.00  0.00    -0.240 N 
HETATM    5  N   UNL     1     -43.299  60.243 -52.915  1.00  0.00    -0.181 NA
HETATM    6  C   UNL     1     -43.266  60.561 -54.215  1.00  0.00     0.160 A 
HETATM    7  C   UNL     1     -42.517  59.647 -55.002  1.00  0.00     0.098 A 
HETATM    8  C   UNL     1     -42.376  58.381 -51.627  1.00  0.00     0.221 C 
HETATM    9  C   UNL     1     -42.132  56.888 -51.922  1.00  0.00     0.066 C 
HETATM   10  H   UNL     1     -41.194  57.164 -55.137  1.00  0.00     0.161 HD
ENDROOT
BRANCH   7  11
HETATM   11  C   UNL     1     -42.213  59.643 -56.422  1.00  0.00     0.275 C 
HETATM   12  N   UNL     1     -42.919  58.797 -57.256  1.00  0.00    -0.263 N 
HETATM   13  H   UNL     1     -42.695  58.870 -58.247  1.00  0.00     0.190 HD
HETATM   14  O   UNL     1     -41.362  60.386 -56.912  1.00  0.00    -0.266 OA
BRANCH  12  15
HETATM   15  N   UNL     1     -44.163  58.212 -56.948  1.00  0.00    -0.274 N 
HETATM   16  H   UNL     1     -44.252  57.827 -56.012  1.00  0.00     0.189 HD
BRANCH  15  17
HETATM   17  C   UNL     1     -45.313  58.759 -57.473  1.00  0.00     0.186 C 
HETATM   18  S   UNL     1     -45.989  60.219 -57.019  1.00  0.00    -0.040 SA
BRANCH  17  19
HETATM   19  N   UNL     1     -45.911  58.046 -58.469  1.00  0.00    -0.364 N 
HETATM   20  H   UNL     1     -46.887  57.832 -58.266  1.00  0.00     0.162 HD
BRANCH  19  21
HETATM   21  C   UNL     1     -45.613  58.137 -59.896  1.00  0.00     0.154 C 
BRANCH  21  22
HETATM   22  C   UNL     1     -44.820  56.916 -60.366  1.00  0.00     0.139 C 
HETATM   23  O   UNL     1     -43.544  56.875 -59.690  1.00  0.00    -0.384 OA
HETATM   24  C   UNL     1     -43.289  55.525 -59.276  1.00  0.00     0.168 C 
HETATM   25  C   UNL     1     -44.324  54.656 -59.957  1.00  0.00     0.029 C 
HETATM   26  C   UNL     1     -45.503  55.593 -60.061  1.00  0.00     0.035 C 
ENDBRANCH  21  22
ENDBRANCH  19  21
ENDBRANCH  17  19
ENDBRANCH  15  17
ENDBRANCH  12  15
ENDBRANCH   7  11
BRANCH   1  27
HETATM   27  C   UNL     1     -40.883  55.258 -53.464  1.00  0.00    -0.035 A 
HETATM   28  C   UNL     1     -40.482  54.961 -54.777  1.00  0.00     0.012 A 
HETATM   29  C   UNL     1     -40.243  53.642 -55.182  1.00  0.00     0.037 A 
HETATM   30  C   UNL     1     -40.406  52.592 -54.281  1.00  0.00     0.068 A 
HETATM   31  C   UNL     1     -40.846  52.872 -52.987  1.00  0.00     0.037 A 
HETATM   32  C   UNL     1     -41.091  54.189 -52.582  1.00  0.00     0.012 A 
BRANCH  30  33
HETATM   33  O   UNL     1     -40.185  51.268 -54.540  1.00  0.00    -0.356 OA
HETATM   34  C   UNL     1     -39.700  50.478 -53.460  1.00  0.00     0.210 C 
ENDBRANCH  30  33
ENDBRANCH   1  27
BRANCH   8  35
HETATM   35  C   UNL     1     -41.232  59.014 -50.869  1.00  0.00     0.409 C 
HETATM   36  F   UNL     1     -41.627  59.990 -50.023  1.00  0.00    -0.169 F 
HETATM   37  F   UNL     1     -40.520  58.117 -50.152  1.00  0.00    -0.169 F 
HETATM   38  F   UNL     1     -40.360  59.587 -51.739  1.00  0.00    -0.169 F 
ENDBRANCH   8  35
TORSDOF 9
ENDMDL
MODEL 4
REMARK VINA RESULT:      -7.9      1.845      2.718
REMARK  9 active torsions:
REMARK  status: ('A' for Active; 'I' for Inactive)
REMARK    1  A    between atoms: O_2  and  C_3 
REMARK    2  A    between atoms: C_6  and  C_7 
REMARK    3  A    between atoms: C_13  and  C_14 
REMARK       I    between atoms: C_14  and  N_15 
REMARK    4  A    between atoms: N_15  and  N_16 
REMARK    5  A    between atoms: N_16  and  C_17 
REMARK    6  A    between atoms: C_17  and  N_18 
REMARK    7  A    between atoms: N_18  and  C_19 
REMARK    8  A    between atoms: C_19  and  C_20 
REMARK    9  A    between atoms: C_27  and  C_28 
ROOT
HETATM    1  C   UNL     1     -41.240  56.468 -52.868  1.00  0.00     0.118 C 
HETATM    2  N   UNL     1     -42.441  56.897 -53.567  1.00  0.00    -0.365 N 
HETATM    3  C   UNL     1     -43.197  57.927 -53.117  1.00  0.00     0.138 A 
HETATM    4  N   UNL     1     -42.974  58.467 -51.878  1.00  0.00    -0.240 N 
HETATM    5  N   UNL     1     -43.873  59.398 -51.522  1.00  0.00    -0.181 NA
HETATM    6  C   UNL     1     -44.663  59.477 -52.599  1.00  0.00     0.160 A 
HETATM    7  C   UNL     1     -44.258  58.626 -53.660  1.00  0.00     0.098 A 
HETATM    8  C   UNL     1     -41.904  58.051 -50.989  1.00  0.00     0.221 C 
HETATM    9  C   UNL     1     -41.452  56.622 -51.347  1.00  0.00     0.066 C 
HETATM   10  H   UNL     1     -42.593  56.516 -54.505  1.00  0.00     0.161 HD
ENDROOT
BRANCH   7  11
HETATM   11  C   UNL     1     -44.812  58.433 -54.989  1.00  0.00     0.275 C 
HETATM   12  N   UNL     1     -44.489  59.334 -55.987  1.00  0.00    -0.263 N 
HETATM   13  H   UNL     1     -44.870  59.123 -56.908  1.00  0.00     0.190 HD
HETATM   14  O   UNL     1     -45.541  57.480 -55.264  1.00  0.00    -0.266 OA
BRANCH  12  15
HETATM   15  N   UNL     1     -43.381  60.204 -55.963  1.00  0.00    -0.274 N 
HETATM   16  H   UNL     1     -43.037  60.457 -55.041  1.00  0.00     0.189 HD
BRANCH  15  17
HETATM   17  C   UNL     1     -42.420  60.097 -56.944  1.00  0.00     0.186 C 
HETATM   18  S   UNL     1     -41.750  61.372 -57.791  1.00  0.00    -0.040 SA
BRANCH  17  19
HETATM   19  N   UNL     1     -41.970  58.836 -57.201  1.00  0.00    -0.364 N 
HETATM   20  H   UNL     1     -42.075  58.212 -56.401  1.00  0.00     0.162 HD
BRANCH  19  21
HETATM   21  C   UNL     1     -42.007  58.151 -58.490  1.00  0.00     0.154 C 
BRANCH  21  22
HETATM   22  C   UNL     1     -42.940  56.939 -58.437  1.00  0.00     0.139 C 
HETATM   23  O   UNL     1     -44.315  57.382 -58.465  1.00  0.00    -0.384 OA
HETATM   24  C   UNL     1     -45.048  56.541 -59.367  1.00  0.00     0.168 C 
HETATM   25  C   UNL     1     -44.148  55.371 -59.702  1.00  0.00     0.029 C 
HETATM   26  C   UNL     1     -42.776  55.995 -59.616  1.00  0.00     0.035 C 
ENDBRANCH  21  22
ENDBRANCH  19  21
ENDBRANCH  17  19
ENDBRANCH  15  17
ENDBRANCH  12  15
ENDBRANCH   7  11
BRANCH   1  27
HETATM   27  C   UNL     1     -40.874  55.060 -53.300  1.00  0.00    -0.035 A 
HETATM   28  C   UNL     1     -40.811  54.038 -52.338  1.00  0.00     0.012 A 
HETATM   29  C   UNL     1     -40.497  52.721 -52.696  1.00  0.00     0.037 A 
HETATM   30  C   UNL     1     -40.235  52.401 -54.027  1.00  0.00     0.068 A 
HETATM   31  C   UNL     1     -40.252  53.416 -54.984  1.00  0.00     0.037 A 
HETATM   32  C   UNL     1     -40.560  54.734 -54.627  1.00  0.00     0.012 A 
BRANCH  30  33
HETATM   33  O   UNL     1     -39.940  51.158 -54.512  1.00  0.00    -0.356 OA
HETATM   34  C   UNL     1     -39.726  50.131 -53.550  1.00  0.00     0.210 C 
ENDBRANCH  30  33
ENDBRANCH   1  27
BRANCH   8  35
HETATM   35  C   UNL     1     -40.770  59.048 -51.055  1.00  0.00     0.409 C 
HETATM   36  F   UNL     1     -39.564  58.504 -50.783  1.00  0.00    -0.169 F 
HETATM   37  F   UNL     1     -40.679  59.658 -52.258  1.00  0.00    -0.169 F 
HETATM   38  F   UNL     1     -40.965  60.033 -50.141  1.00  0.00    -0.169 F 
ENDBRANCH   8  35
TORSDOF 9
ENDMDL
MODEL 5
REMARK VINA RESULT:      -7.7      3.715      7.665
REMARK  9 active torsions:
REMARK  status: ('A' for Active; 'I' for Inactive)
REMARK    1  A    between atoms: O_2  and  C_3 
REMARK    2  A    between atoms: C_6  and  C_7 
REMARK    3  A    between atoms: C_13  and  C_14 
REMARK       I    between atoms: C_14  and  N_15 
REMARK    4  A    between atoms: N_15  and  N_16 
REMARK    5  A    between atoms: N_16  and  C_17 
REMARK    6  A    between atoms: C_17  and  N_18 
REMARK    7  A    between atoms: N_18  and  C_19 
REMARK    8  A    between atoms: C_19  and  C_20 
REMARK    9  A    between atoms: C_27  and  C_28 
ROOT
HETATM    1  C   UNL     1     -42.628  55.647 -55.128  1.00  0.00     0.118 C 
HETATM    2  N   UNL     1     -43.313  56.169 -53.956  1.00  0.00    -0.365 N 
HETATM    3  C   UNL     1     -43.250  55.544 -52.756  1.00  0.00     0.138 A 
HETATM    4  N   UNL     1     -42.712  54.289 -52.651  1.00  0.00    -0.240 N 
HETATM    5  N   UNL     1     -42.825  53.750 -51.426  1.00  0.00    -0.181 NA
HETATM    6  C   UNL     1     -43.416  54.725 -50.725  1.00  0.00     0.160 A 
HETATM    7  C   UNL     1     -43.654  55.901 -51.484  1.00  0.00     0.098 A 
HETATM    8  C   UNL     1     -42.118  53.562 -53.759  1.00  0.00     0.221 C 
HETATM    9  C   UNL     1     -42.665  54.104 -55.094  1.00  0.00     0.066 C 
HETATM   10  H   UNL     1     -43.690  57.119 -54.024  1.00  0.00     0.161 HD
ENDROOT
BRANCH   7  11
HETATM   11  C   UNL     1     -44.235  57.177 -51.103  1.00  0.00     0.275 C 
HETATM   12  N   UNL     1     -43.401  58.195 -50.683  1.00  0.00    -0.263 N 
HETATM   13  H   UNL     1     -43.860  59.080 -50.472  1.00  0.00     0.190 HD
HETATM   14  O   UNL     1     -45.447  57.390 -51.164  1.00  0.00    -0.266 OA
BRANCH  12  15
HETATM   15  N   UNL     1     -42.018  58.266 -50.942  1.00  0.00    -0.274 N 
HETATM   16  H   UNL     1     -41.506  57.392 -50.856  1.00  0.00     0.189 HD
BRANCH  15  17
HETATM   17  C   UNL     1     -41.558  59.126 -51.914  1.00  0.00     0.186 C 
HETATM   18  S   UNL     1     -40.642  58.692 -53.243  1.00  0.00    -0.040 SA
BRANCH  17  19
HETATM   19  N   UNL     1     -41.925  60.432 -51.775  1.00  0.00    -0.364 N 
HETATM   20  H   UNL     1     -41.138  61.038 -51.549  1.00  0.00     0.162 HD
BRANCH  19  21
HETATM   21  C   UNL     1     -43.002  61.108 -52.493  1.00  0.00     0.154 C 
BRANCH  21  22
HETATM   22  C   UNL     1     -43.944  61.820 -51.520  1.00  0.00     0.139 C 
HETATM   23  O   UNL     1     -44.879  60.869 -50.965  1.00  0.00    -0.384 OA
HETATM   24  C   UNL     1     -44.997  61.112 -49.556  1.00  0.00     0.168 C 
HETATM   25  C   UNL     1     -44.311  62.434 -49.282  1.00  0.00     0.029 C 
HETATM   26  C   UNL     1     -43.231  62.451 -50.336  1.00  0.00     0.035 C 
ENDBRANCH  21  22
ENDBRANCH  19  21
ENDBRANCH  17  19
ENDBRANCH  15  17
ENDBRANCH  12  15
ENDBRANCH   7  11
BRANCH   1  27
HETATM   27  C   UNL     1     -43.231  56.251 -56.382  1.00  0.00    -0.035 A 
HETATM   28  C   UNL     1     -43.038  55.609 -57.618  1.00  0.00     0.012 A 
HETATM   29  C   UNL     1     -43.593  56.121 -58.797  1.00  0.00     0.037 A 
HETATM   30  C   UNL     1     -44.350  57.290 -58.764  1.00  0.00     0.068 A 
HETATM   31  C   UNL     1     -44.512  57.959 -57.550  1.00  0.00     0.037 A 
HETATM   32  C   UNL     1     -43.953  57.452 -56.372  1.00  0.00     0.012 A 
BRANCH  30  33
HETATM   33  O   UNL     1     -44.964  57.881 -59.833  1.00  0.00    -0.356 OA
HETATM   34  C   UNL     1     -46.382  57.987 -59.777  1.00  0.00     0.210 C 
ENDBRANCH  30  33
ENDBRANCH   1  27
BRANCH   8  35
HETATM   35  C   UNL     1     -40.611  53.650 -53.675  1.00  0.00     0.409 C 
HETATM   36  F   UNL     1     -40.006  53.607 -54.882  1.00  0.00    -0.169 F 
HETATM   37  F   UNL     1     -40.186  54.769 -53.047  1.00  0.00    -0.169 F 
HETATM   38  F   UNL     1     -40.124  52.602 -52.961  1.00  0.00    -0.169 F 
ENDBRANCH   8  35
TORSDOF 9
ENDMDL
MODEL 6
REMARK VINA RESULT:      -7.7      3.549      7.124
REMARK  9 active torsions:
REMARK  status: ('A' for Active; 'I' for Inactive)
REMARK    1  A    between atoms: O_2  and  C_3 
REMARK    2  A    between atoms: C_6  and  C_7 
REMARK    3  A    between atoms: C_13  and  C_14 
REMARK       I    between atoms: C_14  and  N_15 
REMARK    4  A    between atoms: N_15  and  N_16 
REMARK    5  A    between atoms: N_16  and  C_17 
REMARK    6  A    between atoms: C_17  and  N_18 
REMARK    7  A    between atoms: N_18  and  C_19 
REMARK    8  A    between atoms: C_19  and  C_20 
REMARK    9  A    between atoms: C_27  and  C_28 
ROOT
HETATM    1  C   UNL     1     -42.606  55.712 -55.524  1.00  0.00     0.118 C 
HETATM    2  N   UNL     1     -43.245  56.277 -54.345  1.00  0.00    -0.365 N 
HETATM    3  C   UNL     1     -43.179  55.666 -53.138  1.00  0.00     0.138 A 
HETATM    4  N   UNL     1     -42.686  54.393 -53.026  1.00  0.00    -0.240 N 
HETATM    5  N   UNL     1     -42.792  53.877 -51.791  1.00  0.00    -0.181 NA
HETATM    6  C   UNL     1     -43.331  54.884 -51.092  1.00  0.00     0.160 A 
HETATM    7  C   UNL     1     -43.541  56.057 -51.863  1.00  0.00     0.098 A 
HETATM    8  C   UNL     1     -42.144  53.629 -54.135  1.00  0.00     0.221 C 
HETATM    9  C   UNL     1     -42.700  54.172 -55.466  1.00  0.00     0.066 C 
HETATM   10  H   UNL     1     -43.586  57.239 -54.419  1.00  0.00     0.161 HD
ENDROOT
BRANCH   7  11
HETATM   11  C   UNL     1     -44.065  57.359 -51.488  1.00  0.00     0.275 C 
HETATM   12  N   UNL     1     -43.284  58.200 -50.719  1.00  0.00    -0.263 N 
HETATM   13  H   UNL     1     -43.685  59.117 -50.526  1.00  0.00     0.190 HD
HETATM   14  O   UNL     1     -45.174  57.749 -51.854  1.00  0.00    -0.266 OA
BRANCH  12  15
HETATM   15  N   UNL     1     -41.886  58.096 -50.572  1.00  0.00    -0.274 N 
HETATM   16  H   UNL     1     -41.508  57.154 -50.592  1.00  0.00     0.189 HD
BRANCH  15  17
HETATM   17  C   UNL     1     -41.078  59.068 -51.120  1.00  0.00     0.186 C 
HETATM   18  S   UNL     1     -39.448  59.266 -50.808  1.00  0.00    -0.040 SA
BRANCH  17  19
HETATM   19  N   UNL     1     -41.676  59.904 -52.016  1.00  0.00    -0.364 N 
HETATM   20  H   UNL     1     -41.741  60.862 -51.674  1.00  0.00     0.162 HD
BRANCH  19  21
HETATM   21  C   UNL     1     -41.609  59.802 -53.471  1.00  0.00     0.154 C 
BRANCH  21  22
HETATM   22  C   UNL     1     -43.005  59.907 -54.090  1.00  0.00     0.139 C 
HETATM   23  O   UNL     1     -43.921  60.478 -53.130  1.00  0.00    -0.384 OA
HETATM   24  C   UNL     1     -44.737  61.449 -53.798  1.00  0.00     0.168 C 
HETATM   25  C   UNL     1     -44.494  61.278 -55.282  1.00  0.00     0.029 C 
HETATM   26  C   UNL     1     -43.060  60.807 -55.313  1.00  0.00     0.035 C 
ENDBRANCH  21  22
ENDBRANCH  19  21
ENDBRANCH  17  19
ENDBRANCH  15  17
ENDBRANCH  12  15
ENDBRANCH   7  11
BRANCH   1  27
HETATM   27  C   UNL     1     -43.213  56.321 -56.774  1.00  0.00    -0.035 A 
HETATM   28  C   UNL     1     -43.967  57.502 -56.669  1.00  0.00     0.012 A 
HETATM   29  C   UNL     1     -44.528  58.108 -57.800  1.00  0.00     0.037 A 
HETATM   30  C   UNL     1     -44.348  57.541 -59.060  1.00  0.00     0.068 A 
HETATM   31  C   UNL     1     -43.638  56.345 -59.170  1.00  0.00     0.037 A 
HETATM   32  C   UNL     1     -43.082  55.735 -58.041  1.00  0.00     0.012 A 
BRANCH  30  33
HETATM   33  O   UNL     1     -44.821  58.041 -60.242  1.00  0.00    -0.356 OA
HETATM   34  C   UNL     1     -44.193  59.221 -60.732  1.00  0.00     0.210 C 
ENDBRANCH  30  33
ENDBRANCH   1  27
BRANCH   8  35
HETATM   35  C   UNL     1     -40.633  53.661 -54.085  1.00  0.00     0.409 C 
HETATM   36  F   UNL     1     -40.103  52.658 -53.353  1.00  0.00    -0.169 F 
HETATM   37  F   UNL     1     -40.068  53.612 -55.312  1.00  0.00    -0.169 F 
HETATM   38  F   UNL     1     -40.213  54.820 -53.515  1.00  0.00    -0.169 F 
ENDBRANCH   8  35
TORSDOF 9
ENDMDL
MODEL 7
REMARK VINA RESULT:      -7.6      3.580      6.866
REMARK  9 active torsions:
REMARK  status: ('A' for Active; 'I' for Inactive)
REMARK    1  A    between atoms: O_2  and  C_3 
REMARK    2  A    between atoms: C_6  and  C_7 
REMARK    3  A    between atoms: C_13  and  C_14 
REMARK       I    between atoms: C_14  and  N_15 
REMARK    4  A    between atoms: N_15  and  N_16 
REMARK    5  A    between atoms: N_16  and  C_17 
REMARK    6  A    between atoms: C_17  and  N_18 
REMARK    7  A    between atoms: N_18  and  C_19 
REMARK    8  A    between atoms: C_19  and  C_20 
REMARK    9  A    between atoms: C_27  and  C_28 
ROOT
HETATM    1  C   UNL     1     -41.951  55.748 -55.439  1.00  0.00     0.118 C 
HETATM    2  N   UNL     1     -41.715  56.832 -54.498  1.00  0.00    -0.365 N 
HETATM    3  C   UNL     1     -41.590  56.607 -53.168  1.00  0.00     0.138 A 
HETATM    4  N   UNL     1     -41.889  55.380 -52.638  1.00  0.00    -0.240 N 
HETATM    5  N   UNL     1     -41.833  55.340 -51.297  1.00  0.00    -0.181 NA
HETATM    6  C   UNL     1     -41.439  56.579 -50.978  1.00  0.00     0.160 A 
HETATM    7  C   UNL     1     -41.209  57.407 -52.108  1.00  0.00     0.098 A 
HETATM    8  C   UNL     1     -42.285  54.226 -53.426  1.00  0.00     0.221 C 
HETATM    9  C   UNL     1     -42.860  54.689 -54.779  1.00  0.00     0.066 C 
HETATM   10  H   UNL     1     -41.463  57.742 -54.894  1.00  0.00     0.161 HD
ENDROOT
BRANCH   7  11
HETATM   11  C   UNL     1     -40.752  58.782 -52.202  1.00  0.00     0.275 C 
HETATM   12  N   UNL     1     -41.527  59.785 -51.651  1.00  0.00    -0.263 N 
HETATM   13  H   UNL     1     -41.134  60.724 -51.707  1.00  0.00     0.190 HD
HETATM   14  O   UNL     1     -39.683  59.083 -52.734  1.00  0.00    -0.266 OA
BRANCH  12  15
HETATM   15  N   UNL     1     -42.525  59.592 -50.676  1.00  0.00    -0.274 N 
HETATM   16  H   UNL     1     -42.196  59.342 -49.748  1.00  0.00     0.189 HD
BRANCH  15  17
HETATM   17  C   UNL     1     -43.658  60.375 -50.709  1.00  0.00     0.186 C 
HETATM   18  S   UNL     1     -43.842  61.851 -49.949  1.00  0.00    -0.040 SA
BRANCH  17  19
HETATM   19  N   UNL     1     -44.690  59.897 -51.462  1.00  0.00    -0.364 N 
HETATM   20  H   UNL     1     -45.187  60.635 -51.958  1.00  0.00     0.162 HD
BRANCH  19  21
HETATM   21  C   UNL     1     -44.743  58.600 -52.131  1.00  0.00     0.154 C 
BRANCH  21  22
HETATM   22  C   UNL     1     -44.453  58.745 -53.626  1.00  0.00     0.139 C 
HETATM   23  O   UNL     1     -44.870  57.549 -54.321  1.00  0.00    -0.384 OA
HETATM   24  C   UNL     1     -45.553  57.932 -55.523  1.00  0.00     0.168 C 
HETATM   25  C   UNL     1     -45.313  59.416 -55.707  1.00  0.00     0.029 C 
HETATM   26  C   UNL     1     -45.200  59.895 -54.281  1.00  0.00     0.035 C 
ENDBRANCH  21  22
ENDBRANCH  19  21
ENDBRANCH  17  19
ENDBRANCH  15  17
ENDBRANCH  12  15
ENDBRANCH   7  11
BRANCH   1  27
HETATM   27  C   UNL     1     -42.500  56.309 -56.737  1.00  0.00    -0.035 A 
HETATM   28  C   UNL     1     -43.172  55.455 -57.628  1.00  0.00     0.012 A 
HETATM   29  C   UNL     1     -43.711  55.935 -58.827  1.00  0.00     0.037 A 
HETATM   30  C   UNL     1     -43.585  57.282 -59.162  1.00  0.00     0.068 A 
HETATM   31  C   UNL     1     -42.883  58.130 -58.305  1.00  0.00     0.037 A 
HETATM   32  C   UNL     1     -42.338  57.651 -57.109  1.00  0.00     0.012 A 
BRANCH  30  33
HETATM   33  O   UNL     1     -44.083  57.882 -60.285  1.00  0.00    -0.356 OA
HETATM   34  C   UNL     1     -43.577  59.175 -60.596  1.00  0.00     0.210 C 
ENDBRANCH  30  33
ENDBRANCH   1  27
BRANCH   8  35
HETATM   35  C   UNL     1     -41.108  53.292 -53.589  1.00  0.00     0.409 C 
HETATM   36  F   UNL     1     -41.293  52.363 -54.551  1.00  0.00    -0.169 F 
HETATM   37  F   UNL     1     -39.958  53.943 -53.869  1.00  0.00    -0.169 F 
HETATM   38  F   UNL     1     -40.892  52.613 -52.432  1.00  0.00    -0.169 F 
ENDBRANCH   8  35
TORSDOF 9
ENDMDL
MODEL 8
REMARK VINA RESULT:      -7.5      4.608      8.468
REMARK  9 active torsions:
REMARK  status: ('A' for Active; 'I' for Inactive)
REMARK    1  A    between atoms: O_2  and  C_3 
REMARK    2  A    between atoms: C_6  and  C_7 
REMARK    3  A    between atoms: C_13  and  C_14 
REMARK       I    between atoms: C_14  and  N_15 
REMARK    4  A    between atoms: N_15  and  N_16 
REMARK    5  A    between atoms: N_16  and  C_17 
REMARK    6  A    between atoms: C_17  and  N_18 
REMARK    7  A    between atoms: N_18  and  C_19 
REMARK    8  A    between atoms: C_19  and  C_20 
REMARK    9  A    between atoms: C_27  and  C_28 
ROOT
HETATM    1  C   UNL     1     -43.702  60.185 -50.570  1.00  0.00     0.118 C 
HETATM    2  N   UNL     1     -44.129  59.643 -51.851  1.00  0.00    -0.365 N 
HETATM    3  C   UNL     1     -43.242  59.136 -52.740  1.00  0.00     0.138 A 
HETATM    4  N   UNL     1     -41.895  59.304 -52.555  1.00  0.00    -0.240 N 
HETATM    5  N   UNL     1     -41.147  58.853 -53.575  1.00  0.00    -0.181 NA
HETATM    6  C   UNL     1     -42.059  58.340 -54.410  1.00  0.00     0.160 A 
HETATM    7  C   UNL     1     -43.388  58.429 -53.918  1.00  0.00     0.098 A 
HETATM    8  C   UNL     1     -41.307  59.956 -51.399  1.00  0.00     0.221 C 
HETATM    9  C   UNL     1     -42.340  60.891 -50.743  1.00  0.00     0.066 C 
HETATM   10  H   UNL     1     -45.133  59.490 -51.978  1.00  0.00     0.161 HD
ENDROOT
BRANCH   7  11
HETATM   11  C   UNL     1     -44.645  57.975 -54.488  1.00  0.00     0.275 C 
HETATM   12  N   UNL     1     -44.923  56.621 -54.503  1.00  0.00    -0.263 N 
HETATM   13  H   UNL     1     -45.837  56.365 -54.872  1.00  0.00     0.190 HD
HETATM   14  O   UNL     1     -45.483  58.757 -54.935  1.00  0.00    -0.266 OA
BRANCH  12  15
HETATM   15  N   UNL     1     -44.296  55.658 -53.687  1.00  0.00    -0.274 N 
HETATM   16  H   UNL     1     -44.883  55.229 -52.977  1.00  0.00     0.189 HD
BRANCH  15  17
HETATM   17  C   UNL     1     -43.336  54.836 -54.234  1.00  0.00     0.186 C 
HETATM   18  S   UNL     1     -42.803  54.881 -55.817  1.00  0.00    -0.040 SA
BRANCH  17  19
HETATM   19  N   UNL     1     -42.762  53.941 -53.379  1.00  0.00    -0.364 N 
HETATM   20  H   UNL     1     -42.766  52.990 -53.747  1.00  0.00     0.162 HD
BRANCH  19  21
HETATM   21  C   UNL     1     -41.664  54.210 -52.456  1.00  0.00     0.154 C 
BRANCH  21  22
HETATM   22  C   UNL     1     -40.405  53.444 -52.868  1.00  0.00     0.139 C 
HETATM   23  O   UNL     1     -39.820  52.809 -51.709  1.00  0.00    -0.384 OA
HETATM   24  C   UNL     1     -39.434  51.474 -52.065  1.00  0.00     0.168 C 
HETATM   25  C   UNL     1     -39.543  51.375 -53.572  1.00  0.00     0.029 C 
HETATM   26  C   UNL     1     -40.671  52.332 -53.869  1.00  0.00     0.035 C 
ENDBRANCH  21  22
ENDBRANCH  19  21
ENDBRANCH  17  19
ENDBRANCH  15  17
ENDBRANCH  12  15
ENDBRANCH   7  11
BRANCH   1  27
HETATM   27  C   UNL     1     -44.792  61.077 -50.005  1.00  0.00    -0.035 A 
HETATM   28  C   UNL     1     -45.739  61.643 -50.874  1.00  0.00     0.012 A 
HETATM   29  C   UNL     1     -46.773  62.455 -50.394  1.00  0.00     0.037 A 
HETATM   30  C   UNL     1     -46.878  62.721 -49.030  1.00  0.00     0.068 A 
HETATM   31  C   UNL     1     -45.918  62.200 -48.162  1.00  0.00     0.037 A 
HETATM   32  C   UNL     1     -44.880  61.393 -48.642  1.00  0.00     0.012 A 
BRANCH  30  33
HETATM   33  O   UNL     1     -47.847  63.475 -48.429  1.00  0.00    -0.356 OA
HETATM   34  C   UNL     1     -48.856  64.011 -49.278  1.00  0.00     0.210 C 
ENDBRANCH  30  33
ENDBRANCH   1  27
BRANCH   8  35
HETATM   35  C   UNL     1     -40.782  58.913 -50.439  1.00  0.00     0.409 C 
HETATM   36  F   UNL     1     -40.842  59.299 -49.146  1.00  0.00    -0.169 F 
HETATM   37  F   UNL     1     -41.432  57.733 -50.542  1.00  0.00    -0.169 F 
HETATM   38  F   UNL     1     -39.475  58.655 -50.705  1.00  0.00    -0.169 F 
ENDBRANCH   8  35
TORSDOF 9
ENDMDL
MODEL 9
REMARK VINA RESULT:      -7.5      3.632      5.859
REMARK  9 active torsions:
REMARK  status: ('A' for Active; 'I' for Inactive)
REMARK    1  A    between atoms: O_2  and  C_3 
REMARK    2  A    between atoms: C_6  and  C_7 
REMARK    3  A    between atoms: C_13  and  C_14 
REMARK       I    between atoms: C_14  and  N_15 
REMARK    4  A    between atoms: N_15  and  N_16 
REMARK    5  A    between atoms: N_16  and  C_17 
REMARK    6  A    between atoms: C_17  and  N_18 
REMARK    7  A    between atoms: N_18  and  C_19 
REMARK    8  A    between atoms: C_19  and  C_20 
REMARK    9  A    between atoms: C_27  and  C_28 
ROOT
HETATM    1  C   UNL     1     -43.161  55.848 -56.978  1.00  0.00     0.118 C 
HETATM    2  N   UNL     1     -42.699  57.226 -57.031  1.00  0.00    -0.365 N 
HETATM    3  C   UNL     1     -42.647  57.916 -58.196  1.00  0.00     0.138 A 
HETATM    4  N   UNL     1     -42.831  57.276 -59.393  1.00  0.00    -0.240 N 
HETATM    5  N   UNL     1     -42.635  58.063 -60.463  1.00  0.00    -0.181 NA
HETATM    6  C   UNL     1     -42.363  59.252 -59.914  1.00  0.00     0.160 A 
HETATM    7  C   UNL     1     -42.416  59.244 -58.495  1.00  0.00     0.098 A 
HETATM    8  C   UNL     1     -43.154  55.867 -59.523  1.00  0.00     0.221 C 
HETATM    9  C   UNL     1     -42.711  55.109 -58.256  1.00  0.00     0.066 C 
HETATM   10  H   UNL     1     -42.590  57.713 -56.137  1.00  0.00     0.161 HD
ENDROOT
BRANCH   7  11
HETATM   11  C   UNL     1     -42.219  60.312 -57.531  1.00  0.00     0.275 C 
HETATM   12  N   UNL     1     -43.323  60.877 -56.922  1.00  0.00    -0.263 N 
HETATM   13  H   UNL     1     -43.122  61.590 -56.221  1.00  0.00     0.190 HD
HETATM   14  O   UNL     1     -41.098  60.715 -57.218  1.00  0.00    -0.266 OA
BRANCH  12  15
HETATM   15  N   UNL     1     -44.597  60.281 -56.845  1.00  0.00    -0.274 N 
HETATM   16  H   UNL     1     -44.675  59.350 -57.243  1.00  0.00     0.189 HD
BRANCH  15  17
HETATM   17  C   UNL     1     -45.386  60.519 -55.741  1.00  0.00     0.186 C 
HETATM   18  S   UNL     1     -46.163  61.957 -55.393  1.00  0.00    -0.040 SA
BRANCH  17  19
HETATM   19  N   UNL     1     -45.559  59.464 -54.894  1.00  0.00    -0.364 N 
HETATM   20  H   UNL     1     -45.749  58.593 -55.388  1.00  0.00     0.162 HD
BRANCH  19  21
HETATM   21  C   UNL     1     -44.905  59.277 -53.602  1.00  0.00     0.154 C 
BRANCH  21  22
HETATM   22  C   UNL     1     -43.721  58.315 -53.724  1.00  0.00     0.139 C 
HETATM   23  O   UNL     1     -42.718  58.886 -54.591  1.00  0.00    -0.384 OA
HETATM   24  C   UNL     1     -41.428  58.677 -53.999  1.00  0.00     0.168 C 
HETATM   25  C   UNL     1     -41.626  57.707 -52.854  1.00  0.00     0.029 C 
HETATM   26  C   UNL     1     -43.027  58.035 -52.401  1.00  0.00     0.035 C 
ENDBRANCH  21  22
ENDBRANCH  19  21
ENDBRANCH  17  19
ENDBRANCH  15  17
ENDBRANCH  12  15
ENDBRANCH   7  11
BRANCH   1  27
HETATM   27  C   UNL     1     -42.685  55.199 -55.691  1.00  0.00    -0.035 A 
HETATM   28  C   UNL     1     -41.321  54.902 -55.532  1.00  0.00     0.012 A 
HETATM   29  C   UNL     1     -40.836  54.323 -54.354  1.00  0.00     0.037 A 
HETATM   30  C   UNL     1     -41.709  54.024 -53.309  1.00  0.00     0.068 A 
HETATM   31  C   UNL     1     -43.072  54.275 -53.473  1.00  0.00     0.037 A 
HETATM   32  C   UNL     1     -43.559  54.849 -54.652  1.00  0.00     0.012 A 
BRANCH  30  33
HETATM   33  O   UNL     1     -41.364  53.481 -52.103  1.00  0.00    -0.356 OA
HETATM   34  C   UNL     1     -41.317  54.370 -50.993  1.00  0.00     0.210 C 
ENDBRANCH  30  33
ENDBRANCH   1  27
BRANCH   8  35
HETATM   35  C   UNL     1     -44.631  55.707 -59.803  1.00  0.00     0.409 C 
HETATM   36  F   UNL     1     -45.106  54.484 -59.481  1.00  0.00    -0.169 F 
HETATM   37  F   UNL     1     -45.388  56.621 -59.157  1.00  0.00    -0.169 F 
HETATM   38  F   UNL     1     -44.872  55.878 -61.129  1.00  0.00    -0.169 F 
ENDBRANCH   8  35
TORSDOF 9
ENDMDL
MODEL 10
REMARK VINA RESULT:      -7.4      4.754      8.521
REMARK  9 active torsions:
REMARK  status: ('A' for Active; 'I' for Inactive)
REMARK    1  A    between atoms: O_2  and  C_3 
REMARK    2  A    between atoms: C_6  and  C_7 
REMARK    3  A    between atoms: C_13  and  C_14 
REMARK       I    between atoms: C_14  and  N_15 
REMARK    4  A    between atoms: N_15  and  N_16 
REMARK    5  A    between atoms: N_16  and  C_17 
REMARK    6  A    between atoms: C_17  and  N_18 
REMARK    7  A    between atoms: N_18  and  C_19 
REMARK    8  A    between atoms: C_19  and  C_20 
REMARK    9  A    between atoms: C_27  and  C_28 
ROOT
HETATM    1  C   UNL     1     -42.312  55.681 -55.296  1.00  0.00     0.118 C 
HETATM    2  N   UNL     1     -42.008  56.767 -54.377  1.00  0.00    -0.365 N 
HETATM    3  C   UNL     1     -41.685  56.534 -53.082  1.00  0.00     0.138 A 
HETATM    4  N   UNL     1     -41.835  55.286 -52.540  1.00  0.00    -0.240 N 
HETATM    5  N   UNL     1     -41.589  55.234 -51.221  1.00  0.00    -0.181 NA
HETATM    6  C   UNL     1     -41.225  56.491 -50.936  1.00  0.00     0.160 A 
HETATM    7  C   UNL     1     -41.204  57.343 -52.071  1.00  0.00     0.098 A 
HETATM    8  C   UNL     1     -42.272  54.120 -53.286  1.00  0.00     0.221 C 
HETATM    9  C   UNL     1     -43.057  54.563 -54.536  1.00  0.00     0.066 C 
HETATM   10  H   UNL     1     -41.866  57.695 -54.786  1.00  0.00     0.161 HD
ENDROOT
BRANCH   7  11
HETATM   11  C   UNL     1     -40.843  58.744 -52.200  1.00  0.00     0.275 C 
HETATM   12  N   UNL     1     -41.670  59.703 -51.647  1.00  0.00    -0.263 N 
HETATM   13  H   UNL     1     -41.344  60.665 -51.730  1.00  0.00     0.190 HD
HETATM   14  O   UNL     1     -39.811  59.106 -52.766  1.00  0.00    -0.266 OA
BRANCH  12  15
HETATM   15  N   UNL     1     -42.629  59.463 -50.643  1.00  0.00    -0.274 N 
HETATM   16  H   UNL     1     -42.278  59.452 -49.690  1.00  0.00     0.189 HD
BRANCH  15  17
HETATM   17  C   UNL     1     -43.904  59.959 -50.798  1.00  0.00     0.186 C 
HETATM   18  S   UNL     1     -44.786  59.949 -52.217  1.00  0.00    -0.040 SA
BRANCH  17  19
HETATM   19  N   UNL     1     -44.487  60.463 -49.672  1.00  0.00    -0.364 N 
HETATM   20  H   UNL     1     -43.820  60.598 -48.913  1.00  0.00     0.162 HD
BRANCH  19  21
HETATM   21  C   UNL     1     -45.627  61.374 -49.623  1.00  0.00     0.154 C 
BRANCH  21  22
HETATM   22  C   UNL     1     -45.757  62.011 -48.238  1.00  0.00     0.139 C 
HETATM   23  O   UNL     1     -47.083  61.774 -47.716  1.00  0.00    -0.384 OA
HETATM   24  C   UNL     1     -46.971  61.396 -46.337  1.00  0.00     0.168 C 
HETATM   25  C   UNL     1     -45.540  61.668 -45.924  1.00  0.00     0.029 C 
HETATM   26  C   UNL     1     -44.791  61.438 -47.213  1.00  0.00     0.035 C 
ENDBRANCH  21  22
ENDBRANCH  19  21
ENDBRANCH  17  19
ENDBRANCH  15  17
ENDBRANCH  12  15
ENDBRANCH   7  11
BRANCH   1  27
HETATM   27  C   UNL     1     -43.069  56.224 -56.494  1.00  0.00    -0.035 A 
HETATM   28  C   UNL     1     -43.038  55.517 -57.708  1.00  0.00     0.012 A 
HETATM   29  C   UNL     1     -43.738  55.971 -58.832  1.00  0.00     0.037 A 
HETATM   30  C   UNL     1     -44.483  57.147 -58.764  1.00  0.00     0.068 A 
HETATM   31  C   UNL     1     -44.487  57.880 -57.577  1.00  0.00     0.037 A 
HETATM   32  C   UNL     1     -43.782  57.430 -56.455  1.00  0.00     0.012 A 
BRANCH  30  33
HETATM   33  O   UNL     1     -45.228  57.687 -59.776  1.00  0.00    -0.356 OA
HETATM   34  C   UNL     1     -44.779  58.929 -60.307  1.00  0.00     0.210 C 
ENDBRANCH  30  33
ENDBRANCH   1  27
BRANCH   8  35
HETATM   35  C   UNL     1     -41.079  53.259 -53.630  1.00  0.00     0.409 C 
HETATM   36  F   UNL     1     -40.037  53.963 -54.124  1.00  0.00    -0.169 F 
HETATM   37  F   UNL     1     -40.625  52.548 -52.575  1.00  0.00    -0.169 F 
HETATM   38  F   UNL     1     -41.420  52.353 -54.584  1.00  0.00    -0.169 F 
ENDBRANCH   8  35
TORSDOF 9
ENDMDL
