MODEL 1
REMARK VINA RESULT:      -8.9      0.000      0.000
REMARK  6 active torsions:
REMARK  status: ('A' for Active; 'I' for Inactive)
REMARK    1  A    between atoms: C_2  and  C_3 
REMARK    2  A    between atoms: C_3  and  N_4 
REMARK    3  A    between atoms: C_5  and  S_6 
REMARK    4  A    between atoms: S_6  and  C_7 
REMARK    5  A    between atoms: C_7  and  C_8 
REMARK       I    between atoms: C_8  and  N_9 
REMARK    6  A    between atoms: N_9  and  C_10 
ROOT
HETATM    1  C   UNL     1     -42.908  57.592 -54.667  1.00  0.00     0.231 C 
HETATM    2  N   UNL     1     -42.105  57.350 -55.774  1.00  0.00    -0.325 N 
HETATM    3  O   UNL     1     -44.111  57.844 -54.724  1.00  0.00    -0.272 OA
HETATM    4  H   UNL     1     -41.343  56.712 -55.572  1.00  0.00     0.169 HD
ENDROOT
BRANCH   1   5
HETATM    5  C   UNL     1     -42.196  57.538 -53.322  1.00  0.00     0.185 C 
BRANCH   5   6
HETATM    6  S   UNL     1     -43.037  56.452 -52.121  1.00  0.00    -0.083 SA
BRANCH   6   7
HETATM    7  C   UNL     1     -42.145  54.982 -52.358  1.00  0.00     0.170 A 
HETATM    8  N   UNL     1     -41.156  54.543 -51.511  1.00  0.00    -0.324 N 
HETATM    9  C   UNL     1     -40.609  53.406 -52.073  1.00  0.00     0.065 A 
HETATM   10  C   UNL     1     -41.356  53.204 -53.233  1.00  0.00     0.088 A 
HETATM   11  C   UNL     1     -39.566  52.550 -51.695  1.00  0.00     0.034 A 
HETATM   12  N   UNL     1     -42.306  54.178 -53.381  1.00  0.00    -0.222 NA
HETATM   13  C   UNL     1     -41.073  52.114 -54.067  1.00  0.00     0.057 A 
HETATM   14  C   UNL     1     -40.031  51.258 -53.703  1.00  0.00     0.036 A 
HETATM   15 CL   UNL     1     -39.652  49.915 -54.715  1.00  0.00    -0.084 Cl
HETATM   16  C   UNL     1     -39.290  51.469 -52.540  1.00  0.00     0.026 A 
BRANCH   8  17
HETATM   17  C   UNL     1     -40.723  55.154 -50.268  1.00  0.00     0.131 C 
BRANCH  17  18
HETATM   18  C   UNL     1     -41.335  54.521 -49.016  1.00  0.00     0.016 C 
HETATM   19  C   UNL     1     -40.297  54.001 -48.030  1.00  0.00     0.006 C 
ENDBRANCH  17  18
ENDBRANCH   8  17
ENDBRANCH   6   7
ENDBRANCH   5   6
ENDBRANCH   1   5
BRANCH   2  20
HETATM   20  C   UNL     1     -42.623  57.334 -57.093  1.00  0.00     0.054 A 
HETATM   21  C   UNL     1     -42.785  58.502 -57.896  1.00  0.00     0.040 A 
HETATM   22 BR   UNL     1     -42.035  60.191 -57.417  1.00  0.00    -0.049 Br
HETATM   23  C   UNL     1     -43.375  58.437 -59.167  1.00  0.00     0.053 A 
HETATM   24  C   UNL     1     -43.758  57.194 -59.607  1.00  0.00     0.064 A 
HETATM   25  C   UNL     1     -43.553  56.042 -58.852  1.00  0.00     0.065 A 
HETATM   26  N   UNL     1     -44.364  56.821 -60.802  1.00  0.00    -0.306 N 
HETATM   27  N   UNL     1     -44.035  54.961 -59.580  1.00  0.00    -0.306 N 
HETATM   28  C   UNL     1     -42.976  56.074 -57.604  1.00  0.00     0.063 A 
HETATM   29  C   UNL     1     -44.549  55.431 -60.798  1.00  0.00     0.325 A 
HETATM   30  H   UNL     1     -44.048  53.991 -59.311  1.00  0.00     0.170 HD
HETATM   31  O   UNL     1     -45.057  54.761 -61.679  1.00  0.00    -0.247 OA
HETATM   32  H   UNL     1     -44.648  57.421 -61.558  1.00  0.00     0.170 HD
ENDBRANCH   2  20
TORSDOF 6
ENDMDL
MODEL 2
REMARK VINA RESULT:      -8.1      1.825      2.136
REMARK  6 active torsions:
REMARK  status: ('A' for Active; 'I' for Inactive)
REMARK    1  A    between atoms: C_2  and  C_3 
REMARK    2  A    between atoms: C_3  and  N_4 
REMARK    3  A    between atoms: C_5  and  S_6 
REMARK    4  A    between atoms: S_6  and  C_7 
REMARK    5  A    between atoms: C_7  and  C_8 
REMARK       I    between atoms: C_8  and  N_9 
REMARK    6  A    between atoms: N_9  and  C_10 
ROOT
HETATM    1  C   UNL     1     -42.544  58.700 -55.796  1.00  0.00     0.231 C 
HETATM    2  N   UNL     1     -43.625  57.840 -55.951  1.00  0.00    -0.325 N 
HETATM    3  O   UNL     1     -41.993  59.295 -56.721  1.00  0.00    -0.272 OA
HETATM    4  H   UNL     1     -44.238  57.834 -55.143  1.00  0.00     0.169 HD
ENDROOT
BRANCH   1   5
HETATM    5  C   UNL     1     -42.048  58.869 -54.366  1.00  0.00     0.185 C 
BRANCH   5   6
HETATM    6  S   UNL     1     -43.150  58.091 -53.139  1.00  0.00    -0.083 SA
BRANCH   6   7
HETATM    7  C   UNL     1     -42.431  56.514 -53.036  1.00  0.00     0.170 A 
HETATM    8  N   UNL     1     -41.775  56.045 -51.924  1.00  0.00    -0.324 N 
HETATM    9  C   UNL     1     -41.253  54.807 -52.248  1.00  0.00     0.065 A 
HETATM   10  C   UNL     1     -41.680  54.588 -53.557  1.00  0.00     0.088 A 
HETATM   11  C   UNL     1     -40.474  53.876 -51.547  1.00  0.00     0.034 A 
HETATM   12  N   UNL     1     -42.417  55.645 -54.018  1.00  0.00    -0.222 NA
HETATM   13  C   UNL     1     -41.330  53.402 -54.218  1.00  0.00     0.057 A 
HETATM   14  C   UNL     1     -40.549  52.470 -53.531  1.00  0.00     0.036 A 
HETATM   15 CL   UNL     1     -40.094  51.007 -54.321  1.00  0.00    -0.084 Cl
HETATM   16  C   UNL     1     -40.127  52.700 -52.221  1.00  0.00     0.026 A 
BRANCH   8  17
HETATM   17  C   UNL     1     -41.615  56.711 -50.645  1.00  0.00     0.131 C 
BRANCH  17  18
HETATM   18  C   UNL     1     -40.492  57.751 -50.620  1.00  0.00     0.016 C 
HETATM   19  C   UNL     1     -40.963  59.141 -50.213  1.00  0.00     0.006 C 
ENDBRANCH  17  18
ENDBRANCH   8  17
ENDBRANCH   6   7
ENDBRANCH   5   6
ENDBRANCH   1   5
BRANCH   2  20
HETATM   20  C   UNL     1     -44.223  57.600 -57.213  1.00  0.00     0.054 A 
HETATM   21  C   UNL     1     -45.322  58.352 -57.725  1.00  0.00     0.040 A 
HETATM   22 BR   UNL     1     -45.923  59.974 -56.919  1.00  0.00    -0.049 Br
HETATM   23  C   UNL     1     -45.924  58.021 -58.949  1.00  0.00     0.053 A 
HETATM   24  C   UNL     1     -45.384  56.962 -59.636  1.00  0.00     0.064 A 
HETATM   25  C   UNL     1     -44.278  56.258 -59.168  1.00  0.00     0.065 A 
HETATM   26  N   UNL     1     -45.764  56.405 -60.852  1.00  0.00    -0.306 N 
HETATM   27  N   UNL     1     -43.978  55.267 -60.095  1.00  0.00    -0.306 N 
HETATM   28  C   UNL     1     -43.665  56.560 -57.974  1.00  0.00     0.063 A 
HETATM   29  C   UNL     1     -44.899  55.342 -61.151  1.00  0.00     0.325 A 
HETATM   30  H   UNL     1     -43.243  54.580 -60.049  1.00  0.00     0.170 HD
HETATM   31  O   UNL     1     -44.938  54.624 -62.133  1.00  0.00    -0.247 OA
HETATM   32  H   UNL     1     -46.532  56.683 -61.441  1.00  0.00     0.170 HD
ENDBRANCH   2  20
TORSDOF 6
ENDMDL
MODEL 3
REMARK VINA RESULT:      -8.1      2.570      3.054
REMARK  6 active torsions:
REMARK  status: ('A' for Active; 'I' for Inactive)
REMARK    1  A    between atoms: C_2  and  C_3 
REMARK    2  A    between atoms: C_3  and  N_4 
REMARK    3  A    between atoms: C_5  and  S_6 
REMARK    4  A    between atoms: S_6  and  C_7 
REMARK    5  A    between atoms: C_7  and  C_8 
REMARK       I    between atoms: C_8  and  N_9 
REMARK    6  A    between atoms: N_9  and  C_10 
ROOT
HETATM    1  C   UNL     1     -43.835  57.329 -55.922  1.00  0.00     0.231 C 
HETATM    2  N   UNL     1     -42.628  57.309 -56.609  1.00  0.00    -0.325 N 
HETATM    3  O   UNL     1     -44.856  57.881 -56.330  1.00  0.00    -0.272 OA
HETATM    4  H   UNL     1     -42.087  56.470 -56.426  1.00  0.00     0.169 HD
ENDROOT
BRANCH   1   5
HETATM    5  C   UNL     1     -43.831  56.614 -54.578  1.00  0.00     0.185 C 
BRANCH   5   6
HETATM    6  S   UNL     1     -42.361  57.009 -53.572  1.00  0.00    -0.083 SA
BRANCH   6   7
HETATM    7  C   UNL     1     -41.689  55.422 -53.371  1.00  0.00     0.170 A 
HETATM    8  N   UNL     1     -41.076  54.992 -52.219  1.00  0.00    -0.324 N 
HETATM    9  C   UNL     1     -40.579  53.726 -52.466  1.00  0.00     0.065 A 
HETATM   10  C   UNL     1     -40.975  53.453 -53.775  1.00  0.00     0.088 A 
HETATM   11  C   UNL     1     -39.846  52.812 -51.698  1.00  0.00     0.034 A 
HETATM   12  N   UNL     1     -41.670  54.505 -54.308  1.00  0.00    -0.222 NA
HETATM   13  C   UNL     1     -40.639  52.228 -54.367  1.00  0.00     0.057 A 
HETATM   14  C   UNL     1     -39.902  51.311 -53.613  1.00  0.00     0.036 A 
HETATM   15 CL   UNL     1     -39.464  49.800 -54.316  1.00  0.00    -0.084 Cl
HETATM   16  C   UNL     1     -39.511  51.595 -52.303  1.00  0.00     0.026 A 
BRANCH   8  17
HETATM   17  C   UNL     1     -40.935  55.717 -50.970  1.00  0.00     0.131 C 
BRANCH  17  18
HETATM   18  C   UNL     1     -41.780  55.155 -49.823  1.00  0.00     0.016 C 
HETATM   19  C   UNL     1     -40.950  54.527 -48.711  1.00  0.00     0.006 C 
ENDBRANCH  17  18
ENDBRANCH   8  17
ENDBRANCH   6   7
ENDBRANCH   5   6
ENDBRANCH   1   5
BRANCH   2  20
HETATM   20  C   UNL     1     -42.477  57.903 -57.887  1.00  0.00     0.054 A 
HETATM   21  C   UNL     1     -42.657  57.199 -59.115  1.00  0.00     0.040 A 
HETATM   22 BR   UNL     1     -43.428  55.456 -59.197  1.00  0.00    -0.049 Br
HETATM   23  C   UNL     1     -42.419  57.819 -60.351  1.00  0.00     0.053 A 
HETATM   24  C   UNL     1     -42.037  59.137 -60.318  1.00  0.00     0.064 A 
HETATM   25  C   UNL     1     -41.912  59.846 -59.126  1.00  0.00     0.065 A 
HETATM   26  N   UNL     1     -41.731  60.000 -61.364  1.00  0.00    -0.306 N 
HETATM   27  N   UNL     1     -41.527  61.144 -59.438  1.00  0.00    -0.306 N 
HETATM   28  C   UNL     1     -42.140  59.267 -57.899  1.00  0.00     0.063 A 
HETATM   29  C   UNL     1     -41.404  61.257 -60.831  1.00  0.00     0.325 A 
HETATM   30  H   UNL     1     -41.341  61.902 -58.803  1.00  0.00     0.170 HD
HETATM   31  O   UNL     1     -41.079  62.250 -61.454  1.00  0.00    -0.247 OA
HETATM   32  H   UNL     1     -41.721  59.792 -62.349  1.00  0.00     0.170 HD
ENDBRANCH   2  20
TORSDOF 6
ENDMDL
MODEL 4
REMARK VINA RESULT:      -8.1      3.718      7.541
REMARK  6 active torsions:
REMARK  status: ('A' for Active; 'I' for Inactive)
REMARK    1  A    between atoms: C_2  and  C_3 
REMARK    2  A    between atoms: C_3  and  N_4 
REMARK    3  A    between atoms: C_5  and  S_6 
REMARK    4  A    between atoms: S_6  and  C_7 
REMARK    5  A    between atoms: C_7  and  C_8 
REMARK       I    between atoms: C_8  and  N_9 
REMARK    6  A    between atoms: N_9  and  C_10 
ROOT
HETATM    1  C   UNL     1     -42.592  56.159 -52.005  1.00  0.00     0.231 C 
HETATM    2  N   UNL     1     -41.291  55.782 -52.311  1.00  0.00    -0.325 N 
HETATM    3  O   UNL     1     -43.485  55.376 -51.688  1.00  0.00    -0.272 OA
HETATM    4  H   UNL     1     -40.610  56.494 -52.068  1.00  0.00     0.169 HD
ENDROOT
BRANCH   1   5
HETATM    5  C   UNL     1     -42.874  57.653 -52.094  1.00  0.00     0.185 C 
BRANCH   5   6
HETATM    6  S   UNL     1     -41.723  58.524 -53.209  1.00  0.00    -0.083 SA
BRANCH   6   7
HETATM    7  C   UNL     1     -42.367  58.050 -54.750  1.00  0.00     0.170 A 
HETATM    8  N   UNL     1     -43.321  58.767 -55.432  1.00  0.00    -0.324 N 
HETATM    9  C   UNL     1     -43.659  58.034 -56.554  1.00  0.00     0.065 A 
HETATM   10  C   UNL     1     -42.830  56.915 -56.494  1.00  0.00     0.088 A 
HETATM   11  C   UNL     1     -44.578  58.233 -57.593  1.00  0.00     0.034 A 
HETATM   12  N   UNL     1     -42.033  56.952 -55.382  1.00  0.00    -0.222 NA
HETATM   13  C   UNL     1     -42.901  55.937 -57.496  1.00  0.00     0.057 A 
HETATM   14  C   UNL     1     -43.818  56.121 -58.534  1.00  0.00     0.036 A 
HETATM   15 CL   UNL     1     -43.936  54.932 -59.775  1.00  0.00    -0.084 Cl
HETATM   16  C   UNL     1     -44.642  57.246 -58.584  1.00  0.00     0.026 A 
BRANCH   8  17
HETATM   17  C   UNL     1     -43.905  60.041 -55.057  1.00  0.00     0.131 C 
BRANCH  17  18
HETATM   18  C   UNL     1     -45.196  59.919 -54.244  1.00  0.00     0.016 C 
HETATM   19  C   UNL     1     -45.130  60.620 -52.893  1.00  0.00     0.006 C 
ENDBRANCH  17  18
ENDBRANCH   8  17
ENDBRANCH   6   7
ENDBRANCH   5   6
ENDBRANCH   1   5
BRANCH   2  20
HETATM   20  C   UNL     1     -40.861  54.433 -52.245  1.00  0.00     0.054 A 
HETATM   21  C   UNL     1     -40.386  53.810 -51.053  1.00  0.00     0.040 A 
HETATM   22 BR   UNL     1     -40.561  54.616 -49.332  1.00  0.00    -0.049 Br
HETATM   23  C   UNL     1     -39.900  52.493 -51.063  1.00  0.00     0.053 A 
HETATM   24  C   UNL     1     -39.936  51.831 -52.265  1.00  0.00     0.064 A 
HETATM   25  C   UNL     1     -40.450  52.414 -53.420  1.00  0.00     0.065 A 
HETATM   26  N   UNL     1     -39.526  50.540 -52.581  1.00  0.00    -0.306 N 
HETATM   27  N   UNL     1     -40.354  51.483 -54.448  1.00  0.00    -0.306 N 
HETATM   28  C   UNL     1     -40.934  53.701 -53.442  1.00  0.00     0.063 A 
HETATM   29  C   UNL     1     -39.775  50.310 -53.942  1.00  0.00     0.325 A 
HETATM   30  H   UNL     1     -40.627  51.596 -55.410  1.00  0.00     0.170 HD
HETATM   31  O   UNL     1     -39.537  49.291 -54.564  1.00  0.00    -0.247 OA
HETATM   32  H   UNL     1     -39.106  49.863 -51.967  1.00  0.00     0.170 HD
ENDBRANCH   2  20
TORSDOF 6
ENDMDL
MODEL 5
REMARK VINA RESULT:      -7.8      1.633      1.889
REMARK  6 active torsions:
REMARK  status: ('A' for Active; 'I' for Inactive)
REMARK    1  A    between atoms: C_2  and  C_3 
REMARK    2  A    between atoms: C_3  and  N_4 
REMARK    3  A    between atoms: C_5  and  S_6 
REMARK    4  A    between atoms: S_6  and  C_7 
REMARK    5  A    between atoms: C_7  and  C_8 
REMARK       I    between atoms: C_8  and  N_9 
REMARK    6  A    between atoms: N_9  and  C_10 
ROOT
HETATM    1  C   UNL     1     -42.930  57.211 -56.202  1.00  0.00     0.231 C 
HETATM    2  N   UNL     1     -42.621  57.340 -57.550  1.00  0.00    -0.325 N 
HETATM    3  O   UNL     1     -44.060  57.337 -55.734  1.00  0.00    -0.272 OA
HETATM    4  H   UNL     1     -41.838  56.758 -57.829  1.00  0.00     0.169 HD
ENDROOT
BRANCH   1   5
HETATM    5  C   UNL     1     -41.749  56.903 -55.291  1.00  0.00     0.185 C 
BRANCH   5   6
HETATM    6  S   UNL     1     -42.251  56.599 -53.563  1.00  0.00    -0.083 SA
BRANCH   6   7
HETATM    7  C   UNL     1     -41.580  55.016 -53.322  1.00  0.00     0.170 A 
HETATM    8  N   UNL     1     -41.095  54.567 -52.117  1.00  0.00    -0.324 N 
HETATM    9  C   UNL     1     -40.553  53.314 -52.334  1.00  0.00     0.065 A 
HETATM   10  C   UNL     1     -40.795  53.067 -53.685  1.00  0.00     0.088 A 
HETATM   11  C   UNL     1     -39.897  52.392 -51.508  1.00  0.00     0.034 A 
HETATM   12  N   UNL     1     -41.441  54.121 -54.270  1.00  0.00    -0.222 NA
HETATM   13  C   UNL     1     -40.375  51.860 -54.261  1.00  0.00     0.057 A 
HETATM   14  C   UNL     1     -39.714  50.936 -53.448  1.00  0.00     0.036 A 
HETATM   15 CL   UNL     1     -39.176  49.447 -54.130  1.00  0.00    -0.084 Cl
HETATM   16  C   UNL     1     -39.478  51.194 -52.097  1.00  0.00     0.026 A 
BRANCH   8  17
HETATM   17  C   UNL     1     -41.108  55.265 -50.845  1.00  0.00     0.131 C 
BRANCH  17  18
HETATM   18  C   UNL     1     -42.174  54.762 -49.868  1.00  0.00     0.016 C 
HETATM   19  C   UNL     1     -43.560  54.651 -50.489  1.00  0.00     0.006 C 
ENDBRANCH  17  18
ENDBRANCH   8  17
ENDBRANCH   6   7
ENDBRANCH   5   6
ENDBRANCH   1   5
BRANCH   2  20
HETATM   20  C   UNL     1     -43.612  57.594 -58.530  1.00  0.00     0.054 A 
HETATM   21  C   UNL     1     -43.726  58.826 -59.241  1.00  0.00     0.040 A 
HETATM   22 BR   UNL     1     -42.374  60.172 -59.190  1.00  0.00    -0.049 Br
HETATM   23  C   UNL     1     -44.775  59.051 -60.146  1.00  0.00     0.053 A 
HETATM   24  C   UNL     1     -45.661  58.019 -60.333  1.00  0.00     0.064 A 
HETATM   25  C   UNL     1     -45.524  56.794 -59.684  1.00  0.00     0.065 A 
HETATM   26  N   UNL     1     -46.785  57.949 -61.148  1.00  0.00    -0.306 N 
HETATM   27  N   UNL     1     -46.565  55.972 -60.098  1.00  0.00    -0.306 N 
HETATM   28  C   UNL     1     -44.506  56.544 -58.793  1.00  0.00     0.063 A 
HETATM   29  C   UNL     1     -47.364  56.679 -61.009  1.00  0.00     0.325 A 
HETATM   30  H   UNL     1     -46.759  55.028 -59.807  1.00  0.00     0.170 HD
HETATM   31  O   UNL     1     -48.365  56.269 -61.568  1.00  0.00    -0.247 OA
HETATM   32  H   UNL     1     -47.158  58.671 -61.742  1.00  0.00     0.170 HD
ENDBRANCH   2  20
TORSDOF 6
ENDMDL
MODEL 6
REMARK VINA RESULT:      -7.7      3.721      8.144
REMARK  6 active torsions:
REMARK  status: ('A' for Active; 'I' for Inactive)
REMARK    1  A    between atoms: C_2  and  C_3 
REMARK    2  A    between atoms: C_3  and  N_4 
REMARK    3  A    between atoms: C_5  and  S_6 
REMARK    4  A    between atoms: S_6  and  C_7 
REMARK    5  A    between atoms: C_7  and  C_8 
REMARK       I    between atoms: C_8  and  N_9 
REMARK    6  A    between atoms: N_9  and  C_10 
ROOT
HETATM    1  C   UNL     1     -41.785  56.819 -53.557  1.00  0.00     0.231 C 
HETATM    2  N   UNL     1     -42.335  55.703 -52.939  1.00  0.00    -0.325 N 
HETATM    3  O   UNL     1     -40.608  56.912 -53.901  1.00  0.00    -0.272 OA
HETATM    4  H   UNL     1     -43.316  55.575 -53.165  1.00  0.00     0.169 HD
ENDROOT
BRANCH   1   5
HETATM    5  C   UNL     1     -42.748  57.976 -53.787  1.00  0.00     0.185 C 
BRANCH   5   6
HETATM    6  S   UNL     1     -42.214  59.082 -55.136  1.00  0.00    -0.083 SA
BRANCH   6   7
HETATM    7  C   UNL     1     -43.081  58.385 -56.468  1.00  0.00     0.170 A 
HETATM    8  N   UNL     1     -44.359  58.747 -56.821  1.00  0.00    -0.324 N 
HETATM    9  C   UNL     1     -44.752  57.913 -57.851  1.00  0.00     0.065 A 
HETATM   10  C   UNL     1     -43.636  57.110 -58.085  1.00  0.00     0.088 A 
HETATM   11  C   UNL     1     -45.937  57.783 -58.586  1.00  0.00     0.034 A 
HETATM   12  N   UNL     1     -42.614  57.428 -57.232  1.00  0.00    -0.222 NA
HETATM   13  C   UNL     1     -43.677  56.130 -59.087  1.00  0.00     0.057 A 
HETATM   14  C   UNL     1     -44.856  55.988 -59.822  1.00  0.00     0.036 A 
HETATM   15 CL   UNL     1     -44.941  54.785 -61.054  1.00  0.00    -0.084 Cl
HETATM   16  C   UNL     1     -45.967  56.797 -59.579  1.00  0.00     0.026 A 
BRANCH   8  17
HETATM   17  C   UNL     1     -45.179  59.785 -56.226  1.00  0.00     0.131 C 
BRANCH  17  18
HETATM   18  C   UNL     1     -45.309  61.047 -57.083  1.00  0.00     0.016 C 
HETATM   19  C   UNL     1     -44.027  61.866 -57.151  1.00  0.00     0.006 C 
ENDBRANCH  17  18
ENDBRANCH   8  17
ENDBRANCH   6   7
ENDBRANCH   5   6
ENDBRANCH   1   5
BRANCH   2  20
HETATM   20  C   UNL     1     -41.578  54.533 -52.683  1.00  0.00     0.054 A 
HETATM   21  C   UNL     1     -40.846  54.310 -51.479  1.00  0.00     0.040 A 
HETATM   22 BR   UNL     1     -41.045  55.414 -49.935  1.00  0.00    -0.049 Br
HETATM   23  C   UNL     1     -40.051  53.165 -51.311  1.00  0.00     0.053 A 
HETATM   24  C   UNL     1     -40.039  52.264 -52.347  1.00  0.00     0.064 A 
HETATM   25  C   UNL     1     -40.794  52.449 -53.502  1.00  0.00     0.065 A 
HETATM   26  N   UNL     1     -39.354  51.061 -52.470  1.00  0.00    -0.306 N 
HETATM   27  N   UNL     1     -40.571  51.361 -54.337  1.00  0.00    -0.306 N 
HETATM   28  C   UNL     1     -41.584  53.559 -53.695  1.00  0.00     0.063 A 
HETATM   29  C   UNL     1     -39.671  50.487 -53.710  1.00  0.00     0.325 A 
HETATM   30  H   UNL     1     -40.958  51.195 -55.252  1.00  0.00     0.170 HD
HETATM   31  O   UNL     1     -39.248  49.436 -54.156  1.00  0.00    -0.247 OA
HETATM   32  H   UNL     1     -38.719  50.646 -51.808  1.00  0.00     0.170 HD
ENDBRANCH   2  20
TORSDOF 6
ENDMDL
MODEL 7
REMARK VINA RESULT:      -7.7      4.098      8.823
REMARK  6 active torsions:
REMARK  status: ('A' for Active; 'I' for Inactive)
REMARK    1  A    between atoms: C_2  and  C_3 
REMARK    2  A    between atoms: C_3  and  N_4 
REMARK    3  A    between atoms: C_5  and  S_6 
REMARK    4  A    between atoms: S_6  and  C_7 
REMARK    5  A    between atoms: C_7  and  C_8 
REMARK       I    between atoms: C_8  and  N_9 
REMARK    6  A    between atoms: N_9  and  C_10 
ROOT
HETATM    1  C   UNL     1     -42.531  56.143 -54.137  1.00  0.00     0.231 C 
HETATM    2  N   UNL     1     -41.213  55.811 -53.846  1.00  0.00    -0.325 N 
HETATM    3  O   UNL     1     -43.490  55.395 -53.957  1.00  0.00    -0.272 OA
HETATM    4  H   UNL     1     -40.657  56.617 -53.580  1.00  0.00     0.169 HD
ENDROOT
BRANCH   1   5
HETATM    5  C   UNL     1     -42.737  57.533 -54.724  1.00  0.00     0.185 C 
BRANCH   5   6
HETATM    6  S   UNL     1     -44.272  57.666 -55.702  1.00  0.00    -0.083 SA
BRANCH   6   7
HETATM    7  C   UNL     1     -43.648  58.373 -57.160  1.00  0.00     0.170 A 
HETATM    8  N   UNL     1     -43.372  57.656 -58.299  1.00  0.00    -0.324 N 
HETATM    9  C   UNL     1     -42.799  58.530 -59.204  1.00  0.00     0.065 A 
HETATM   10  C   UNL     1     -42.809  59.759 -58.546  1.00  0.00     0.088 A 
HETATM   11  C   UNL     1     -42.289  58.376 -60.500  1.00  0.00     0.034 A 
HETATM   12  N   UNL     1     -43.350  59.642 -57.294  1.00  0.00    -0.222 NA
HETATM   13  C   UNL     1     -42.296  60.897 -59.183  1.00  0.00     0.057 A 
HETATM   14  C   UNL     1     -41.779  60.755 -60.473  1.00  0.00     0.036 A 
HETATM   15 CL   UNL     1     -41.131  62.135 -61.278  1.00  0.00    -0.084 Cl
HETATM   16  C   UNL     1     -41.774  59.519 -61.122  1.00  0.00     0.026 A 
BRANCH   8  17
HETATM   17  C   UNL     1     -43.599  56.242 -58.529  1.00  0.00     0.131 C 
BRANCH  17  18
HETATM   18  C   UNL     1     -44.718  55.945 -59.531  1.00  0.00     0.016 C 
HETATM   19  C   UNL     1     -44.695  54.516 -60.058  1.00  0.00     0.006 C 
ENDBRANCH  17  18
ENDBRANCH   8  17
ENDBRANCH   6   7
ENDBRANCH   5   6
ENDBRANCH   1   5
BRANCH   2  20
HETATM   20  C   UNL     1     -40.859  54.568 -53.266  1.00  0.00     0.054 A 
HETATM   21  C   UNL     1     -40.670  54.371 -51.865  1.00  0.00     0.040 A 
HETATM   22 BR   UNL     1     -41.174  55.675 -50.567  1.00  0.00    -0.049 Br
HETATM   23  C   UNL     1     -40.245  53.135 -51.354  1.00  0.00     0.053 A 
HETATM   24  C   UNL     1     -40.051  52.125 -52.263  1.00  0.00     0.064 A 
HETATM   25  C   UNL     1     -40.287  52.294 -53.624  1.00  0.00     0.065 A 
HETATM   26  N   UNL     1     -39.633  50.814 -52.059  1.00  0.00    -0.306 N 
HETATM   27  N   UNL     1     -40.011  51.089 -54.260  1.00  0.00    -0.306 N 
HETATM   28  C   UNL     1     -40.706  53.492 -54.156  1.00  0.00     0.063 A 
HETATM   29  C   UNL     1     -39.597  50.156 -53.297  1.00  0.00     0.325 A 
HETATM   30  H   UNL     1     -40.070  50.882 -55.243  1.00  0.00     0.170 HD
HETATM   31  O   UNL     1     -39.272  49.000 -53.499  1.00  0.00    -0.247 OA
HETATM   32  H   UNL     1     -39.378  50.380 -51.188  1.00  0.00     0.170 HD
ENDBRANCH   2  20
TORSDOF 6
ENDMDL
MODEL 8
REMARK VINA RESULT:      -7.4      2.918      3.709
REMARK  6 active torsions:
REMARK  status: ('A' for Active; 'I' for Inactive)
REMARK    1  A    between atoms: C_2  and  C_3 
REMARK    2  A    between atoms: C_3  and  N_4 
REMARK    3  A    between atoms: C_5  and  S_6 
REMARK    4  A    between atoms: S_6  and  C_7 
REMARK    5  A    between atoms: C_7  and  C_8 
REMARK       I    between atoms: C_8  and  N_9 
REMARK    6  A    between atoms: N_9  and  C_10 
ROOT
HETATM    1  C   UNL     1     -43.257  57.541 -57.975  1.00  0.00     0.231 C 
HETATM    2  N   UNL     1     -44.554  57.054 -57.880  1.00  0.00    -0.325 N 
HETATM    3  O   UNL     1     -42.725  57.897 -59.025  1.00  0.00    -0.272 OA
HETATM    4  H   UNL     1     -44.989  57.271 -56.990  1.00  0.00     0.169 HD
ENDROOT
BRANCH   1   5
HETATM    5  C   UNL     1     -42.489  57.607 -56.662  1.00  0.00     0.185 C 
BRANCH   5   6
HETATM    6  S   UNL     1     -43.538  57.257 -55.212  1.00  0.00    -0.083 SA
BRANCH   6   7
HETATM    7  C   UNL     1     -42.700  55.890 -54.547  1.00  0.00     0.170 A 
HETATM    8  N   UNL     1     -42.431  55.736 -53.209  1.00  0.00    -0.324 N 
HETATM    9  C   UNL     1     -41.666  54.593 -53.073  1.00  0.00     0.065 A 
HETATM   10  C   UNL     1     -41.560  54.097 -54.372  1.00  0.00     0.088 A 
HETATM   11  C   UNL     1     -41.074  53.954 -51.976  1.00  0.00     0.034 A 
HETATM   12  N   UNL     1     -42.217  54.903 -55.262  1.00  0.00    -0.222 NA
HETATM   13  C   UNL     1     -40.840  52.919 -54.615  1.00  0.00     0.057 A 
HETATM   14  C   UNL     1     -40.241  52.276 -53.529  1.00  0.00     0.036 A 
HETATM   15 CL   UNL     1     -39.340  50.832 -53.796  1.00  0.00    -0.084 Cl
HETATM   16  C   UNL     1     -40.353  52.782 -52.233  1.00  0.00     0.026 A 
BRANCH   8  17
HETATM   17  C   UNL     1     -42.833  56.607 -52.120  1.00  0.00     0.131 C 
BRANCH  17  18
HETATM   18  C   UNL     1     -41.824  57.713 -51.801  1.00  0.00     0.016 C 
HETATM   19  C   UNL     1     -40.961  57.411 -50.583  1.00  0.00     0.006 C 
ENDBRANCH  17  18
ENDBRANCH   8  17
ENDBRANCH   6   7
ENDBRANCH   5   6
ENDBRANCH   1   5
BRANCH   2  20
HETATM   20  C   UNL     1     -45.409  56.959 -59.006  1.00  0.00     0.054 A 
HETATM   21  C   UNL     1     -45.416  55.852 -59.906  1.00  0.00     0.040 A 
HETATM   22 BR   UNL     1     -44.502  54.219 -59.534  1.00  0.00    -0.049 Br
HETATM   23  C   UNL     1     -46.231  55.847 -61.049  1.00  0.00     0.053 A 
HETATM   24  C   UNL     1     -47.037  56.943 -61.238  1.00  0.00     0.064 A 
HETATM   25  C   UNL     1     -47.075  58.002 -60.335  1.00  0.00     0.065 A 
HETATM   26  N   UNL     1     -47.933  57.221 -62.263  1.00  0.00    -0.306 N 
HETATM   27  N   UNL     1     -47.993  58.933 -60.807  1.00  0.00    -0.306 N 
HETATM   28  C   UNL     1     -46.290  58.035 -59.205  1.00  0.00     0.063 A 
HETATM   29  C   UNL     1     -48.534  58.463 -62.012  1.00  0.00     0.325 A 
HETATM   30  H   UNL     1     -48.245  59.816 -60.393  1.00  0.00     0.170 HD
HETATM   31  O   UNL     1     -49.364  59.024 -62.704  1.00  0.00    -0.247 OA
HETATM   32  H   UNL     1     -48.134  56.656 -63.073  1.00  0.00     0.170 HD
ENDBRANCH   2  20
TORSDOF 6
ENDMDL
MODEL 9
REMARK VINA RESULT:      -7.4     15.536     17.721
REMARK  6 active torsions:
REMARK  status: ('A' for Active; 'I' for Inactive)
REMARK    1  A    between atoms: C_2  and  C_3 
REMARK    2  A    between atoms: C_3  and  N_4 
REMARK    3  A    between atoms: C_5  and  S_6 
REMARK    4  A    between atoms: S_6  and  C_7 
REMARK    5  A    between atoms: C_7  and  C_8 
REMARK       I    between atoms: C_8  and  N_9 
REMARK    6  A    between atoms: N_9  and  C_10 
ROOT
HETATM    1  C   UNL     1     -34.329  40.685 -52.725  1.00  0.00     0.231 C 
HETATM    2  N   UNL     1     -34.952  41.808 -53.255  1.00  0.00    -0.325 N 
HETATM    3  O   UNL     1     -34.509  39.537 -53.129  1.00  0.00    -0.272 OA
HETATM    4  H   UNL     1     -34.378  42.642 -53.184  1.00  0.00     0.169 HD
ENDROOT
BRANCH   1   5
HETATM    5  C   UNL     1     -33.380  40.953 -51.565  1.00  0.00     0.185 C 
BRANCH   5   6
HETATM    6  S   UNL     1     -31.932  39.842 -51.565  1.00  0.00    -0.083 SA
BRANCH   6   7
HETATM    7  C   UNL     1     -31.892  39.388 -49.890  1.00  0.00     0.170 A 
HETATM    8  N   UNL     1     -32.788  38.522 -49.311  1.00  0.00    -0.324 N 
HETATM    9  C   UNL     1     -32.508  38.487 -47.958  1.00  0.00     0.065 A 
HETATM   10  C   UNL     1     -31.403  39.323 -47.816  1.00  0.00     0.088 A 
HETATM   11  C   UNL     1     -33.091  37.821 -46.872  1.00  0.00     0.034 A 
HETATM   12  N   UNL     1     -31.031  39.857 -49.020  1.00  0.00    -0.222 NA
HETATM   13  C   UNL     1     -30.835  39.524 -46.549  1.00  0.00     0.057 A 
HETATM   14  C   UNL     1     -31.412  38.870 -45.458  1.00  0.00     0.036 A 
HETATM   15 CL   UNL     1     -30.744  39.105 -43.886  1.00  0.00    -0.084 Cl
HETATM   16  C   UNL     1     -32.519  38.035 -45.612  1.00  0.00     0.026 A 
BRANCH   8  17
HETATM   17  C   UNL     1     -33.857  37.791 -49.965  1.00  0.00     0.131 C 
BRANCH  17  18
HETATM   18  C   UNL     1     -35.246  38.402 -49.762  1.00  0.00     0.016 C 
HETATM   19  C   UNL     1     -36.322  37.760 -50.627  1.00  0.00     0.006 C 
ENDBRANCH  17  18
ENDBRANCH   8  17
ENDBRANCH   6   7
ENDBRANCH   5   6
ENDBRANCH   1   5
BRANCH   2  20
HETATM   20  C   UNL     1     -35.838  41.730 -54.357  1.00  0.00     0.054 A 
HETATM   21  C   UNL     1     -37.187  41.274 -54.259  1.00  0.00     0.040 A 
HETATM   22 BR   UNL     1     -38.064  41.010 -52.585  1.00  0.00    -0.049 Br
HETATM   23  C   UNL     1     -37.997  41.145 -55.398  1.00  0.00     0.053 A 
HETATM   24  C   UNL     1     -37.437  41.506 -56.598  1.00  0.00     0.064 A 
HETATM   25  C   UNL     1     -36.140  42.004 -56.694  1.00  0.00     0.065 A 
HETATM   26  N   UNL     1     -37.983  41.483 -57.877  1.00  0.00    -0.306 N 
HETATM   27  N   UNL     1     -35.887  42.284 -58.032  1.00  0.00    -0.306 N 
HETATM   28  C   UNL     1     -35.323  42.144 -55.596  1.00  0.00     0.063 A 
HETATM   29  C   UNL     1     -37.025  41.960 -58.784  1.00  0.00     0.325 A 
HETATM   30  H   UNL     1     -35.038  42.644 -58.437  1.00  0.00     0.170 HD
HETATM   31  O   UNL     1     -37.156  42.072 -59.989  1.00  0.00    -0.247 OA
HETATM   32  H   UNL     1     -38.901  41.171 -58.146  1.00  0.00     0.170 HD
ENDBRANCH   2  20
TORSDOF 6
ENDMDL
MODEL 10
REMARK VINA RESULT:      -7.2      4.391      8.711
REMARK  6 active torsions:
REMARK  status: ('A' for Active; 'I' for Inactive)
REMARK    1  A    between atoms: C_2  and  C_3 
REMARK    2  A    between atoms: C_3  and  N_4 
REMARK    3  A    between atoms: C_5  and  S_6 
REMARK    4  A    between atoms: S_6  and  C_7 
REMARK    5  A    between atoms: C_7  and  C_8 
REMARK       I    between atoms: C_8  and  N_9 
REMARK    6  A    between atoms: N_9  and  C_10 
ROOT
HETATM    1  C   UNL     1     -41.747  56.969 -53.533  1.00  0.00     0.231 C 
HETATM    2  N   UNL     1     -42.347  55.813 -53.051  1.00  0.00    -0.325 N 
HETATM    3  O   UNL     1     -40.539  57.096 -53.726  1.00  0.00    -0.272 OA
HETATM    4  H   UNL     1     -43.291  55.686 -53.400  1.00  0.00     0.169 HD
ENDROOT
BRANCH   1   5
HETATM    5  C   UNL     1     -42.698  58.126 -53.814  1.00  0.00     0.185 C 
BRANCH   5   6
HETATM    6  S   UNL     1     -42.222  59.088 -55.290  1.00  0.00    -0.083 SA
BRANCH   6   7
HETATM    7  C   UNL     1     -43.718  59.061 -56.171  1.00  0.00     0.170 A 
HETATM    8  N   UNL     1     -44.075  58.057 -57.039  1.00  0.00    -0.324 N 
HETATM    9  C   UNL     1     -45.270  58.429 -57.625  1.00  0.00     0.065 A 
HETATM   10  C   UNL     1     -45.584  59.645 -57.020  1.00  0.00     0.088 A 
HETATM   11  C   UNL     1     -46.092  57.839 -58.594  1.00  0.00     0.034 A 
HETATM   12  N   UNL     1     -44.622  60.009 -56.117  1.00  0.00    -0.222 NA
HETATM   13  C   UNL     1     -46.758  60.323 -57.379  1.00  0.00     0.057 A 
HETATM   14  C   UNL     1     -47.582  59.747 -58.349  1.00  0.00     0.036 A 
HETATM   15 CL   UNL     1     -49.026  60.561 -58.819  1.00  0.00    -0.084 Cl
HETATM   16  C   UNL     1     -47.258  58.528 -58.947  1.00  0.00     0.026 A 
BRANCH   8  17
HETATM   17  C   UNL     1     -43.343  56.839 -57.330  1.00  0.00     0.131 C 
BRANCH  17  18
HETATM   18  C   UNL     1     -42.588  56.868 -58.661  1.00  0.00     0.016 C 
HETATM   19  C   UNL     1     -43.059  55.808 -59.648  1.00  0.00     0.006 C 
ENDBRANCH  17  18
ENDBRANCH   8  17
ENDBRANCH   6   7
ENDBRANCH   5   6
ENDBRANCH   1   5
BRANCH   2  20
HETATM   20  C   UNL     1     -41.604  54.639 -52.770  1.00  0.00     0.054 A 
HETATM   21  C   UNL     1     -40.898  54.421 -51.550  1.00  0.00     0.040 A 
HETATM   22 BR   UNL     1     -41.118  55.539 -50.020  1.00  0.00    -0.049 Br
HETATM   23  C   UNL     1     -40.115  53.272 -51.357  1.00  0.00     0.053 A 
HETATM   24  C   UNL     1     -40.090  52.361 -52.384  1.00  0.00     0.064 A 
HETATM   25  C   UNL     1     -40.821  52.542 -53.555  1.00  0.00     0.065 A 
HETATM   26  N   UNL     1     -39.412  51.152 -52.484  1.00  0.00    -0.306 N 
HETATM   27  N   UNL     1     -40.591  51.445 -54.377  1.00  0.00    -0.306 N 
HETATM   28  C   UNL     1     -41.598  53.656 -53.773  1.00  0.00     0.063 A 
HETATM   29  C   UNL     1     -39.709  50.570 -53.725  1.00  0.00     0.325 A 
HETATM   30  H   UNL     1     -40.960  51.275 -55.298  1.00  0.00     0.170 HD
HETATM   31  O   UNL     1     -39.286  49.512 -54.154  1.00  0.00    -0.247 OA
HETATM   32  H   UNL     1     -38.793  50.738 -51.807  1.00  0.00     0.170 HD
ENDBRANCH   2  20
TORSDOF 6
ENDMDL
