MODEL 1
REMARK VINA RESULT:      -8.4      0.000      0.000
REMARK  10 active torsions:
REMARK  status: ('A' for Active; 'I' for Inactive)
REMARK    1  A    between atoms: C_2  and  C_3 
REMARK    2  A    between atoms: C_3  and  C_4 
REMARK    3  A    between atoms: C_4  and  O_5 
REMARK    4  A    between atoms: O_5  and  C_6 
REMARK    5  A    between atoms: C_9  and  C_10 
REMARK       I    between atoms: C_10  and  N_11 
REMARK    6  A    between atoms: N_11  and  C_12 
REMARK    7  A    between atoms: C_12  and  N_13 
REMARK    8  A    between atoms: N_13  and  C_14 
REMARK    9  A    between atoms: C_16  and  C_17 
REMARK   10  A    between atoms: C_26  and  O_27 
ROOT
HETATM    1  N   UNL     1     -41.133  59.139 -53.621  1.00  0.00    -0.333 N 
HETATM    2  H   UNL     1     -40.203  59.554 -53.699  1.00  0.00     0.168 HD
ENDROOT
BRANCH   1   3
HETATM    3  C   UNL     1     -42.019  59.627 -54.555  1.00  0.00     0.179 C 
HETATM    4  S   UNL     1     -43.005  60.975 -54.498  1.00  0.00    -0.040 SA
BRANCH   3   5
HETATM    5  N   UNL     1     -42.114  58.882 -55.717  1.00  0.00    -0.299 N 
HETATM    6  C   UNL     1     -41.872  59.248 -57.033  1.00  0.00     0.257 C 
HETATM    7  O   UNL     1     -41.282  60.266 -57.374  1.00  0.00    -0.267 OA
HETATM    8  H   UNL     1     -42.427  57.934 -55.547  1.00  0.00     0.171 HD
BRANCH   6   9
HETATM    9  C   UNL     1     -42.317  58.240 -58.025  1.00  0.00     0.032 A 
HETATM   10  C   UNL     1     -42.317  58.555 -59.391  1.00  0.00     0.020 A 
HETATM   11  C   UNL     1     -42.801  57.629 -60.317  1.00  0.00     0.038 A 
HETATM   12  C   UNL     1     -43.266  56.389 -59.881  1.00  0.00     0.068 A 
HETATM   13  C   UNL     1     -43.269  56.078 -58.520  1.00  0.00     0.038 A 
HETATM   14  C   UNL     1     -42.775  56.996 -57.588  1.00  0.00     0.020 A 
BRANCH  12  15
HETATM   15  O   UNL     1     -43.829  55.479 -60.733  1.00  0.00    -0.351 OA
BRANCH  15  16
HETATM   16  C   UNL     1     -45.125  55.041 -60.309  1.00  0.00     0.175 C 
BRANCH  16  17
HETATM   17  C   UNL     1     -46.185  55.940 -60.945  1.00  0.00     0.026 C 
BRANCH  17  18
HETATM   18  C   UNL     1     -47.163  56.498 -59.907  1.00  0.00    -0.002 C 
HETATM   19  C   UNL     1     -46.569  57.685 -59.164  1.00  0.00     0.005 C 
ENDBRANCH  17  18
ENDBRANCH  16  17
ENDBRANCH  15  16
ENDBRANCH  12  15
ENDBRANCH   6   9
ENDBRANCH   3   5
ENDBRANCH   1   3
BRANCH   1  20
HETATM   20  C   UNL     1     -41.259  58.124 -52.641  1.00  0.00     0.035 A 
HETATM   21  C   UNL     1     -40.965  56.806 -53.041  1.00  0.00     0.046 A 
HETATM   22  C   UNL     1     -41.050  55.717 -52.146  1.00  0.00     0.035 A 
HETATM   23  C   UNL     1     -41.432  56.001 -50.822  1.00  0.00     0.078 A 
HETATM   24  C   UNL     1     -41.696  57.302 -50.406  1.00  0.00     0.040 A 
HETATM   25  C   UNL     1     -41.603  58.357 -51.311  1.00  0.00     0.032 A 
BRANCH  22  26
HETATM   26  C   UNL     1     -40.764  54.318 -52.540  1.00  0.00     0.112 A 
HETATM   27  S   UNL     1     -41.040  53.709 -54.124  1.00  0.00    -0.067 SA
HETATM   28  C   UNL     1     -40.452  52.162 -53.655  1.00  0.00     0.035 A 
HETATM   29  C   UNL     1     -40.081  52.210 -52.312  1.00  0.00     0.075 A 
HETATM   30  C   UNL     1     -40.325  50.988 -54.415  1.00  0.00     0.021 A 
HETATM   31  N   UNL     1     -40.259  53.435 -51.693  1.00  0.00    -0.239 NA
HETATM   32  C   UNL     1     -39.567  51.047 -51.704  1.00  0.00     0.033 A 
HETATM   33  C   UNL     1     -39.437  49.872 -52.451  1.00  0.00     0.002 A 
HETATM   34  C   UNL     1     -39.812  49.846 -53.791  1.00  0.00     0.002 A 
ENDBRANCH  22  26
BRANCH  23  35
HETATM   35  O   UNL     1     -41.559  55.041 -49.850  1.00  0.00    -0.360 OA
HETATM   36  H   UNL     1     -42.176  54.355 -50.189  1.00  0.00     0.217 HD
ENDBRANCH  23  35
ENDBRANCH   1  20
TORSDOF 10
ENDMDL
MODEL 2
REMARK VINA RESULT:      -8.1      1.373      1.432
REMARK  10 active torsions:
REMARK  status: ('A' for Active; 'I' for Inactive)
REMARK    1  A    between atoms: C_2  and  C_3 
REMARK    2  A    between atoms: C_3  and  C_4 
REMARK    3  A    between atoms: C_4  and  O_5 
REMARK    4  A    between atoms: O_5  and  C_6 
REMARK    5  A    between atoms: C_9  and  C_10 
REMARK       I    between atoms: C_10  and  N_11 
REMARK    6  A    between atoms: N_11  and  C_12 
REMARK    7  A    between atoms: C_12  and  N_13 
REMARK    8  A    between atoms: N_13  and  C_14 
REMARK    9  A    between atoms: C_16  and  C_17 
REMARK   10  A    between atoms: C_26  and  O_27 
ROOT
HETATM    1  N   UNL     1     -42.884  59.845 -53.316  1.00  0.00    -0.333 N 
HETATM    2  H   UNL     1     -42.191  60.419 -52.833  1.00  0.00     0.168 HD
ENDROOT
BRANCH   1   3
HETATM    3  C   UNL     1     -43.220  60.337 -54.556  1.00  0.00     0.179 C 
HETATM    4  S   UNL     1     -43.823  61.835 -54.991  1.00  0.00    -0.040 SA
BRANCH   3   5
HETATM    5  N   UNL     1     -43.038  59.454 -55.606  1.00  0.00    -0.299 N 
HETATM    6  C   UNL     1     -42.217  59.551 -56.721  1.00  0.00     0.257 C 
HETATM    7  O   UNL     1     -41.305  60.359 -56.844  1.00  0.00    -0.267 OA
HETATM    8  H   UNL     1     -43.621  58.630 -55.527  1.00  0.00     0.171 HD
BRANCH   6   9
HETATM    9  C   UNL     1     -42.478  58.512 -57.747  1.00  0.00     0.032 A 
HETATM   10  C   UNL     1     -42.087  58.728 -59.075  1.00  0.00     0.020 A 
HETATM   11  C   UNL     1     -42.395  57.779 -60.051  1.00  0.00     0.038 A 
HETATM   12  C   UNL     1     -43.074  56.613 -59.698  1.00  0.00     0.068 A 
HETATM   13  C   UNL     1     -43.467  56.402 -58.375  1.00  0.00     0.038 A 
HETATM   14  C   UNL     1     -43.152  57.343 -57.390  1.00  0.00     0.020 A 
BRANCH  12  15
HETATM   15  O   UNL     1     -43.476  55.692 -60.626  1.00  0.00    -0.351 OA
BRANCH  15  16
HETATM   16  C   UNL     1     -44.685  55.017 -60.258  1.00  0.00     0.175 C 
BRANCH  16  17
HETATM   17  C   UNL     1     -45.852  55.636 -61.027  1.00  0.00     0.026 C 
BRANCH  17  18
HETATM   18  C   UNL     1     -46.828  56.366 -60.099  1.00  0.00    -0.002 C 
HETATM   19  C   UNL     1     -46.562  57.864 -60.078  1.00  0.00     0.005 C 
ENDBRANCH  17  18
ENDBRANCH  16  17
ENDBRANCH  15  16
ENDBRANCH  12  15
ENDBRANCH   6   9
ENDBRANCH   3   5
ENDBRANCH   1   3
BRANCH   1  20
HETATM   20  C   UNL     1     -43.264  58.661 -52.638  1.00  0.00     0.035 A 
HETATM   21  C   UNL     1     -42.522  57.496 -52.914  1.00  0.00     0.046 A 
HETATM   22  C   UNL     1     -42.808  56.262 -52.291  1.00  0.00     0.035 A 
HETATM   23  C   UNL     1     -43.865  56.241 -51.362  1.00  0.00     0.078 A 
HETATM   24  C   UNL     1     -44.587  57.389 -51.057  1.00  0.00     0.040 A 
HETATM   25  C   UNL     1     -44.282  58.594 -51.688  1.00  0.00     0.032 A 
BRANCH  22  26
HETATM   26  C   UNL     1     -42.057  55.017 -52.572  1.00  0.00     0.112 A 
HETATM   27  S   UNL     1     -42.043  54.253 -54.113  1.00  0.00    -0.067 SA
HETATM   28  C   UNL     1     -41.000  53.022 -53.517  1.00  0.00     0.035 A 
HETATM   29  C   UNL     1     -40.728  53.274 -52.173  1.00  0.00     0.075 A 
HETATM   30  C   UNL     1     -40.457  51.912 -54.185  1.00  0.00     0.021 A 
HETATM   31  N   UNL     1     -41.330  54.406 -51.651  1.00  0.00    -0.239 NA
HETATM   32  C   UNL     1     -39.888  52.388 -51.469  1.00  0.00     0.033 A 
HETATM   33  C   UNL     1     -39.343  51.280 -52.124  1.00  0.00     0.002 A 
HETATM   34  C   UNL     1     -39.625  51.047 -53.466  1.00  0.00     0.002 A 
ENDBRANCH  22  26
BRANCH  23  35
HETATM   35  O   UNL     1     -44.253  55.111 -50.687  1.00  0.00    -0.360 OA
HETATM   36  H   UNL     1     -44.128  54.345 -51.290  1.00  0.00     0.217 HD
ENDBRANCH  23  35
ENDBRANCH   1  20
TORSDOF 10
ENDMDL
MODEL 3
REMARK VINA RESULT:      -7.9      6.238     10.577
REMARK  10 active torsions:
REMARK  status: ('A' for Active; 'I' for Inactive)
REMARK    1  A    between atoms: C_2  and  C_3 
REMARK    2  A    between atoms: C_3  and  C_4 
REMARK    3  A    between atoms: C_4  and  O_5 
REMARK    4  A    between atoms: O_5  and  C_6 
REMARK    5  A    between atoms: C_9  and  C_10 
REMARK       I    between atoms: C_10  and  N_11 
REMARK    6  A    between atoms: N_11  and  C_12 
REMARK    7  A    between atoms: C_12  and  N_13 
REMARK    8  A    between atoms: N_13  and  C_14 
REMARK    9  A    between atoms: C_16  and  C_17 
REMARK   10  A    between atoms: C_26  and  O_27 
ROOT
HETATM    1  N   UNL     1     -43.809  59.170 -50.596  1.00  0.00    -0.333 N 
HETATM    2  H   UNL     1     -43.778  58.725 -49.678  1.00  0.00     0.168 HD
ENDROOT
BRANCH   1   3
HETATM    3  C   UNL     1     -43.702  60.541 -50.532  1.00  0.00     0.179 C 
HETATM    4  S   UNL     1     -43.296  61.644 -51.721  1.00  0.00    -0.040 SA
BRANCH   3   5
HETATM    5  N   UNL     1     -43.964  61.091 -49.290  1.00  0.00    -0.299 N 
HETATM    6  C   UNL     1     -45.081  60.966 -48.476  1.00  0.00     0.257 C 
HETATM    7  O   UNL     1     -45.957  60.124 -48.624  1.00  0.00    -0.267 OA
HETATM    8  H   UNL     1     -43.212  61.684 -48.960  1.00  0.00     0.171 HD
BRANCH   6   9
HETATM    9  C   UNL     1     -45.090  61.901 -47.325  1.00  0.00     0.032 A 
HETATM   10  C   UNL     1     -45.099  63.285 -47.548  1.00  0.00     0.020 A 
HETATM   11  C   UNL     1     -45.037  64.163 -46.465  1.00  0.00     0.038 A 
HETATM   12  C   UNL     1     -44.984  63.660 -45.165  1.00  0.00     0.068 A 
HETATM   13  C   UNL     1     -44.971  62.281 -44.944  1.00  0.00     0.038 A 
HETATM   14  C   UNL     1     -45.044  61.396 -46.024  1.00  0.00     0.020 A 
BRANCH  12  15
HETATM   15  O   UNL     1     -44.837  64.472 -44.073  1.00  0.00    -0.351 OA
BRANCH  15  16
HETATM   16  C   UNL     1     -44.161  63.829 -42.986  1.00  0.00     0.175 C 
BRANCH  16  17
HETATM   17  C   UNL     1     -44.789  64.288 -41.670  1.00  0.00     0.026 C 
BRANCH  17  18
HETATM   18  C   UNL     1     -43.869  64.030 -40.474  1.00  0.00    -0.002 C 
HETATM   19  C   UNL     1     -44.662  63.639 -39.235  1.00  0.00     0.005 C 
ENDBRANCH  17  18
ENDBRANCH  16  17
ENDBRANCH  15  16
ENDBRANCH  12  15
ENDBRANCH   6   9
ENDBRANCH   3   5
ENDBRANCH   1   3
BRANCH   1  20
HETATM   20  C   UNL     1     -43.873  58.281 -51.696  1.00  0.00     0.035 A 
HETATM   21  C   UNL     1     -43.042  57.144 -51.652  1.00  0.00     0.046 A 
HETATM   22  C   UNL     1     -43.029  56.187 -52.690  1.00  0.00     0.035 A 
HETATM   23  C   UNL     1     -43.896  56.405 -53.777  1.00  0.00     0.078 A 
HETATM   24  C   UNL     1     -44.743  57.507 -53.820  1.00  0.00     0.040 A 
HETATM   25  C   UNL     1     -44.735  58.435 -52.780  1.00  0.00     0.032 A 
BRANCH  22  26
HETATM   26  C   UNL     1     -42.155  54.991 -52.681  1.00  0.00     0.112 A 
HETATM   27  S   UNL     1     -41.268  54.482 -51.298  1.00  0.00    -0.067 SA
HETATM   28  C   UNL     1     -40.636  53.141 -52.171  1.00  0.00     0.035 A 
HETATM   29  C   UNL     1     -41.145  53.168 -53.468  1.00  0.00     0.075 A 
HETATM   30  C   UNL     1     -39.754  52.135 -51.743  1.00  0.00     0.021 A 
HETATM   31  N   UNL     1     -42.005  54.217 -53.744  1.00  0.00    -0.239 NA
HETATM   32  C   UNL     1     -40.761  52.158 -54.373  1.00  0.00     0.033 A 
HETATM   33  C   UNL     1     -39.883  51.152 -53.959  1.00  0.00     0.002 A 
HETATM   34  C   UNL     1     -39.387  51.142 -52.659  1.00  0.00     0.002 A 
ENDBRANCH  22  26
BRANCH  23  35
HETATM   35  O   UNL     1     -43.983  55.560 -54.854  1.00  0.00    -0.360 OA
HETATM   36  H   UNL     1     -43.068  55.300 -55.104  1.00  0.00     0.217 HD
ENDBRANCH  23  35
ENDBRANCH   1  20
TORSDOF 10
ENDMDL
MODEL 4
REMARK VINA RESULT:      -7.8      6.458     11.036
REMARK  10 active torsions:
REMARK  status: ('A' for Active; 'I' for Inactive)
REMARK    1  A    between atoms: C_2  and  C_3 
REMARK    2  A    between atoms: C_3  and  C_4 
REMARK    3  A    between atoms: C_4  and  O_5 
REMARK    4  A    between atoms: O_5  and  C_6 
REMARK    5  A    between atoms: C_9  and  C_10 
REMARK       I    between atoms: C_10  and  N_11 
REMARK    6  A    between atoms: N_11  and  C_12 
REMARK    7  A    between atoms: C_12  and  N_13 
REMARK    8  A    between atoms: N_13  and  C_14 
REMARK    9  A    between atoms: C_16  and  C_17 
REMARK   10  A    between atoms: C_26  and  O_27 
ROOT
HETATM    1  N   UNL     1     -45.240  60.248 -50.763  1.00  0.00    -0.333 N 
HETATM    2  H   UNL     1     -45.740  59.399 -50.494  1.00  0.00     0.168 HD
ENDROOT
BRANCH   1   3
HETATM    3  C   UNL     1     -45.815  61.392 -50.259  1.00  0.00     0.179 C 
HETATM    4  S   UNL     1     -46.884  62.462 -50.972  1.00  0.00    -0.040 SA
BRANCH   3   5
HETATM    5  N   UNL     1     -45.446  61.711 -48.964  1.00  0.00    -0.299 N 
HETATM    6  C   UNL     1     -45.695  61.041 -47.775  1.00  0.00     0.257 C 
HETATM    7  O   UNL     1     -46.096  59.886 -47.699  1.00  0.00    -0.267 OA
HETATM    8  H   UNL     1     -44.932  62.582 -48.909  1.00  0.00     0.171 HD
BRANCH   6   9
HETATM    9  C   UNL     1     -45.344  61.822 -46.564  1.00  0.00     0.032 A 
HETATM   10  C   UNL     1     -45.542  63.209 -46.544  1.00  0.00     0.020 A 
HETATM   11  C   UNL     1     -45.146  63.951 -45.430  1.00  0.00     0.038 A 
HETATM   12  C   UNL     1     -44.572  63.307 -44.335  1.00  0.00     0.068 A 
HETATM   13  C   UNL     1     -44.371  61.925 -44.357  1.00  0.00     0.038 A 
HETATM   14  C   UNL     1     -44.775  61.174 -45.465  1.00  0.00     0.020 A 
BRANCH  12  15
HETATM   15  O   UNL     1     -44.089  63.993 -43.254  1.00  0.00    -0.351 OA
BRANCH  15  16
HETATM   16  C   UNL     1     -43.510  63.138 -42.261  1.00  0.00     0.175 C 
BRANCH  16  17
HETATM   17  C   UNL     1     -43.835  63.696 -40.875  1.00  0.00     0.026 C 
BRANCH  17  18
HETATM   18  C   UNL     1     -45.340  63.697 -40.595  1.00  0.00    -0.002 C 
HETATM   19  C   UNL     1     -45.639  63.312 -39.154  1.00  0.00     0.005 C 
ENDBRANCH  17  18
ENDBRANCH  16  17
ENDBRANCH  15  16
ENDBRANCH  12  15
ENDBRANCH   6   9
ENDBRANCH   3   5
ENDBRANCH   1   3
BRANCH   1  20
HETATM   20  C   UNL     1     -44.055  60.038 -51.509  1.00  0.00     0.035 A 
HETATM   21  C   UNL     1     -43.574  58.717 -51.593  1.00  0.00     0.046 A 
HETATM   22  C   UNL     1     -42.405  58.392 -52.315  1.00  0.00     0.035 A 
HETATM   23  C   UNL     1     -41.738  59.445 -52.967  1.00  0.00     0.078 A 
HETATM   24  C   UNL     1     -42.218  60.749 -52.918  1.00  0.00     0.040 A 
HETATM   25  C   UNL     1     -43.374  61.041 -52.197  1.00  0.00     0.032 A 
BRANCH  22  26
HETATM   26  C   UNL     1     -41.865  57.016 -52.408  1.00  0.00     0.112 A 
HETATM   27  S   UNL     1     -41.405  56.089 -51.034  1.00  0.00    -0.067 SA
HETATM   28  C   UNL     1     -40.962  54.769 -52.046  1.00  0.00     0.035 A 
HETATM   29  C   UNL     1     -41.195  55.123 -53.374  1.00  0.00     0.075 A 
HETATM   30  C   UNL     1     -40.447  53.511 -51.695  1.00  0.00     0.021 A 
HETATM   31  N   UNL     1     -41.708  56.394 -53.565  1.00  0.00    -0.239 NA
HETATM   32  C   UNL     1     -40.902  54.191 -54.390  1.00  0.00     0.033 A 
HETATM   33  C   UNL     1     -40.388  52.935 -54.053  1.00  0.00     0.002 A 
HETATM   34  C   UNL     1     -40.165  52.601 -52.720  1.00  0.00     0.002 A 
ENDBRANCH  22  26
BRANCH  23  35
HETATM   35  O   UNL     1     -40.590  59.273 -53.699  1.00  0.00    -0.360 OA
HETATM   36  H   UNL     1     -39.828  59.438 -53.102  1.00  0.00     0.217 HD
ENDBRANCH  23  35
ENDBRANCH   1  20
TORSDOF 10
ENDMDL
MODEL 5
REMARK VINA RESULT:      -7.7      1.811      2.471
REMARK  10 active torsions:
REMARK  status: ('A' for Active; 'I' for Inactive)
REMARK    1  A    between atoms: C_2  and  C_3 
REMARK    2  A    between atoms: C_3  and  C_4 
REMARK    3  A    between atoms: C_4  and  O_5 
REMARK    4  A    between atoms: O_5  and  C_6 
REMARK    5  A    between atoms: C_9  and  C_10 
REMARK       I    between atoms: C_10  and  N_11 
REMARK    6  A    between atoms: N_11  and  C_12 
REMARK    7  A    between atoms: C_12  and  N_13 
REMARK    8  A    between atoms: N_13  and  C_14 
REMARK    9  A    between atoms: C_16  and  C_17 
REMARK   10  A    between atoms: C_26  and  O_27 
ROOT
HETATM    1  N   UNL     1     -42.446  59.798 -52.797  1.00  0.00    -0.333 N 
HETATM    2  H   UNL     1     -41.512  60.059 -52.478  1.00  0.00     0.168 HD
ENDROOT
BRANCH   1   3
HETATM    3  C   UNL     1     -42.953  60.662 -53.741  1.00  0.00     0.179 C 
HETATM    4  S   UNL     1     -43.144  62.322 -53.687  1.00  0.00    -0.040 SA
BRANCH   3   5
HETATM    5  N   UNL     1     -43.377  60.064 -54.915  1.00  0.00    -0.299 N 
HETATM    6  C   UNL     1     -42.755  59.989 -56.153  1.00  0.00     0.257 C 
HETATM    7  O   UNL     1     -41.575  60.246 -56.354  1.00  0.00    -0.267 OA
HETATM    8  H   UNL     1     -44.293  59.640 -54.827  1.00  0.00     0.171 HD
BRANCH   6   9
HETATM    9  C   UNL     1     -43.632  59.473 -57.232  1.00  0.00     0.032 A 
HETATM   10  C   UNL     1     -44.701  58.622 -56.918  1.00  0.00     0.020 A 
HETATM   11  C   UNL     1     -45.482  58.082 -57.941  1.00  0.00     0.038 A 
HETATM   12  C   UNL     1     -45.207  58.405 -59.269  1.00  0.00     0.068 A 
HETATM   13  C   UNL     1     -44.139  59.250 -59.581  1.00  0.00     0.038 A 
HETATM   14  C   UNL     1     -43.360  59.803 -58.561  1.00  0.00     0.020 A 
BRANCH  12  15
HETATM   15  O   UNL     1     -45.885  57.839 -60.315  1.00  0.00    -0.351 OA
BRANCH  15  16
HETATM   16  C   UNL     1     -46.151  56.445 -60.120  1.00  0.00     0.175 C 
BRANCH  16  17
HETATM   17  C   UNL     1     -45.030  55.631 -60.763  1.00  0.00     0.026 C 
BRANCH  17  18
HETATM   18  C   UNL     1     -44.113  54.990 -59.718  1.00  0.00    -0.002 C 
HETATM   19  C   UNL     1     -42.812  55.765 -59.568  1.00  0.00     0.005 C 
ENDBRANCH  17  18
ENDBRANCH  16  17
ENDBRANCH  15  16
ENDBRANCH  12  15
ENDBRANCH   6   9
ENDBRANCH   3   5
ENDBRANCH   1   3
BRANCH   1  20
HETATM   20  C   UNL     1     -42.950  58.588 -52.260  1.00  0.00     0.035 A 
HETATM   21  C   UNL     1     -42.197  57.421 -52.489  1.00  0.00     0.046 A 
HETATM   22  C   UNL     1     -42.601  56.162 -51.994  1.00  0.00     0.035 A 
HETATM   23  C   UNL     1     -43.790  56.117 -51.243  1.00  0.00     0.078 A 
HETATM   24  C   UNL     1     -44.528  57.266 -50.984  1.00  0.00     0.040 A 
HETATM   25  C   UNL     1     -44.105  58.496 -51.485  1.00  0.00     0.032 A 
BRANCH  22  26
HETATM   26  C   UNL     1     -41.840  54.913 -52.232  1.00  0.00     0.112 A 
HETATM   27  S   UNL     1     -40.800  54.205 -51.060  1.00  0.00    -0.067 SA
HETATM   28  C   UNL     1     -40.422  52.920 -52.139  1.00  0.00     0.035 A 
HETATM   29  C   UNL     1     -41.118  53.114 -53.331  1.00  0.00     0.075 A 
HETATM   30  C   UNL     1     -39.574  51.817 -51.950  1.00  0.00     0.021 A 
HETATM   31  N   UNL     1     -41.918  54.243 -53.371  1.00  0.00    -0.239 NA
HETATM   32  C   UNL     1     -40.962  52.179 -54.373  1.00  0.00     0.033 A 
HETATM   33  C   UNL     1     -40.119  51.076 -54.196  1.00  0.00     0.002 A 
HETATM   34  C   UNL     1     -39.435  50.900 -52.998  1.00  0.00     0.002 A 
ENDBRANCH  22  26
BRANCH  23  35
HETATM   35  O   UNL     1     -44.301  54.962 -50.707  1.00  0.00    -0.360 OA
HETATM   36  H   UNL     1     -44.174  54.245 -51.367  1.00  0.00     0.217 HD
ENDBRANCH  23  35
ENDBRANCH   1  20
TORSDOF 10
ENDMDL
MODEL 6
REMARK VINA RESULT:      -7.6      2.492      8.021
REMARK  10 active torsions:
REMARK  status: ('A' for Active; 'I' for Inactive)
REMARK    1  A    between atoms: C_2  and  C_3 
REMARK    2  A    between atoms: C_3  and  C_4 
REMARK    3  A    between atoms: C_4  and  O_5 
REMARK    4  A    between atoms: O_5  and  C_6 
REMARK    5  A    between atoms: C_9  and  C_10 
REMARK       I    between atoms: C_10  and  N_11 
REMARK    6  A    between atoms: N_11  and  C_12 
REMARK    7  A    between atoms: C_12  and  N_13 
REMARK    8  A    between atoms: N_13  and  C_14 
REMARK    9  A    between atoms: C_16  and  C_17 
REMARK   10  A    between atoms: C_26  and  O_27 
ROOT
HETATM    1  N   UNL     1     -43.135  59.335 -52.835  1.00  0.00    -0.333 N 
HETATM    2  H   UNL     1     -42.580  59.958 -52.245  1.00  0.00     0.168 HD
ENDROOT
BRANCH   1   3
HETATM    3  C   UNL     1     -43.553  58.203 -52.175  1.00  0.00     0.179 C 
HETATM    4  S   UNL     1     -44.774  58.004 -51.049  1.00  0.00    -0.040 SA
BRANCH   3   5
HETATM    5  N   UNL     1     -42.851  57.051 -52.484  1.00  0.00    -0.299 N 
HETATM    6  C   UNL     1     -41.488  56.858 -52.659  1.00  0.00     0.257 C 
HETATM    7  O   UNL     1     -40.624  57.658 -52.322  1.00  0.00    -0.267 OA
HETATM    8  H   UNL     1     -43.456  56.249 -52.613  1.00  0.00     0.171 HD
BRANCH   6   9
HETATM    9  C   UNL     1     -41.140  55.530 -53.221  1.00  0.00     0.032 A 
HETATM   10  C   UNL     1     -41.261  54.382 -52.428  1.00  0.00     0.020 A 
HETATM   11  C   UNL     1     -40.867  53.143 -52.937  1.00  0.00     0.038 A 
HETATM   12  C   UNL     1     -40.373  53.051 -54.237  1.00  0.00     0.068 A 
HETATM   13  C   UNL     1     -40.249  54.197 -55.025  1.00  0.00     0.038 A 
HETATM   14  C   UNL     1     -40.652  55.439 -54.526  1.00  0.00     0.020 A 
BRANCH  12  15
HETATM   15  O   UNL     1     -39.894  51.878 -54.756  1.00  0.00    -0.351 OA
BRANCH  15  16
HETATM   16  C   UNL     1     -40.463  50.719 -54.137  1.00  0.00     0.175 C 
BRANCH  16  17
HETATM   17  C   UNL     1     -39.334  49.782 -53.705  1.00  0.00     0.026 C 
BRANCH  17  18
HETATM   18  C   UNL     1     -39.599  49.157 -52.333  1.00  0.00    -0.002 C 
HETATM   19  C   UNL     1     -39.534  50.198 -51.225  1.00  0.00     0.005 C 
ENDBRANCH  17  18
ENDBRANCH  16  17
ENDBRANCH  15  16
ENDBRANCH  12  15
ENDBRANCH   6   9
ENDBRANCH   3   5
ENDBRANCH   1   3
BRANCH   1  20
HETATM   20  C   UNL     1     -43.401  59.819 -54.139  1.00  0.00     0.035 A 
HETATM   21  C   UNL     1     -43.666  58.861 -55.137  1.00  0.00     0.046 A 
HETATM   22  C   UNL     1     -43.951  59.229 -56.470  1.00  0.00     0.035 A 
HETATM   23  C   UNL     1     -43.975  60.605 -56.766  1.00  0.00     0.078 A 
HETATM   24  C   UNL     1     -43.745  61.562 -55.784  1.00  0.00     0.040 A 
HETATM   25  C   UNL     1     -43.467  61.169 -54.477  1.00  0.00     0.032 A 
BRANCH  22  26
HETATM   26  C   UNL     1     -44.216  58.246 -57.545  1.00  0.00     0.112 A 
HETATM   27  S   UNL     1     -43.095  57.025 -58.005  1.00  0.00    -0.067 SA
HETATM   28  C   UNL     1     -44.190  56.437 -59.194  1.00  0.00     0.035 A 
HETATM   29  C   UNL     1     -45.347  57.214 -59.164  1.00  0.00     0.075 A 
HETATM   30  C   UNL     1     -44.042  55.365 -60.089  1.00  0.00     0.021 A 
HETATM   31  N   UNL     1     -45.351  58.232 -58.226  1.00  0.00    -0.239 NA
HETATM   32  C   UNL     1     -46.393  56.915 -60.060  1.00  0.00     0.033 A 
HETATM   33  C   UNL     1     -46.257  55.851 -60.957  1.00  0.00     0.002 A 
HETATM   34  C   UNL     1     -45.094  55.087 -60.970  1.00  0.00     0.002 A 
ENDBRANCH  22  26
BRANCH  23  35
HETATM   35  O   UNL     1     -44.233  61.103 -58.018  1.00  0.00    -0.360 OA
HETATM   36  H   UNL     1     -43.746  60.547 -58.666  1.00  0.00     0.217 HD
ENDBRANCH  23  35
ENDBRANCH   1  20
TORSDOF 10
ENDMDL
MODEL 7
REMARK VINA RESULT:      -7.5      3.797      7.717
REMARK  10 active torsions:
REMARK  status: ('A' for Active; 'I' for Inactive)
REMARK    1  A    between atoms: C_2  and  C_3 
REMARK    2  A    between atoms: C_3  and  C_4 
REMARK    3  A    between atoms: C_4  and  O_5 
REMARK    4  A    between atoms: O_5  and  C_6 
REMARK    5  A    between atoms: C_9  and  C_10 
REMARK       I    between atoms: C_10  and  N_11 
REMARK    6  A    between atoms: N_11  and  C_12 
REMARK    7  A    between atoms: C_12  and  N_13 
REMARK    8  A    between atoms: N_13  and  C_14 
REMARK    9  A    between atoms: C_16  and  C_17 
REMARK   10  A    between atoms: C_26  and  O_27 
ROOT
HETATM    1  N   UNL     1     -42.108  59.984 -55.530  1.00  0.00    -0.333 N 
HETATM    2  H   UNL     1     -41.121  60.226 -55.629  1.00  0.00     0.168 HD
ENDROOT
BRANCH   1   3
HETATM    3  C   UNL     1     -42.891  61.057 -55.169  1.00  0.00     0.179 C 
HETATM    4  S   UNL     1     -43.393  62.372 -56.072  1.00  0.00    -0.040 SA
BRANCH   3   5
HETATM    5  N   UNL     1     -43.322  61.052 -53.855  1.00  0.00    -0.299 N 
HETATM    6  C   UNL     1     -42.713  60.541 -52.718  1.00  0.00     0.257 C 
HETATM    7  O   UNL     1     -41.537  60.205 -52.651  1.00  0.00    -0.267 OA
HETATM    8  H   UNL     1     -44.233  61.480 -53.742  1.00  0.00     0.171 HD
BRANCH   6   9
HETATM    9  C   UNL     1     -43.597  60.512 -51.528  1.00  0.00     0.032 A 
HETATM   10  C   UNL     1     -44.656  59.597 -51.464  1.00  0.00     0.020 A 
HETATM   11  C   UNL     1     -45.528  59.619 -50.375  1.00  0.00     0.038 A 
HETATM   12  C   UNL     1     -45.332  60.539 -49.346  1.00  0.00     0.068 A 
HETATM   13  C   UNL     1     -44.279  61.454 -49.412  1.00  0.00     0.038 A 
HETATM   14  C   UNL     1     -43.395  61.430 -50.495  1.00  0.00     0.020 A 
BRANCH  12  15
HETATM   15  O   UNL     1     -46.204  60.661 -48.298  1.00  0.00    -0.351 OA
BRANCH  15  16
HETATM   16  C   UNL     1     -46.310  62.005 -47.812  1.00  0.00     0.175 C 
BRANCH  16  17
HETATM   17  C   UNL     1     -46.440  61.973 -46.289  1.00  0.00     0.026 C 
BRANCH  17  18
HETATM   18  C   UNL     1     -45.101  62.229 -45.592  1.00  0.00    -0.002 C 
HETATM   19  C   UNL     1     -44.540  60.956 -44.978  1.00  0.00     0.005 C 
ENDBRANCH  17  18
ENDBRANCH  16  17
ENDBRANCH  15  16
ENDBRANCH  12  15
ENDBRANCH   6   9
ENDBRANCH   3   5
ENDBRANCH   1   3
BRANCH   1  20
HETATM   20  C   UNL     1     -42.437  58.646 -55.859  1.00  0.00     0.035 A 
HETATM   21  C   UNL     1     -41.865  57.631 -55.067  1.00  0.00     0.046 A 
HETATM   22  C   UNL     1     -42.129  56.264 -55.301  1.00  0.00     0.035 A 
HETATM   23  C   UNL     1     -43.005  55.949 -56.356  1.00  0.00     0.078 A 
HETATM   24  C   UNL     1     -43.601  56.942 -57.126  1.00  0.00     0.040 A 
HETATM   25  C   UNL     1     -43.322  58.283 -56.872  1.00  0.00     0.032 A 
BRANCH  22  26
HETATM   26  C   UNL     1     -41.530  55.173 -54.498  1.00  0.00     0.112 A 
HETATM   27  S   UNL     1     -41.326  55.260 -52.792  1.00  0.00    -0.067 SA
HETATM   28  C   UNL     1     -40.638  53.683 -52.773  1.00  0.00     0.035 A 
HETATM   29  C   UNL     1     -40.608  53.189 -54.076  1.00  0.00     0.075 A 
HETATM   30  C   UNL     1     -40.159  52.933 -51.686  1.00  0.00     0.021 A 
HETATM   31  N   UNL     1     -41.117  54.039 -55.042  1.00  0.00    -0.239 NA
HETATM   32  C   UNL     1     -40.080  51.903 -54.306  1.00  0.00     0.033 A 
HETATM   33  C   UNL     1     -39.599  51.147 -53.232  1.00  0.00     0.002 A 
HETATM   34  C   UNL     1     -39.640  51.658 -51.938  1.00  0.00     0.002 A 
ENDBRANCH  22  26
BRANCH  23  35
HETATM   35  O   UNL     1     -43.346  54.664 -56.696  1.00  0.00    -0.360 OA
HETATM   36  H   UNL     1     -43.397  54.140 -55.866  1.00  0.00     0.217 HD
ENDBRANCH  23  35
ENDBRANCH   1  20
TORSDOF 10
ENDMDL
MODEL 8
REMARK VINA RESULT:      -7.5      2.428      8.163
REMARK  10 active torsions:
REMARK  status: ('A' for Active; 'I' for Inactive)
REMARK    1  A    between atoms: C_2  and  C_3 
REMARK    2  A    between atoms: C_3  and  C_4 
REMARK    3  A    between atoms: C_4  and  O_5 
REMARK    4  A    between atoms: O_5  and  C_6 
REMARK    5  A    between atoms: C_9  and  C_10 
REMARK       I    between atoms: C_10  and  N_11 
REMARK    6  A    between atoms: N_11  and  C_12 
REMARK    7  A    between atoms: C_12  and  N_13 
REMARK    8  A    between atoms: N_13  and  C_14 
REMARK    9  A    between atoms: C_16  and  C_17 
REMARK   10  A    between atoms: C_26  and  O_27 
ROOT
HETATM    1  N   UNL     1     -42.380  61.053 -53.683  1.00  0.00    -0.333 N 
HETATM    2  H   UNL     1     -41.441  61.452 -53.634  1.00  0.00     0.168 HD
ENDROOT
BRANCH   1   3
HETATM    3  C   UNL     1     -42.832  60.594 -52.466  1.00  0.00     0.179 C 
HETATM    4  S   UNL     1     -43.825  61.331 -51.341  1.00  0.00    -0.040 SA
BRANCH   3   5
HETATM    5  N   UNL     1     -42.390  59.331 -52.116  1.00  0.00    -0.299 N 
HETATM    6  C   UNL     1     -41.246  58.647 -52.504  1.00  0.00     0.257 C 
HETATM    7  O   UNL     1     -40.282  59.162 -53.056  1.00  0.00    -0.267 OA
HETATM    8  H   UNL     1     -43.031  58.852 -51.495  1.00  0.00     0.171 HD
BRANCH   6   9
HETATM    9  C   UNL     1     -41.242  57.218 -52.107  1.00  0.00     0.032 A 
HETATM   10  C   UNL     1     -41.065  56.866 -50.763  1.00  0.00     0.020 A 
HETATM   11  C   UNL     1     -40.991  55.519 -50.402  1.00  0.00     0.038 A 
HETATM   12  C   UNL     1     -41.112  54.530 -51.378  1.00  0.00     0.068 A 
HETATM   13  C   UNL     1     -41.284  54.883 -52.718  1.00  0.00     0.038 A 
HETATM   14  C   UNL     1     -41.370  56.229 -53.085  1.00  0.00     0.020 A 
BRANCH  12  15
HETATM   15  O   UNL     1     -40.963  53.200 -51.093  1.00  0.00    -0.351 OA
BRANCH  15  16
HETATM   16  C   UNL     1     -39.655  52.705 -51.404  1.00  0.00     0.175 C 
BRANCH  16  17
HETATM   17  C   UNL     1     -39.790  51.356 -52.109  1.00  0.00     0.026 C 
BRANCH  17  18
HETATM   18  C   UNL     1     -39.474  51.455 -53.604  1.00  0.00    -0.002 C 
HETATM   19  C   UNL     1     -39.817  50.165 -54.333  1.00  0.00     0.005 C 
ENDBRANCH  17  18
ENDBRANCH  16  17
ENDBRANCH  15  16
ENDBRANCH  12  15
ENDBRANCH   6   9
ENDBRANCH   3   5
ENDBRANCH   1   3
BRANCH   1  20
HETATM   20  C   UNL     1     -43.008  61.141 -54.949  1.00  0.00     0.035 A 
HETATM   21  C   UNL     1     -43.199  59.937 -55.656  1.00  0.00     0.046 A 
HETATM   22  C   UNL     1     -43.820  59.905 -56.923  1.00  0.00     0.035 A 
HETATM   23  C   UNL     1     -44.259  61.132 -57.455  1.00  0.00     0.078 A 
HETATM   24  C   UNL     1     -44.105  62.323 -56.756  1.00  0.00     0.040 A 
HETATM   25  C   UNL     1     -43.488  62.324 -55.506  1.00  0.00     0.032 A 
BRANCH  22  26
HETATM   26  C   UNL     1     -44.020  58.659 -57.698  1.00  0.00     0.112 A 
HETATM   27  S   UNL     1     -42.846  57.406 -57.787  1.00  0.00    -0.067 SA
HETATM   28  C   UNL     1     -43.884  56.476 -58.796  1.00  0.00     0.035 A 
HETATM   29  C   UNL     1     -45.066  57.185 -59.001  1.00  0.00     0.075 A 
HETATM   30  C   UNL     1     -43.673  55.210 -59.366  1.00  0.00     0.021 A 
HETATM   31  N   UNL     1     -45.132  58.417 -58.373  1.00  0.00    -0.239 NA
HETATM   32  C   UNL     1     -46.073  56.615 -59.805  1.00  0.00     0.033 A 
HETATM   33  C   UNL     1     -45.875  55.355 -60.378  1.00  0.00     0.002 A 
HETATM   34  C   UNL     1     -44.687  54.663 -60.160  1.00  0.00     0.002 A 
ENDBRANCH  22  26
BRANCH  23  35
HETATM   35  O   UNL     1     -44.874  61.248 -58.677  1.00  0.00    -0.360 OA
HETATM   36  H   UNL     1     -45.736  60.780 -58.622  1.00  0.00     0.217 HD
ENDBRANCH  23  35
ENDBRANCH   1  20
TORSDOF 10
ENDMDL
MODEL 9
REMARK VINA RESULT:      -7.4      4.791      8.733
REMARK  10 active torsions:
REMARK  status: ('A' for Active; 'I' for Inactive)
REMARK    1  A    between atoms: C_2  and  C_3 
REMARK    2  A    between atoms: C_3  and  C_4 
REMARK    3  A    between atoms: C_4  and  O_5 
REMARK    4  A    between atoms: O_5  and  C_6 
REMARK    5  A    between atoms: C_9  and  C_10 
REMARK       I    between atoms: C_10  and  N_11 
REMARK    6  A    between atoms: N_11  and  C_12 
REMARK    7  A    between atoms: C_12  and  N_13 
REMARK    8  A    between atoms: N_13  and  C_14 
REMARK    9  A    between atoms: C_16  and  C_17 
REMARK   10  A    between atoms: C_26  and  O_27 
ROOT
HETATM    1  N   UNL     1     -42.467  60.060 -53.640  1.00  0.00    -0.333 N 
HETATM    2  H   UNL     1     -41.451  60.083 -53.537  1.00  0.00     0.168 HD
ENDROOT
BRANCH   1   3
HETATM    3  C   UNL     1     -43.038  61.311 -53.619  1.00  0.00     0.179 C 
HETATM    4  S   UNL     1     -43.346  62.373 -54.873  1.00  0.00    -0.040 SA
BRANCH   3   5
HETATM    5  N   UNL     1     -43.408  61.766 -52.365  1.00  0.00    -0.299 N 
HETATM    6  C   UNL     1     -43.017  61.329 -51.107  1.00  0.00     0.257 C 
HETATM    7  O   UNL     1     -42.060  60.595 -50.893  1.00  0.00    -0.267 OA
HETATM    8  H   UNL     1     -44.081  62.521 -52.408  1.00  0.00     0.171 HD
BRANCH   6   9
HETATM    9  C   UNL     1     -43.815  61.906 -50.000  1.00  0.00     0.032 A 
HETATM   10  C   UNL     1     -43.573  63.219 -49.572  1.00  0.00     0.020 A 
HETATM   11  C   UNL     1     -44.278  63.736 -48.484  1.00  0.00     0.038 A 
HETATM   12  C   UNL     1     -45.233  62.951 -47.839  1.00  0.00     0.068 A 
HETATM   13  C   UNL     1     -45.470  61.642 -48.262  1.00  0.00     0.038 A 
HETATM   14  C   UNL     1     -44.776  61.122 -49.358  1.00  0.00     0.020 A 
BRANCH  12  15
HETATM   15  O   UNL     1     -45.891  63.377 -46.717  1.00  0.00    -0.351 OA
BRANCH  15  16
HETATM   16  C   UNL     1     -45.915  62.393 -45.675  1.00  0.00     0.175 C 
BRANCH  16  17
HETATM   17  C   UNL     1     -44.541  62.340 -45.010  1.00  0.00     0.026 C 
BRANCH  17  18
HETATM   18  C   UNL     1     -44.498  63.154 -43.714  1.00  0.00    -0.002 C 
HETATM   19  C   UNL     1     -43.340  62.726 -42.824  1.00  0.00     0.005 C 
ENDBRANCH  17  18
ENDBRANCH  16  17
ENDBRANCH  15  16
ENDBRANCH  12  15
ENDBRANCH   6   9
ENDBRANCH   3   5
ENDBRANCH   1   3
BRANCH   1  20
HETATM   20  C   UNL     1     -43.021  58.774 -53.855  1.00  0.00     0.035 A 
HETATM   21  C   UNL     1     -42.239  57.666 -53.475  1.00  0.00     0.046 A 
HETATM   22  C   UNL     1     -42.695  56.340 -53.637  1.00  0.00     0.035 A 
HETATM   23  C   UNL     1     -43.979  56.162 -54.185  1.00  0.00     0.078 A 
HETATM   24  C   UNL     1     -44.774  57.248 -54.537  1.00  0.00     0.040 A 
HETATM   25  C   UNL     1     -44.298  58.546 -54.365  1.00  0.00     0.032 A 
BRANCH  22  26
HETATM   26  C   UNL     1     -41.890  55.153 -53.264  1.00  0.00     0.112 A 
HETATM   27  S   UNL     1     -41.346  54.849 -51.661  1.00  0.00    -0.067 SA
HETATM   28  C   UNL     1     -40.590  53.391 -52.171  1.00  0.00     0.035 A 
HETATM   29  C   UNL     1     -40.803  53.228 -53.539  1.00  0.00     0.075 A 
HETATM   30  C   UNL     1     -39.862  52.454 -51.419  1.00  0.00     0.021 A 
HETATM   31  N   UNL     1     -41.541  54.230 -54.145  1.00  0.00    -0.239 NA
HETATM   32  C   UNL     1     -40.269  52.094 -54.182  1.00  0.00     0.033 A 
HETATM   33  C   UNL     1     -39.541  51.154 -53.444  1.00  0.00     0.002 A 
HETATM   34  C   UNL     1     -39.342  51.335 -52.079  1.00  0.00     0.002 A 
ENDBRANCH  22  26
BRANCH  23  35
HETATM   35  O   UNL     1     -44.544  54.931 -54.402  1.00  0.00    -0.360 OA
HETATM   36  H   UNL     1     -44.862  54.908 -55.331  1.00  0.00     0.217 HD
ENDBRANCH  23  35
ENDBRANCH   1  20
TORSDOF 10
ENDMDL
MODEL 10
REMARK VINA RESULT:      -7.4      3.156      5.752
REMARK  10 active torsions:
REMARK  status: ('A' for Active; 'I' for Inactive)
REMARK    1  A    between atoms: C_2  and  C_3 
REMARK    2  A    between atoms: C_3  and  C_4 
REMARK    3  A    between atoms: C_4  and  O_5 
REMARK    4  A    between atoms: O_5  and  C_6 
REMARK    5  A    between atoms: C_9  and  C_10 
REMARK       I    between atoms: C_10  and  N_11 
REMARK    6  A    between atoms: N_11  and  C_12 
REMARK    7  A    between atoms: C_12  and  N_13 
REMARK    8  A    between atoms: N_13  and  C_14 
REMARK    9  A    between atoms: C_16  and  C_17 
REMARK   10  A    between atoms: C_26  and  O_27 
ROOT
HETATM    1  N   UNL     1     -45.444  60.875 -55.005  1.00  0.00    -0.333 N 
HETATM    2  H   UNL     1     -46.131  61.574 -55.291  1.00  0.00     0.168 HD
ENDROOT
BRANCH   1   3
HETATM    3  C   UNL     1     -44.535  60.578 -55.994  1.00  0.00     0.179 C 
HETATM    4  S   UNL     1     -43.985  61.516 -57.265  1.00  0.00    -0.040 SA
BRANCH   3   5
HETATM    5  N   UNL     1     -43.998  59.304 -55.934  1.00  0.00    -0.299 N 
HETATM    6  C   UNL     1     -44.436  58.123 -56.518  1.00  0.00     0.257 C 
HETATM    7  O   UNL     1     -45.271  58.058 -57.411  1.00  0.00    -0.267 OA
HETATM    8  H   UNL     1     -43.170  59.257 -55.354  1.00  0.00     0.171 HD
BRANCH   6   9
HETATM    9  C   UNL     1     -43.731  56.916 -56.024  1.00  0.00     0.032 A 
HETATM   10  C   UNL     1     -42.870  56.211 -56.877  1.00  0.00     0.020 A 
HETATM   11  C   UNL     1     -42.262  55.036 -56.432  1.00  0.00     0.038 A 
HETATM   12  C   UNL     1     -42.499  54.578 -55.137  1.00  0.00     0.068 A 
HETATM   13  C   UNL     1     -43.361  55.278 -54.290  1.00  0.00     0.038 A 
HETATM   14  C   UNL     1     -43.964  56.462 -54.724  1.00  0.00     0.020 A 
BRANCH  12  15
HETATM   15  O   UNL     1     -41.998  53.390 -54.678  1.00  0.00    -0.351 OA
BRANCH  15  16
HETATM   16  C   UNL     1     -41.304  53.519 -53.431  1.00  0.00     0.175 C 
BRANCH  16  17
HETATM   17  C   UNL     1     -40.293  52.380 -53.305  1.00  0.00     0.026 C 
BRANCH  17  18
HETATM   18  C   UNL     1     -40.516  51.295 -54.362  1.00  0.00    -0.002 C 
HETATM   19  C   UNL     1     -39.522  50.153 -54.207  1.00  0.00     0.005 C 
ENDBRANCH  17  18
ENDBRANCH  16  17
ENDBRANCH  15  16
ENDBRANCH  12  15
ENDBRANCH   6   9
ENDBRANCH   3   5
ENDBRANCH   1   3
BRANCH   1  20
HETATM   20  C   UNL     1     -45.544  60.448 -53.658  1.00  0.00     0.035 A 
HETATM   21  C   UNL     1     -44.616  59.483 -53.220  1.00  0.00     0.046 A 
HETATM   22  C   UNL     1     -44.618  58.991 -51.897  1.00  0.00     0.035 A 
HETATM   23  C   UNL     1     -45.582  59.516 -51.016  1.00  0.00     0.078 A 
HETATM   24  C   UNL     1     -46.485  60.491 -51.427  1.00  0.00     0.040 A 
HETATM   25  C   UNL     1     -46.459  60.958 -52.740  1.00  0.00     0.032 A 
BRANCH  22  26
HETATM   26  C   UNL     1     -43.667  57.965 -51.410  1.00  0.00     0.112 A 
HETATM   27  S   UNL     1     -41.984  58.257 -51.212  1.00  0.00    -0.067 SA
HETATM   28  C   UNL     1     -41.748  56.648 -50.651  1.00  0.00     0.035 A 
HETATM   29  C   UNL     1     -42.976  55.987 -50.651  1.00  0.00     0.075 A 
HETATM   30  C   UNL     1     -40.566  56.012 -50.239  1.00  0.00     0.021 A 
HETATM   31  N   UNL     1     -44.053  56.743 -51.080  1.00  0.00    -0.239 NA
HETATM   32  C   UNL     1     -43.028  54.644 -50.227  1.00  0.00     0.033 A 
HETATM   33  C   UNL     1     -41.857  54.000 -49.815  1.00  0.00     0.002 A 
HETATM   34  C   UNL     1     -40.641  54.679 -49.822  1.00  0.00     0.002 A 
ENDBRANCH  22  26
BRANCH  23  35
HETATM   35  O   UNL     1     -45.701  59.125 -49.706  1.00  0.00    -0.360 OA
HETATM   36  H   UNL     1     -45.675  58.143 -49.685  1.00  0.00     0.217 HD
ENDBRANCH  23  35
ENDBRANCH   1  20
TORSDOF 10
ENDMDL
