MODEL 1
REMARK VINA RESULT:      -9.3      0.000      0.000
REMARK  4 active torsions:
REMARK  status: ('A' for Active; 'I' for Inactive)
REMARK    1  A    between atoms: N_7  and  C_8 
REMARK    2  A    between atoms: C_14  and  C_15 
REMARK    3  A    between atoms: C_15  and  N_16 
REMARK       I    between atoms: N_16  and  C_17 
REMARK       I    between atoms: C_17  and  N_18 
REMARK    4  A    between atoms: N_18  and  C_19 
ROOT
HETATM    1  C   UNL     1     -43.028  54.260 -55.423  1.00  0.00     0.186 C 
ENDROOT
BRANCH   1   2
HETATM    2  C   UNL     1     -42.428  54.451 -54.033  1.00  0.00     0.084 C 
HETATM    3  C   UNL     1     -41.421  53.470 -53.573  1.00  0.00     0.008 A 
HETATM    4  C   UNL     1     -41.052  52.343 -54.319  1.00  0.00     0.014 A 
HETATM    5  C   UNL     1     -40.829  53.702 -52.338  1.00  0.00     0.046 A 
HETATM    6  C   UNL     1     -40.081  51.465 -53.828  1.00  0.00     0.001 A 
HETATM    7  C   UNL     1     -39.480  51.707 -52.595  1.00  0.00     0.001 A 
HETATM    8  C   UNL     1     -39.852  52.824 -51.848  1.00  0.00     0.018 A 
HETATM    9  C   UNL     1     -41.245  54.868 -51.540  1.00  0.00     0.275 C 
HETATM   10  O   UNL     1     -40.670  55.098 -50.478  1.00  0.00    -0.266 OA
HETATM   11  N   UNL     1     -42.299  55.629 -52.047  1.00  0.00    -0.229 N 
HETATM   12  N   UNL     1     -42.836  55.447 -53.303  1.00  0.00    -0.171 NA
BRANCH  11  13
HETATM   13  C   UNL     1     -42.728  56.815 -51.307  1.00  0.00     0.114 C 
HETATM   14  C   UNL     1     -42.249  58.116 -51.953  1.00  0.00     0.027 C 
HETATM   15  C   UNL     1     -43.173  59.155 -51.344  1.00  0.00     0.002 C 
HETATM   16  C   UNL     1     -44.532  58.472 -51.358  1.00  0.00     0.002 C 
HETATM   17  C   UNL     1     -44.249  56.981 -51.154  1.00  0.00     0.027 C 
ENDBRANCH  11  13
ENDBRANCH   1   2
BRANCH   1  18
HETATM   18  N   UNL     1     -42.350  55.036 -56.438  1.00  0.00    -0.337 N 
HETATM   19  C   UNL     1     -42.901  56.226 -56.836  1.00  0.00     0.317 C 
HETATM   20  N   UNL     1     -42.094  56.880 -57.727  1.00  0.00    -0.334 N 
HETATM   21  O   UNL     1     -43.986  56.621 -56.436  1.00  0.00    -0.247 OA
HETATM   22  H   UNL     1     -41.493  56.258 -58.248  1.00  0.00     0.165 HD
HETATM   23  H   UNL     1     -41.343  54.947 -56.469  1.00  0.00     0.164 HD
BRANCH  20  24
HETATM   24  C   UNL     1     -42.477  58.127 -58.406  1.00  0.00     0.035 C 
HETATM   25  C   UNL     1     -42.096  59.385 -57.583  1.00  0.00     0.035 C 
HETATM   26  C   UNL     1     -42.476  60.669 -58.344  1.00  0.00    -0.012 C 
HETATM   27  C   UNL     1     -43.990  60.665 -58.616  1.00  0.00     0.009 C 
HETATM   28  C   UNL     1     -41.720  60.709 -59.680  1.00  0.00     0.009 C 
HETATM   29  C   UNL     1     -44.373  59.443 -59.467  1.00  0.00    -0.012 C 
HETATM   30  C   UNL     1     -43.997  58.159 -58.706  1.00  0.00     0.035 C 
HETATM   31  C   UNL     1     -43.603  59.488 -60.797  1.00  0.00     0.009 C 
HETATM   32  C   UNL     1     -42.090  59.482 -60.528  1.00  0.00    -0.012 C 
HETATM   33  C   UNL     1     -41.718  58.204 -59.758  1.00  0.00     0.035 C 
ENDBRANCH  20  24
ENDBRANCH   1  18
TORSDOF 4
ENDMDL
MODEL 2
REMARK VINA RESULT:      -9.2      1.183      2.009
REMARK  4 active torsions:
REMARK  status: ('A' for Active; 'I' for Inactive)
REMARK    1  A    between atoms: N_7  and  C_8 
REMARK    2  A    between atoms: C_14  and  C_15 
REMARK    3  A    between atoms: C_15  and  N_16 
REMARK       I    between atoms: N_16  and  C_17 
REMARK       I    between atoms: C_17  and  N_18 
REMARK    4  A    between atoms: N_18  and  C_19 
ROOT
HETATM    1  C   UNL     1     -41.359  54.313 -55.187  1.00  0.00     0.186 C 
ENDROOT
BRANCH   1   2
HETATM    2  C   UNL     1     -41.179  54.296 -53.672  1.00  0.00     0.084 C 
HETATM    3  C   UNL     1     -40.594  53.085 -53.057  1.00  0.00     0.008 A 
HETATM    4  C   UNL     1     -40.269  51.934 -53.789  1.00  0.00     0.014 A 
HETATM    5  C   UNL     1     -40.366  53.116 -51.687  1.00  0.00     0.046 A 
HETATM    6  C   UNL     1     -39.705  50.830 -53.144  1.00  0.00     0.001 A 
HETATM    7  C   UNL     1     -39.466  50.869 -51.772  1.00  0.00     0.001 A 
HETATM    8  C   UNL     1     -39.796  52.010 -51.041  1.00  0.00     0.018 A 
HETATM    9  C   UNL     1     -40.741  54.312 -50.915  1.00  0.00     0.275 C 
HETATM   10  O   UNL     1     -40.477  54.354 -49.715  1.00  0.00    -0.266 OA
HETATM   11  N   UNL     1     -41.403  55.324 -51.612  1.00  0.00    -0.229 N 
HETATM   12  N   UNL     1     -41.563  55.329 -52.981  1.00  0.00    -0.171 NA
BRANCH  11  13
HETATM   13  C   UNL     1     -41.769  56.546 -50.897  1.00  0.00     0.114 C 
HETATM   14  C   UNL     1     -40.700  57.635 -51.009  1.00  0.00     0.027 C 
HETATM   15  C   UNL     1     -41.465  58.896 -50.646  1.00  0.00     0.002 C 
HETATM   16  C   UNL     1     -42.796  58.722 -51.361  1.00  0.00     0.002 C 
HETATM   17  C   UNL     1     -43.072  57.216 -51.361  1.00  0.00     0.027 C 
ENDBRANCH  11  13
ENDBRANCH   1   2
BRANCH   1  18
HETATM   18  N   UNL     1     -41.332  55.649 -55.740  1.00  0.00    -0.337 N 
HETATM   19  C   UNL     1     -42.284  56.001 -56.660  1.00  0.00     0.317 C 
HETATM   20  N   UNL     1     -42.180  57.320 -57.012  1.00  0.00    -0.334 N 
HETATM   21  O   UNL     1     -43.104  55.210 -57.102  1.00  0.00    -0.247 OA
HETATM   22  H   UNL     1     -41.246  57.687 -56.898  1.00  0.00     0.165 HD
HETATM   23  H   UNL     1     -40.965  56.374 -55.136  1.00  0.00     0.164 HD
BRANCH  20  24
HETATM   24  C   UNL     1     -42.999  57.948 -58.060  1.00  0.00     0.035 C 
HETATM   25  C   UNL     1     -42.945  57.163 -59.397  1.00  0.00     0.035 C 
HETATM   26  C   UNL     1     -43.845  57.829 -60.454  1.00  0.00    -0.012 C 
HETATM   27  C   UNL     1     -43.374  59.275 -60.681  1.00  0.00     0.009 C 
HETATM   28  C   UNL     1     -45.296  57.840 -59.950  1.00  0.00     0.009 C 
HETATM   29  C   UNL     1     -43.462  60.074 -59.370  1.00  0.00    -0.012 C 
HETATM   30  C   UNL     1     -42.561  59.412 -58.313  1.00  0.00     0.035 C 
HETATM   31  C   UNL     1     -44.916  60.069 -58.870  1.00  0.00     0.009 C 
HETATM   32  C   UNL     1     -45.387  58.625 -58.633  1.00  0.00    -0.012 C 
HETATM   33  C   UNL     1     -44.477  57.963 -57.585  1.00  0.00     0.035 C 
ENDBRANCH  20  24
ENDBRANCH   1  18
TORSDOF 4
ENDMDL
MODEL 3
REMARK VINA RESULT:      -9.0      1.269      4.327
REMARK  4 active torsions:
REMARK  status: ('A' for Active; 'I' for Inactive)
REMARK    1  A    between atoms: N_7  and  C_8 
REMARK    2  A    between atoms: C_14  and  C_15 
REMARK    3  A    between atoms: C_15  and  N_16 
REMARK       I    between atoms: N_16  and  C_17 
REMARK       I    between atoms: C_17  and  N_18 
REMARK    4  A    between atoms: N_18  and  C_19 
ROOT
HETATM    1  C   UNL     1     -42.939  54.390 -54.629  1.00  0.00     0.186 C 
ENDROOT
BRANCH   1   2
HETATM    2  C   UNL     1     -41.976  54.318 -53.448  1.00  0.00     0.084 C 
HETATM    3  C   UNL     1     -41.941  55.463 -52.512  1.00  0.00     0.008 A 
HETATM    4  C   UNL     1     -42.692  56.631 -52.700  1.00  0.00     0.014 A 
HETATM    5  C   UNL     1     -41.115  55.347 -51.400  1.00  0.00     0.046 A 
HETATM    6  C   UNL     1     -42.621  57.668 -51.766  1.00  0.00     0.001 A 
HETATM    7  C   UNL     1     -41.801  57.544 -50.646  1.00  0.00     0.001 A 
HETATM    8  C   UNL     1     -41.047  56.386 -50.461  1.00  0.00     0.018 A 
HETATM    9  C   UNL     1     -40.300  54.134 -51.223  1.00  0.00     0.275 C 
HETATM   10  O   UNL     1     -39.622  54.016 -50.205  1.00  0.00    -0.266 OA
HETATM   11  N   UNL     1     -40.340  53.197 -52.257  1.00  0.00    -0.229 N 
HETATM   12  N   UNL     1     -41.212  53.272 -53.321  1.00  0.00    -0.171 NA
BRANCH  11  13
HETATM   13  C   UNL     1     -39.572  51.961 -52.115  1.00  0.00     0.114 C 
HETATM   14  C   UNL     1     -40.057  51.099 -50.947  1.00  0.00     0.027 C 
HETATM   15  C   UNL     1     -39.490  49.730 -51.281  1.00  0.00     0.002 C 
HETATM   16  C   UNL     1     -39.720  49.607 -52.780  1.00  0.00     0.002 C 
HETATM   17  C   UNL     1     -39.594  51.028 -53.336  1.00  0.00     0.027 C 
ENDBRANCH  11  13
ENDBRANCH   1   2
BRANCH   1  18
HETATM   18  N   UNL     1     -42.338  54.975 -55.808  1.00  0.00    -0.337 N 
HETATM   19  C   UNL     1     -42.892  56.112 -56.335  1.00  0.00     0.317 C 
HETATM   20  N   UNL     1     -42.155  56.590 -57.385  1.00  0.00    -0.334 N 
HETATM   21  O   UNL     1     -43.925  56.606 -55.908  1.00  0.00    -0.247 OA
HETATM   22  H   UNL     1     -41.621  55.873 -57.853  1.00  0.00     0.165 HD
HETATM   23  H   UNL     1     -41.340  54.842 -55.913  1.00  0.00     0.164 HD
BRANCH  20  24
HETATM   24  C   UNL     1     -42.567  57.733 -58.213  1.00  0.00     0.035 C 
HETATM   25  C   UNL     1     -44.096  57.747 -58.476  1.00  0.00     0.035 C 
HETATM   26  C   UNL     1     -44.493  58.979 -59.310  1.00  0.00    -0.012 C 
HETATM   27  C   UNL     1     -43.736  58.948 -60.649  1.00  0.00     0.009 C 
HETATM   28  C   UNL     1     -44.117  60.254 -58.542  1.00  0.00     0.009 C 
HETATM   29  C   UNL     1     -42.219  58.976 -60.400  1.00  0.00    -0.012 C 
HETATM   30  C   UNL     1     -41.819  57.744 -59.569  1.00  0.00     0.035 C 
HETATM   31  C   UNL     1     -41.855  60.251 -59.622  1.00  0.00     0.009 C 
HETATM   32  C   UNL     1     -42.603  60.280 -58.280  1.00  0.00    -0.012 C 
HETATM   33  C   UNL     1     -42.211  59.041 -57.456  1.00  0.00     0.035 C 
ENDBRANCH  20  24
ENDBRANCH   1  18
TORSDOF 4
ENDMDL
MODEL 4
REMARK VINA RESULT:      -8.5      1.682      2.623
REMARK  4 active torsions:
REMARK  status: ('A' for Active; 'I' for Inactive)
REMARK    1  A    between atoms: N_7  and  C_8 
REMARK    2  A    between atoms: C_14  and  C_15 
REMARK    3  A    between atoms: C_15  and  N_16 
REMARK       I    between atoms: N_16  and  C_17 
REMARK       I    between atoms: C_17  and  N_18 
REMARK    4  A    between atoms: N_18  and  C_19 
ROOT
HETATM    1  C   UNL     1     -43.189  54.638 -53.662  1.00  0.00     0.186 C 
ENDROOT
BRANCH   1   2
HETATM    2  C   UNL     1     -42.586  55.455 -52.524  1.00  0.00     0.084 C 
HETATM    3  C   UNL     1     -41.653  54.774 -51.600  1.00  0.00     0.008 A 
HETATM    4  C   UNL     1     -41.359  53.406 -51.678  1.00  0.00     0.014 A 
HETATM    5  C   UNL     1     -41.054  55.552 -50.617  1.00  0.00     0.046 A 
HETATM    6  C   UNL     1     -40.456  52.831 -50.779  1.00  0.00     0.001 A 
HETATM    7  C   UNL     1     -39.847  53.616 -49.803  1.00  0.00     0.001 A 
HETATM    8  C   UNL     1     -40.144  54.976 -49.718  1.00  0.00     0.018 A 
HETATM    9  C   UNL     1     -41.392  56.981 -50.514  1.00  0.00     0.275 C 
HETATM   10  O   UNL     1     -40.808  57.673 -49.682  1.00  0.00    -0.266 OA
HETATM   11  N   UNL     1     -42.386  57.452 -51.372  1.00  0.00    -0.229 N 
HETATM   12  N   UNL     1     -42.927  56.705 -52.396  1.00  0.00    -0.171 NA
BRANCH  11  13
HETATM   13  C   UNL     1     -42.736  58.871 -51.331  1.00  0.00     0.114 C 
HETATM   14  C   UNL     1     -41.997  59.690 -52.392  1.00  0.00     0.027 C 
HETATM   15  C   UNL     1     -42.837  60.951 -52.489  1.00  0.00     0.002 C 
HETATM   16  C   UNL     1     -44.265  60.430 -52.442  1.00  0.00     0.002 C 
HETATM   17  C   UNL     1     -44.224  59.190 -51.546  1.00  0.00     0.027 C 
ENDBRANCH  11  13
ENDBRANCH   1   2
BRANCH   1  18
HETATM   18  N   UNL     1     -43.921  55.450 -54.609  1.00  0.00    -0.337 N 
HETATM   19  C   UNL     1     -43.279  55.888 -55.737  1.00  0.00     0.317 C 
HETATM   20  N   UNL     1     -44.130  56.559 -56.572  1.00  0.00    -0.334 N 
HETATM   21  O   UNL     1     -42.088  55.699 -55.938  1.00  0.00    -0.247 OA
HETATM   22  H   UNL     1     -44.911  56.978 -56.088  1.00  0.00     0.165 HD
HETATM   23  H   UNL     1     -44.917  55.279 -54.668  1.00  0.00     0.164 HD
BRANCH  20  24
HETATM   24  C   UNL     1     -43.695  57.235 -57.803  1.00  0.00     0.035 C 
HETATM   25  C   UNL     1     -43.550  56.251 -58.994  1.00  0.00     0.035 C 
HETATM   26  C   UNL     1     -43.133  57.002 -60.272  1.00  0.00    -0.012 C 
HETATM   27  C   UNL     1     -41.794  57.717 -60.024  1.00  0.00     0.009 C 
HETATM   28  C   UNL     1     -44.208  58.042 -60.623  1.00  0.00     0.009 C 
HETATM   29  C   UNL     1     -41.937  58.725 -58.872  1.00  0.00    -0.012 C 
HETATM   30  C   UNL     1     -42.351  57.977 -57.592  1.00  0.00     0.035 C 
HETATM   31  C   UNL     1     -43.022  59.755 -59.230  1.00  0.00     0.009 C 
HETATM   32  C   UNL     1     -44.364  59.044 -59.469  1.00  0.00    -0.012 C 
HETATM   33  C   UNL     1     -44.769  58.286 -58.193  1.00  0.00     0.035 C 
ENDBRANCH  20  24
ENDBRANCH   1  18
TORSDOF 4
ENDMDL
MODEL 5
REMARK VINA RESULT:      -8.4      2.016      4.562
REMARK  4 active torsions:
REMARK  status: ('A' for Active; 'I' for Inactive)
REMARK    1  A    between atoms: N_7  and  C_8 
REMARK    2  A    between atoms: C_14  and  C_15 
REMARK    3  A    between atoms: C_15  and  N_16 
REMARK       I    between atoms: N_16  and  C_17 
REMARK       I    between atoms: C_17  and  N_18 
REMARK    4  A    between atoms: N_18  and  C_19 
ROOT
HETATM    1  C   UNL     1     -42.074  56.308 -52.754  1.00  0.00     0.186 C 
ENDROOT
BRANCH   1   2
HETATM    2  C   UNL     1     -41.374  55.015 -52.348  1.00  0.00     0.084 C 
HETATM    3  C   UNL     1     -41.111  54.791 -50.911  1.00  0.00     0.008 A 
HETATM    4  C   UNL     1     -41.407  55.738 -49.920  1.00  0.00     0.014 A 
HETATM    5  C   UNL     1     -40.543  53.575 -50.552  1.00  0.00     0.046 A 
HETATM    6  C   UNL     1     -41.145  55.453 -48.577  1.00  0.00     0.001 A 
HETATM    7  C   UNL     1     -40.586  54.227 -48.219  1.00  0.00     0.001 A 
HETATM    8  C   UNL     1     -40.284  53.288 -49.204  1.00  0.00     0.018 A 
HETATM    9  C   UNL     1     -40.200  52.597 -51.597  1.00  0.00     0.275 C 
HETATM   10  O   UNL     1     -39.756  51.500 -51.264  1.00  0.00    -0.266 OA
HETATM   11  N   UNL     1     -40.386  53.003 -52.919  1.00  0.00    -0.229 N 
HETATM   12  N   UNL     1     -41.017  54.175 -53.276  1.00  0.00    -0.171 NA
BRANCH  11  13
HETATM   13  C   UNL     1     -40.089  52.056 -53.993  1.00  0.00     0.114 C 
HETATM   14  C   UNL     1     -38.953  51.096 -53.634  1.00  0.00     0.027 C 
HETATM   15  C   UNL     1     -39.147  49.959 -54.621  1.00  0.00     0.002 C 
HETATM   16  C   UNL     1     -40.655  49.762 -54.643  1.00  0.00     0.002 C 
HETATM   17  C   UNL     1     -41.258  51.150 -54.415  1.00  0.00     0.027 C 
ENDBRANCH  11  13
ENDBRANCH   1   2
BRANCH   1  18
HETATM   18  N   UNL     1     -41.693  56.762 -54.073  1.00  0.00    -0.337 N 
HETATM   19  C   UNL     1     -42.616  56.699 -55.084  1.00  0.00     0.317 C 
HETATM   20  N   UNL     1     -42.134  57.252 -56.240  1.00  0.00    -0.334 N 
HETATM   21  O   UNL     1     -43.720  56.195 -54.944  1.00  0.00    -0.247 OA
HETATM   22  H   UNL     1     -41.126  57.223 -56.303  1.00  0.00     0.165 HD
HETATM   23  H   UNL     1     -41.001  57.500 -54.109  1.00  0.00     0.164 HD
BRANCH  20  24
HETATM   24  C   UNL     1     -42.862  57.227 -57.517  1.00  0.00     0.035 C 
HETATM   25  C   UNL     1     -44.228  57.955 -57.429  1.00  0.00     0.035 C 
HETATM   26  C   UNL     1     -44.941  57.943 -58.794  1.00  0.00    -0.012 C 
HETATM   27  C   UNL     1     -45.157  56.486 -59.238  1.00  0.00     0.009 C 
HETATM   28  C   UNL     1     -44.066  58.665 -59.829  1.00  0.00     0.009 C 
HETATM   29  C   UNL     1     -43.804  55.766 -59.369  1.00  0.00    -0.012 C 
HETATM   30  C   UNL     1     -43.092  55.774 -58.005  1.00  0.00     0.035 C 
HETATM   31  C   UNL     1     -42.934  56.503 -60.400  1.00  0.00     0.009 C 
HETATM   32  C   UNL     1     -42.709  57.957 -59.954  1.00  0.00    -0.012 C 
HETATM   33  C   UNL     1     -42.008  57.963 -58.584  1.00  0.00     0.035 C 
ENDBRANCH  20  24
ENDBRANCH   1  18
TORSDOF 4
ENDMDL
MODEL 6
REMARK VINA RESULT:      -8.4      2.621      6.279
REMARK  4 active torsions:
REMARK  status: ('A' for Active; 'I' for Inactive)
REMARK    1  A    between atoms: N_7  and  C_8 
REMARK    2  A    between atoms: C_14  and  C_15 
REMARK    3  A    between atoms: C_15  and  N_16 
REMARK       I    between atoms: N_16  and  C_17 
REMARK       I    between atoms: C_17  and  N_18 
REMARK    4  A    between atoms: N_18  and  C_19 
ROOT
HETATM    1  C   UNL     1     -43.288  55.553 -51.209  1.00  0.00     0.186 C 
ENDROOT
BRANCH   1   2
HETATM    2  C   UNL     1     -42.393  55.079 -52.349  1.00  0.00     0.084 C 
HETATM    3  C   UNL     1     -41.454  53.969 -52.077  1.00  0.00     0.008 A 
HETATM    4  C   UNL     1     -41.299  53.389 -50.811  1.00  0.00     0.014 A 
HETATM    5  C   UNL     1     -40.702  53.498 -53.147  1.00  0.00     0.046 A 
HETATM    6  C   UNL     1     -40.402  52.332 -50.629  1.00  0.00     0.001 A 
HETATM    7  C   UNL     1     -39.658  51.854 -51.706  1.00  0.00     0.001 A 
HETATM    8  C   UNL     1     -39.805  52.436 -52.965  1.00  0.00     0.018 A 
HETATM    9  C   UNL     1     -40.841  54.133 -54.468  1.00  0.00     0.275 C 
HETATM   10  O   UNL     1     -40.218  53.668 -55.420  1.00  0.00    -0.266 OA
HETATM   11  N   UNL     1     -41.669  55.254 -54.539  1.00  0.00    -0.229 N 
HETATM   12  N   UNL     1     -42.472  55.676 -53.502  1.00  0.00    -0.171 NA
BRANCH  11  13
HETATM   13  C   UNL     1     -41.864  55.901 -55.836  1.00  0.00     0.114 C 
HETATM   14  C   UNL     1     -42.882  55.167 -56.712  1.00  0.00     0.027 C 
HETATM   15  C   UNL     1     -43.274  56.224 -57.730  1.00  0.00     0.002 C 
HETATM   16  C   UNL     1     -43.400  57.490 -56.895  1.00  0.00     0.002 C 
HETATM   17  C   UNL     1     -42.362  57.354 -55.778  1.00  0.00     0.027 C 
ENDBRANCH  11  13
ENDBRANCH   1   2
BRANCH   1  18
HETATM   18  N   UNL     1     -42.980  56.898 -50.777  1.00  0.00    -0.337 N 
HETATM   19  C   UNL     1     -43.826  57.916 -51.132  1.00  0.00     0.317 C 
HETATM   20  N   UNL     1     -43.449  59.105 -50.568  1.00  0.00    -0.334 N 
HETATM   21  O   UNL     1     -44.785  57.753 -51.873  1.00  0.00    -0.247 OA
HETATM   22  H   UNL     1     -42.461  59.149 -50.362  1.00  0.00     0.165 HD
HETATM   23  H   UNL     1     -42.481  56.983 -49.900  1.00  0.00     0.164 HD
BRANCH  20  24
HETATM   24  C   UNL     1     -44.106  60.387 -50.860  1.00  0.00     0.035 C 
HETATM   25  C   UNL     1     -44.239  60.645 -52.384  1.00  0.00     0.035 C 
HETATM   26  C   UNL     1     -44.968  61.976 -52.648  1.00  0.00    -0.012 C 
HETATM   27  C   UNL     1     -44.179  63.123 -51.994  1.00  0.00     0.009 C 
HETATM   28  C   UNL     1     -46.375  61.914 -52.038  1.00  0.00     0.009 C 
HETATM   29  C   UNL     1     -44.077  62.897 -50.476  1.00  0.00    -0.012 C 
HETATM   30  C   UNL     1     -43.346  61.569 -50.210  1.00  0.00     0.035 C 
HETATM   31  C   UNL     1     -45.491  62.827 -49.877  1.00  0.00     0.009 C 
HETATM   32  C   UNL     1     -46.279  61.675 -50.523  1.00  0.00    -0.012 C 
HETATM   33  C   UNL     1     -45.540  60.351 -50.266  1.00  0.00     0.035 C 
ENDBRANCH  20  24
ENDBRANCH   1  18
TORSDOF 4
ENDMDL
MODEL 7
REMARK VINA RESULT:      -8.3      2.168      4.979
REMARK  4 active torsions:
REMARK  status: ('A' for Active; 'I' for Inactive)
REMARK    1  A    between atoms: N_7  and  C_8 
REMARK    2  A    between atoms: C_14  and  C_15 
REMARK    3  A    between atoms: C_15  and  N_16 
REMARK       I    between atoms: N_16  and  C_17 
REMARK       I    between atoms: C_17  and  N_18 
REMARK    4  A    between atoms: N_18  and  C_19 
ROOT
HETATM    1  C   UNL     1     -45.005  57.640 -52.952  1.00  0.00     0.186 C 
ENDROOT
BRANCH   1   2
HETATM    2  C   UNL     1     -43.762  57.989 -52.139  1.00  0.00     0.084 C 
HETATM    3  C   UNL     1     -43.563  59.401 -51.749  1.00  0.00     0.008 A 
HETATM    4  C   UNL     1     -44.419  60.436 -52.152  1.00  0.00     0.014 A 
HETATM    5  C   UNL     1     -42.468  59.689 -50.943  1.00  0.00     0.046 A 
HETATM    6  C   UNL     1     -44.178  61.748 -51.733  1.00  0.00     0.001 A 
HETATM    7  C   UNL     1     -43.086  62.031 -50.915  1.00  0.00     0.001 A 
HETATM    8  C   UNL     1     -42.229  61.004 -50.520  1.00  0.00     0.018 A 
HETATM    9  C   UNL     1     -41.551  58.606 -50.551  1.00  0.00     0.275 C 
HETATM   10  O   UNL     1     -40.622  58.860 -49.787  1.00  0.00    -0.266 OA
HETATM   11  N   UNL     1     -41.795  57.348 -51.103  1.00  0.00    -0.229 N 
HETATM   12  N   UNL     1     -42.920  57.043 -51.839  1.00  0.00    -0.171 NA
BRANCH  11  13
HETATM   13  C   UNL     1     -40.931  56.233 -50.720  1.00  0.00     0.114 C 
HETATM   14  C   UNL     1     -41.336  55.608 -49.383  1.00  0.00     0.027 C 
HETATM   15  C   UNL     1     -40.666  54.246 -49.430  1.00  0.00     0.002 C 
HETATM   16  C   UNL     1     -40.899  53.787 -50.862  1.00  0.00     0.002 C 
HETATM   17  C   UNL     1     -40.890  55.059 -51.712  1.00  0.00     0.027 C 
ENDBRANCH  11  13
ENDBRANCH   1   2
BRANCH   1  18
HETATM   18  N   UNL     1     -44.705  56.836 -54.116  1.00  0.00    -0.337 N 
HETATM   19  C   UNL     1     -44.359  57.466 -55.282  1.00  0.00     0.317 C 
HETATM   20  N   UNL     1     -44.015  56.569 -56.257  1.00  0.00    -0.334 N 
HETATM   21  O   UNL     1     -44.377  58.682 -55.410  1.00  0.00    -0.247 OA
HETATM   22  H   UNL     1     -44.447  55.665 -56.133  1.00  0.00     0.165 HD
HETATM   23  H   UNL     1     -44.309  55.921 -53.937  1.00  0.00     0.164 HD
BRANCH  20  24
HETATM   24  C   UNL     1     -43.705  56.953 -57.642  1.00  0.00     0.035 C 
HETATM   25  C   UNL     1     -42.477  57.897 -57.729  1.00  0.00     0.035 C 
HETATM   26  C   UNL     1     -42.160  58.243 -59.196  1.00  0.00    -0.012 C 
HETATM   27  C   UNL     1     -43.384  58.925 -59.830  1.00  0.00     0.009 C 
HETATM   28  C   UNL     1     -41.842  56.953 -59.964  1.00  0.00     0.009 C 
HETATM   29  C   UNL     1     -44.598  57.981 -59.786  1.00  0.00    -0.012 C 
HETATM   30  C   UNL     1     -44.918  57.636 -58.321  1.00  0.00     0.035 C 
HETATM   31  C   UNL     1     -44.264  56.689 -60.549  1.00  0.00     0.009 C 
HETATM   32  C   UNL     1     -43.047  56.001 -59.912  1.00  0.00    -0.012 C 
HETATM   33  C   UNL     1     -43.365  55.668 -58.444  1.00  0.00     0.035 C 
ENDBRANCH  20  24
ENDBRANCH   1  18
TORSDOF 4
ENDMDL
MODEL 8
REMARK VINA RESULT:      -8.2      1.531      4.360
REMARK  4 active torsions:
REMARK  status: ('A' for Active; 'I' for Inactive)
REMARK    1  A    between atoms: N_7  and  C_8 
REMARK    2  A    between atoms: C_14  and  C_15 
REMARK    3  A    between atoms: C_15  and  N_16 
REMARK       I    between atoms: N_16  and  C_17 
REMARK       I    between atoms: C_17  and  N_18 
REMARK    4  A    between atoms: N_18  and  C_19 
ROOT
HETATM    1  C   UNL     1     -44.767  57.273 -52.978  1.00  0.00     0.186 C 
ENDROOT
BRANCH   1   2
HETATM    2  C   UNL     1     -43.470  56.829 -52.309  1.00  0.00     0.084 C 
HETATM    3  C   UNL     1     -42.690  57.842 -51.567  1.00  0.00     0.008 A 
HETATM    4  C   UNL     1     -43.049  59.197 -51.512  1.00  0.00     0.014 A 
HETATM    5  C   UNL     1     -41.553  57.404 -50.900  1.00  0.00     0.046 A 
HETATM    6  C   UNL     1     -42.272  60.098 -50.778  1.00  0.00     0.001 A 
HETATM    7  C   UNL     1     -41.139  59.653 -50.100  1.00  0.00     0.001 A 
HETATM    8  C   UNL     1     -40.777  58.308 -50.160  1.00  0.00     0.018 A 
HETATM    9  C   UNL     1     -41.159  55.988 -50.989  1.00  0.00     0.275 C 
HETATM   10  O   UNL     1     -40.187  55.599 -50.344  1.00  0.00    -0.266 OA
HETATM   11  N   UNL     1     -41.920  55.179 -51.833  1.00  0.00    -0.229 N 
HETATM   12  N   UNL     1     -43.089  55.591 -52.435  1.00  0.00    -0.171 NA
BRANCH  11  13
HETATM   13  C   UNL     1     -41.588  53.758 -51.931  1.00  0.00     0.114 C 
HETATM   14  C   UNL     1     -40.564  53.468 -53.031  1.00  0.00     0.027 C 
HETATM   15  C   UNL     1     -40.027  52.103 -52.641  1.00  0.00     0.002 C 
HETATM   16  C   UNL     1     -39.873  52.202 -51.130  1.00  0.00     0.002 C 
HETATM   17  C   UNL     1     -40.995  53.131 -50.659  1.00  0.00     0.027 C 
ENDBRANCH  11  13
ENDBRANCH   1   2
BRANCH   1  18
HETATM   18  N   UNL     1     -44.868  56.835 -54.352  1.00  0.00    -0.337 N 
HETATM   19  C   UNL     1     -44.236  57.563 -55.325  1.00  0.00     0.317 C 
HETATM   20  N   UNL     1     -44.347  56.968 -56.553  1.00  0.00    -0.334 N 
HETATM   21  O   UNL     1     -43.662  58.618 -55.097  1.00  0.00    -0.247 OA
HETATM   22  H   UNL     1     -45.165  56.381 -56.635  1.00  0.00     0.165 HD
HETATM   23  H   UNL     1     -44.967  55.838 -54.497  1.00  0.00     0.164 HD
BRANCH  20  24
HETATM   24  C   UNL     1     -43.861  57.578 -57.799  1.00  0.00     0.035 C 
HETATM   25  C   UNL     1     -42.320  57.756 -57.803  1.00  0.00     0.035 C 
HETATM   26  C   UNL     1     -41.846  58.359 -59.138  1.00  0.00    -0.012 C 
HETATM   27  C   UNL     1     -42.527  59.722 -59.347  1.00  0.00     0.009 C 
HETATM   28  C   UNL     1     -42.233  57.416 -60.287  1.00  0.00     0.009 C 
HETATM   29  C   UNL     1     -44.055  59.551 -59.386  1.00  0.00    -0.012 C 
HETATM   30  C   UNL     1     -44.531  58.951 -58.051  1.00  0.00     0.035 C 
HETATM   31  C   UNL     1     -44.430  58.598 -60.532  1.00  0.00     0.009 C 
HETATM   32  C   UNL     1     -43.758  57.232 -60.321  1.00  0.00    -0.012 C 
HETATM   33  C   UNL     1     -44.226  56.640 -58.980  1.00  0.00     0.035 C 
ENDBRANCH  20  24
ENDBRANCH   1  18
TORSDOF 4
ENDMDL
MODEL 9
REMARK VINA RESULT:      -8.2      3.646      7.798
REMARK  4 active torsions:
REMARK  status: ('A' for Active; 'I' for Inactive)
REMARK    1  A    between atoms: N_7  and  C_8 
REMARK    2  A    between atoms: C_14  and  C_15 
REMARK    3  A    between atoms: C_15  and  N_16 
REMARK       I    between atoms: N_16  and  C_17 
REMARK       I    between atoms: C_17  and  N_18 
REMARK    4  A    between atoms: N_18  and  C_19 
ROOT
HETATM    1  C   UNL     1     -44.208  57.203 -51.444  1.00  0.00     0.186 C 
ENDROOT
BRANCH   1   2
HETATM    2  C   UNL     1     -43.126  56.434 -52.196  1.00  0.00     0.084 C 
HETATM    3  C   UNL     1     -42.245  55.537 -51.418  1.00  0.00     0.008 A 
HETATM    4  C   UNL     1     -42.311  55.419 -50.022  1.00  0.00     0.014 A 
HETATM    5  C   UNL     1     -41.317  54.787 -52.129  1.00  0.00     0.046 A 
HETATM    6  C   UNL     1     -41.456  54.539 -49.353  1.00  0.00     0.001 A 
HETATM    7  C   UNL     1     -40.535  53.778 -50.070  1.00  0.00     0.001 A 
HETATM    8  C   UNL     1     -40.462  53.901 -51.457  1.00  0.00     0.018 A 
HETATM    9  C   UNL     1     -41.225  54.940 -53.590  1.00  0.00     0.275 C 
HETATM   10  O   UNL     1     -40.444  54.226 -54.216  1.00  0.00    -0.266 OA
HETATM   11  N   UNL     1     -42.032  55.920 -54.169  1.00  0.00    -0.229 N 
HETATM   12  N   UNL     1     -43.005  56.611 -53.480  1.00  0.00    -0.171 NA
BRANCH  11  13
HETATM   13  C   UNL     1     -42.000  56.090 -55.621  1.00  0.00     0.114 C 
HETATM   14  C   UNL     1     -42.875  55.069 -56.351  1.00  0.00     0.027 C 
HETATM   15  C   UNL     1     -43.076  55.709 -57.713  1.00  0.00     0.002 C 
HETATM   16  C   UNL     1     -43.311  57.176 -57.383  1.00  0.00     0.002 C 
HETATM   17  C   UNL     1     -42.472  57.459 -56.135  1.00  0.00     0.027 C 
ENDBRANCH  11  13
ENDBRANCH   1   2
BRANCH   1  18
HETATM   18  N   UNL     1     -43.792  58.537 -51.071  1.00  0.00    -0.337 N 
HETATM   19  C   UNL     1     -44.648  59.313 -50.334  1.00  0.00     0.317 C 
HETATM   20  N   UNL     1     -44.071  60.504 -49.983  1.00  0.00    -0.334 N 
HETATM   21  O   UNL     1     -45.784  58.963 -50.051  1.00  0.00    -0.247 OA
HETATM   22  H   UNL     1     -43.347  60.796 -50.623  1.00  0.00     0.165 HD
HETATM   23  H   UNL     1     -42.798  58.674 -50.941  1.00  0.00     0.164 HD
BRANCH  20  24
HETATM   24  C   UNL     1     -44.790  61.580 -49.285  1.00  0.00     0.035 C 
HETATM   25  C   UNL     1     -44.006  62.918 -49.302  1.00  0.00     0.035 C 
HETATM   26  C   UNL     1     -44.809  64.027 -48.598  1.00  0.00    -0.012 C 
HETATM   27  C   UNL     1     -45.085  63.606 -47.145  1.00  0.00     0.009 C 
HETATM   28  C   UNL     1     -46.143  64.232 -49.331  1.00  0.00     0.009 C 
HETATM   29  C   UNL     1     -45.899  62.301 -47.117  1.00  0.00    -0.012 C 
HETATM   30  C   UNL     1     -45.097  61.190 -47.818  1.00  0.00     0.035 C 
HETATM   31  C   UNL     1     -47.227  62.515 -47.862  1.00  0.00     0.009 C 
HETATM   32  C   UNL     1     -46.953  62.927 -49.317  1.00  0.00    -0.012 C 
HETATM   33  C   UNL     1     -46.141  61.820 -50.012  1.00  0.00     0.035 C 
ENDBRANCH  20  24
ENDBRANCH   1  18
TORSDOF 4
ENDMDL
MODEL 10
REMARK VINA RESULT:      -8.0      2.297      8.970
REMARK  4 active torsions:
REMARK  status: ('A' for Active; 'I' for Inactive)
REMARK    1  A    between atoms: N_7  and  C_8 
REMARK    2  A    between atoms: C_14  and  C_15 
REMARK    3  A    between atoms: C_15  and  N_16 
REMARK       I    between atoms: N_16  and  C_17 
REMARK       I    between atoms: C_17  and  N_18 
REMARK    4  A    between atoms: N_18  and  C_19 
ROOT
HETATM    1  C   UNL     1     -42.120  59.707 -56.182  1.00  0.00     0.186 C 
ENDROOT
BRANCH   1   2
HETATM    2  C   UNL     1     -42.192  59.677 -57.706  1.00  0.00     0.084 C 
HETATM    3  C   UNL     1     -41.644  60.832 -58.449  1.00  0.00     0.008 A 
HETATM    4  C   UNL     1     -41.133  61.976 -57.820  1.00  0.00     0.014 A 
HETATM    5  C   UNL     1     -41.648  60.753 -59.836  1.00  0.00     0.046 A 
HETATM    6  C   UNL     1     -40.617  63.025 -58.586  1.00  0.00     0.001 A 
HETATM    7  C   UNL     1     -40.610  62.937 -59.977  1.00  0.00     0.001 A 
HETATM    8  C   UNL     1     -41.126  61.804 -60.604  1.00  0.00     0.018 A 
HETATM    9  C   UNL     1     -42.218  59.566 -60.495  1.00  0.00     0.275 C 
HETATM   10  O   UNL     1     -42.159  59.479 -61.720  1.00  0.00    -0.266 OA
HETATM   11  N   UNL     1     -42.816  58.617 -59.666  1.00  0.00    -0.229 N 
HETATM   12  N   UNL     1     -42.748  58.655 -58.290  1.00  0.00    -0.171 NA
BRANCH  11  13
HETATM   13  C   UNL     1     -43.369  57.405 -60.269  1.00  0.00     0.114 C 
HETATM   14  C   UNL     1     -42.922  56.132 -59.547  1.00  0.00     0.027 C 
HETATM   15  C   UNL     1     -43.950  55.110 -59.999  1.00  0.00     0.002 C 
HETATM   16  C   UNL     1     -45.261  55.881 -59.951  1.00  0.00     0.002 C 
HETATM   17  C   UNL     1     -44.904  57.327 -60.302  1.00  0.00     0.027 C 
ENDBRANCH  11  13
ENDBRANCH   1   2
BRANCH   1  18
HETATM   18  N   UNL     1     -42.777  58.575 -55.567  1.00  0.00    -0.337 N 
HETATM   19  C   UNL     1     -42.195  57.990 -54.473  1.00  0.00     0.317 C 
HETATM   20  N   UNL     1     -42.984  56.999 -53.954  1.00  0.00    -0.334 N 
HETATM   21  O   UNL     1     -41.100  58.325 -54.045  1.00  0.00    -0.247 OA
HETATM   22  H   UNL     1     -43.600  56.585 -54.638  1.00  0.00     0.165 HD
HETATM   23  H   UNL     1     -43.786  58.554 -55.634  1.00  0.00     0.164 HD
BRANCH  20  24
HETATM   24  C   UNL     1     -42.567  56.126 -52.846  1.00  0.00     0.035 C 
HETATM   25  C   UNL     1     -42.655  56.840 -51.472  1.00  0.00     0.035 C 
HETATM   26  C   UNL     1     -42.250  55.882 -50.335  1.00  0.00    -0.012 C 
HETATM   27  C   UNL     1     -40.812  55.392 -50.575  1.00  0.00     0.009 C 
HETATM   28  C   UNL     1     -43.202  54.677 -50.324  1.00  0.00     0.009 C 
HETATM   29  C   UNL     1     -40.723  54.647 -51.918  1.00  0.00    -0.012 C 
HETATM   30  C   UNL     1     -41.124  55.603 -53.055  1.00  0.00     0.035 C 
HETATM   31  C   UNL     1     -41.687  53.450 -51.899  1.00  0.00     0.009 C 
HETATM   32  C   UNL     1     -43.127  53.937 -51.669  1.00  0.00    -0.012 C 
HETATM   33  C   UNL     1     -43.521  54.902 -52.800  1.00  0.00     0.035 C 
ENDBRANCH  20  24
ENDBRANCH   1  18
TORSDOF 4
ENDMDL
