MODEL 1
REMARK VINA RESULT:      -7.6      0.000      0.000
REMARK  5 active torsions:
REMARK  status: ('A' for Active; 'I' for Inactive)
REMARK    1  A    between atoms: C_4  and  C_5 
REMARK    2  A    between atoms: C_11  and  C_12 
REMARK    3  A    between atoms: C_12  and  N_13 
REMARK    4  A    between atoms: C_16  and  C_17 
REMARK    5  A    between atoms: C_17  and  O_18 
ROOT
HETATM    1  N   UNL     1     -42.199  58.081 -54.051  1.00  0.00    -0.066 N 
HETATM    2  H   UNL     1     -42.811  57.253 -53.983  1.00  0.00     0.280 HD
HETATM    3  C   UNL     1     -42.923  59.264 -53.484  1.00  0.00     0.250 C 
HETATM    4  C   UNL     1     -42.884  59.068 -51.961  1.00  0.00     0.036 C 
HETATM    5  C   UNL     1     -41.666  58.127 -51.713  1.00  0.00     0.061 C 
HETATM    6  C   UNL     1     -41.050  57.874 -53.098  1.00  0.00     0.245 C 
HETATM    7  C   UNL     1     -44.201  58.431 -51.490  1.00  0.00     0.189 C 
HETATM    8  O   UNL     1     -44.291  57.073 -51.938  1.00  0.00    -0.350 OA
HETATM    9  C   UNL     1     -43.368  56.330 -51.247  1.00  0.00     0.075 A 
HETATM   10  C   UNL     1     -42.070  56.820 -51.069  1.00  0.00    -0.018 A 
HETATM   11  C   UNL     1     -43.757  55.100 -50.730  1.00  0.00     0.037 A 
HETATM   12  C   UNL     1     -42.848  54.363 -49.973  1.00  0.00     0.003 A 
HETATM   13  C   UNL     1     -41.558  54.850 -49.757  1.00  0.00     0.001 A 
HETATM   14  C   UNL     1     -41.163  56.069 -50.312  1.00  0.00     0.010 A 
ENDROOT
BRANCH   1  15
HETATM   15  C   UNL     1     -41.808  58.259 -55.489  1.00  0.00     0.277 C 
BRANCH  15  16
HETATM   16  C   UNL     1     -42.498  57.327 -56.411  1.00  0.00     0.016 A 
HETATM   17  C   UNL     1     -42.540  55.898 -56.346  1.00  0.00     0.096 A 
HETATM   18  N   UNL     1     -43.308  55.403 -57.324  1.00  0.00    -0.172 NA
HETATM   19  N   UNL     1     -43.659  56.462 -58.064  1.00  0.00    -0.284 N 
HETATM   20  C   UNL     1     -44.420  56.268 -59.276  1.00  0.00     0.179 C 
HETATM   21  C   UNL     1     -43.231  57.646 -57.540  1.00  0.00     0.123 A 
BRANCH  17  22
HETATM   22  C   UNL     1     -41.907  55.004 -55.378  1.00  0.00    -0.005 A 
HETATM   23  C   UNL     1     -40.557  54.650 -55.499  1.00  0.00     0.014 A 
HETATM   24  C   UNL     1     -39.962  53.805 -54.559  1.00  0.00     0.001 A 
HETATM   25  C   UNL     1     -40.717  53.294 -53.505  1.00  0.00     0.000 A 
HETATM   26  C   UNL     1     -42.068  53.618 -53.392  1.00  0.00     0.001 A 
HETATM   27  C   UNL     1     -42.661  54.468 -54.327  1.00  0.00     0.014 A 
ENDBRANCH  17  22
ENDBRANCH  15  16
ENDBRANCH   1  15
BRANCH   4  28
HETATM   28  C   UNL     1     -42.709  60.417 -51.254  1.00  0.00     0.178 C 
BRANCH  28  29
HETATM   29  O   UNL     1     -42.446  60.189 -49.877  1.00  0.00    -0.400 OA
HETATM   30  H   UNL     1     -41.849  59.415 -49.818  1.00  0.00     0.209 HD
ENDBRANCH  28  29
ENDBRANCH   4  28
TORSDOF 5
ENDMDL
MODEL 2
REMARK VINA RESULT:      -7.6      2.655      5.616
REMARK  5 active torsions:
REMARK  status: ('A' for Active; 'I' for Inactive)
REMARK    1  A    between atoms: C_4  and  C_5 
REMARK    2  A    between atoms: C_11  and  C_12 
REMARK    3  A    between atoms: C_12  and  N_13 
REMARK    4  A    between atoms: C_16  and  C_17 
REMARK    5  A    between atoms: C_17  and  O_18 
ROOT
HETATM    1  N   UNL     1     -41.425  56.636 -51.754  1.00  0.00    -0.066 N 
HETATM    2  H   UNL     1     -41.084  56.310 -52.673  1.00  0.00     0.280 HD
HETATM    3  C   UNL     1     -42.899  56.380 -51.669  1.00  0.00     0.250 C 
HETATM    4  C   UNL     1     -43.033  54.866 -51.446  1.00  0.00     0.036 C 
HETATM    5  C   UNL     1     -41.663  54.431 -50.840  1.00  0.00     0.061 C 
HETATM    6  C   UNL     1     -40.842  55.723 -50.707  1.00  0.00     0.245 C 
HETATM    7  C   UNL     1     -43.306  54.170 -52.789  1.00  0.00     0.189 C 
HETATM    8  O   UNL     1     -42.146  54.220 -53.628  1.00  0.00    -0.350 OA
HETATM    9  C   UNL     1     -41.188  53.401 -53.088  1.00  0.00     0.075 A 
HETATM   10  C   UNL     1     -40.938  53.432 -51.712  1.00  0.00    -0.018 A 
HETATM   11  C   UNL     1     -40.492  52.546 -53.933  1.00  0.00     0.037 A 
HETATM   12  C   UNL     1     -39.560  51.663 -53.390  1.00  0.00     0.003 A 
HETATM   13  C   UNL     1     -39.319  51.657 -52.015  1.00  0.00     0.001 A 
HETATM   14  C   UNL     1     -39.996  52.546 -51.177  1.00  0.00     0.010 A 
ENDROOT
BRANCH   1  15
HETATM   15  C   UNL     1     -41.066  58.085 -51.607  1.00  0.00     0.277 C 
BRANCH  15  16
HETATM   16  C   UNL     1     -41.622  58.946 -52.677  1.00  0.00     0.016 A 
HETATM   17  C   UNL     1     -42.689  59.893 -52.575  1.00  0.00     0.096 A 
HETATM   18  N   UNL     1     -42.874  60.522 -53.743  1.00  0.00    -0.172 NA
HETATM   19  N   UNL     1     -42.036  59.926 -54.599  1.00  0.00    -0.284 N 
HETATM   20  C   UNL     1     -42.051  60.301 -55.994  1.00  0.00     0.179 C 
HETATM   21  C   UNL     1     -41.234  58.998 -54.003  1.00  0.00     0.123 A 
BRANCH  17  22
HETATM   22  C   UNL     1     -43.504  60.236 -51.413  1.00  0.00    -0.005 A 
HETATM   23  C   UNL     1     -43.104  61.242 -50.522  1.00  0.00     0.014 A 
HETATM   24  C   UNL     1     -43.900  61.568 -49.422  1.00  0.00     0.001 A 
HETATM   25  C   UNL     1     -45.090  60.880 -49.193  1.00  0.00     0.000 A 
HETATM   26  C   UNL     1     -45.483  59.859 -50.058  1.00  0.00     0.001 A 
HETATM   27  C   UNL     1     -44.692  59.537 -51.162  1.00  0.00     0.014 A 
ENDBRANCH  17  22
ENDBRANCH  15  16
ENDBRANCH   1  15
BRANCH   4  28
HETATM   28  C   UNL     1     -44.194  54.567 -50.491  1.00  0.00     0.178 C 
BRANCH  28  29
HETATM   29  O   UNL     1     -44.967  55.746 -50.316  1.00  0.00    -0.400 OA
HETATM   30  H   UNL     1     -45.753  55.503 -49.784  1.00  0.00     0.209 HD
ENDBRANCH  28  29
ENDBRANCH   4  28
TORSDOF 5
ENDMDL
MODEL 3
REMARK VINA RESULT:      -7.5      2.550      5.958
REMARK  5 active torsions:
REMARK  status: ('A' for Active; 'I' for Inactive)
REMARK    1  A    between atoms: C_4  and  C_5 
REMARK    2  A    between atoms: C_11  and  C_12 
REMARK    3  A    between atoms: C_12  and  N_13 
REMARK    4  A    between atoms: C_16  and  C_17 
REMARK    5  A    between atoms: C_17  and  O_18 
ROOT
HETATM    1  N   UNL     1     -41.849  56.793 -54.614  1.00  0.00    -0.066 N 
HETATM    2  H   UNL     1     -41.189  57.212 -55.288  1.00  0.00     0.280 HD
HETATM    3  C   UNL     1     -42.858  57.830 -54.221  1.00  0.00     0.250 C 
HETATM    4  C   UNL     1     -43.801  57.951 -55.428  1.00  0.00     0.036 C 
HETATM    5  C   UNL     1     -43.646  56.599 -56.190  1.00  0.00     0.061 C 
HETATM    6  C   UNL     1     -42.662  55.765 -55.355  1.00  0.00     0.245 C 
HETATM    7  C   UNL     1     -43.375  59.145 -56.296  1.00  0.00     0.189 C 
HETATM    8  O   UNL     1     -42.129  58.874 -56.949  1.00  0.00    -0.350 OA
HETATM    9  C   UNL     1     -42.343  57.910 -57.901  1.00  0.00     0.075 A 
HETATM   10  C   UNL     1     -43.120  56.788 -57.594  1.00  0.00    -0.018 A 
HETATM   11  C   UNL     1     -41.783  58.083 -59.161  1.00  0.00     0.037 A 
HETATM   12  C   UNL     1     -42.044  57.144 -60.156  1.00  0.00     0.003 A 
HETATM   13  C   UNL     1     -42.843  56.033 -59.879  1.00  0.00     0.001 A 
HETATM   14  C   UNL     1     -43.371  55.846 -58.600  1.00  0.00     0.010 A 
ENDROOT
BRANCH   1  15
HETATM   15  C   UNL     1     -41.061  56.264 -53.452  1.00  0.00     0.277 C 
BRANCH  15  16
HETATM   16  C   UNL     1     -41.885  55.543 -52.455  1.00  0.00     0.016 A 
HETATM   17  C   UNL     1     -41.824  54.158 -52.101  1.00  0.00     0.096 A 
HETATM   18  N   UNL     1     -42.691  53.882 -51.119  1.00  0.00    -0.172 NA
HETATM   19  N   UNL     1     -43.369  55.019 -50.921  1.00  0.00    -0.284 N 
HETATM   20  C   UNL     1     -44.467  55.044 -49.982  1.00  0.00     0.179 C 
HETATM   21  C   UNL     1     -42.901  56.059 -51.670  1.00  0.00     0.123 A 
BRANCH  17  22
HETATM   22  C   UNL     1     -40.958  53.111 -52.639  1.00  0.00    -0.005 A 
HETATM   23  C   UNL     1     -39.999  52.483 -51.832  1.00  0.00     0.014 A 
HETATM   24  C   UNL     1     -39.187  51.475 -52.355  1.00  0.00     0.001 A 
HETATM   25  C   UNL     1     -39.314  51.101 -53.692  1.00  0.00     0.000 A 
HETATM   26  C   UNL     1     -40.245  51.739 -54.510  1.00  0.00     0.001 A 
HETATM   27  C   UNL     1     -41.063  52.741 -53.986  1.00  0.00     0.014 A 
ENDBRANCH  17  22
ENDBRANCH  15  16
ENDBRANCH   1  15
BRANCH   4  28
HETATM   28  C   UNL     1     -45.243  58.172 -54.958  1.00  0.00     0.178 C 
BRANCH  28  29
HETATM   29  O   UNL     1     -46.134  57.803 -56.001  1.00  0.00    -0.400 OA
HETATM   30  H   UNL     1     -46.656  58.598 -56.234  1.00  0.00     0.209 HD
ENDBRANCH  28  29
ENDBRANCH   4  28
TORSDOF 5
ENDMDL
MODEL 4
REMARK VINA RESULT:      -7.3      2.438      6.433
REMARK  5 active torsions:
REMARK  status: ('A' for Active; 'I' for Inactive)
REMARK    1  A    between atoms: C_4  and  C_5 
REMARK    2  A    between atoms: C_11  and  C_12 
REMARK    3  A    between atoms: C_12  and  N_13 
REMARK    4  A    between atoms: C_16  and  C_17 
REMARK    5  A    between atoms: C_17  and  O_18 
ROOT
HETATM    1  N   UNL     1     -43.999  56.880 -55.778  1.00  0.00    -0.066 N 
HETATM    2  H   UNL     1     -44.160  56.029 -56.340  1.00  0.00     0.280 HD
HETATM    3  C   UNL     1     -42.697  57.494 -56.196  1.00  0.00     0.250 C 
HETATM    4  C   UNL     1     -42.982  58.158 -57.552  1.00  0.00     0.036 C 
HETATM    5  C   UNL     1     -44.523  58.396 -57.561  1.00  0.00     0.061 C 
HETATM    6  C   UNL     1     -45.026  57.899 -56.197  1.00  0.00     0.245 C 
HETATM    7  C   UNL     1     -42.545  57.218 -58.687  1.00  0.00     0.189 C 
HETATM    8  O   UNL     1     -43.407  56.077 -58.756  1.00  0.00    -0.350 OA
HETATM    9  C   UNL     1     -44.636  56.491 -59.205  1.00  0.00     0.075 A 
HETATM   10  C   UNL     1     -45.214  57.652 -58.681  1.00  0.00    -0.018 A 
HETATM   11  C   UNL     1     -45.273  55.741 -60.185  1.00  0.00     0.037 A 
HETATM   12  C   UNL     1     -46.492  56.184 -60.696  1.00  0.00     0.003 A 
HETATM   13  C   UNL     1     -47.070  57.358 -60.209  1.00  0.00     0.001 A 
HETATM   14  C   UNL     1     -46.441  58.086 -59.196  1.00  0.00     0.010 A 
ENDROOT
BRANCH   1  15
HETATM   15  C   UNL     1     -44.035  56.499 -54.327  1.00  0.00     0.277 C 
BRANCH  15  16
HETATM   16  C   UNL     1     -42.959  57.123 -53.523  1.00  0.00     0.016 A 
HETATM   17  C   UNL     1     -41.692  56.564 -53.167  1.00  0.00     0.096 A 
HETATM   18  N   UNL     1     -40.962  57.448 -52.476  1.00  0.00    -0.172 NA
HETATM   19  N   UNL     1     -41.768  58.500 -52.293  1.00  0.00    -0.284 N 
HETATM   20  C   UNL     1     -41.322  59.613 -51.486  1.00  0.00     0.179 C 
HETATM   21  C   UNL     1     -42.967  58.374 -52.932  1.00  0.00     0.123 A 
BRANCH  17  22
HETATM   22  C   UNL     1     -41.148  55.246 -53.487  1.00  0.00    -0.005 A 
HETATM   23  C   UNL     1     -41.127  54.223 -52.529  1.00  0.00     0.014 A 
HETATM   24  C   UNL     1     -40.617  52.963 -52.852  1.00  0.00     0.001 A 
HETATM   25  C   UNL     1     -40.106  52.724 -54.126  1.00  0.00     0.000 A 
HETATM   26  C   UNL     1     -40.097  53.743 -55.077  1.00  0.00     0.001 A 
HETATM   27  C   UNL     1     -40.614  55.000 -54.758  1.00  0.00     0.014 A 
ENDBRANCH  17  22
ENDBRANCH  15  16
ENDBRANCH   1  15
BRANCH   4  28
HETATM   28  C   UNL     1     -42.206  59.474 -57.675  1.00  0.00     0.178 C 
BRANCH  28  29
HETATM   29  O   UNL     1     -41.706  59.841 -56.397  1.00  0.00    -0.400 OA
HETATM   30  H   UNL     1     -42.401  59.631 -55.740  1.00  0.00     0.209 HD
ENDBRANCH  28  29
ENDBRANCH   4  28
TORSDOF 5
ENDMDL
MODEL 5
REMARK VINA RESULT:      -7.3      2.733      5.440
REMARK  5 active torsions:
REMARK  status: ('A' for Active; 'I' for Inactive)
REMARK    1  A    between atoms: C_4  and  C_5 
REMARK    2  A    between atoms: C_11  and  C_12 
REMARK    3  A    between atoms: C_12  and  N_13 
REMARK    4  A    between atoms: C_16  and  C_17 
REMARK    5  A    between atoms: C_17  and  O_18 
ROOT
HETATM    1  N   UNL     1     -41.771  55.967 -53.411  1.00  0.00    -0.066 N 
HETATM    2  H   UNL     1     -42.324  56.024 -52.541  1.00  0.00     0.280 HD
HETATM    3  C   UNL     1     -42.711  55.853 -54.573  1.00  0.00     0.250 C 
HETATM    4  C   UNL     1     -43.296  57.261 -54.758  1.00  0.00     0.036 C 
HETATM    5  C   UNL     1     -42.252  58.214 -54.098  1.00  0.00     0.061 C 
HETATM    6  C   UNL     1     -41.111  57.305 -53.615  1.00  0.00     0.245 C 
HETATM    7  C   UNL     1     -44.664  57.346 -54.061  1.00  0.00     0.189 C 
HETATM    8  O   UNL     1     -44.508  57.301 -52.638  1.00  0.00    -0.350 OA
HETATM    9  C   UNL     1     -43.922  58.473 -52.231  1.00  0.00     0.075 A 
HETATM   10  C   UNL     1     -42.834  58.992 -52.940  1.00  0.00    -0.018 A 
HETATM   11  C   UNL     1     -44.441  59.123 -51.118  1.00  0.00     0.037 A 
HETATM   12  C   UNL     1     -43.897  60.347 -50.731  1.00  0.00     0.003 A 
HETATM   13  C   UNL     1     -42.831  60.897 -51.444  1.00  0.00     0.001 A 
HETATM   14  C   UNL     1     -42.291  60.218 -52.539  1.00  0.00     0.010 A 
ENDROOT
BRANCH   1  15
HETATM   15  C   UNL     1     -40.830  54.804 -53.294  1.00  0.00     0.277 C 
BRANCH  15  16
HETATM   16  C   UNL     1     -40.674  54.305 -51.908  1.00  0.00     0.016 A 
HETATM   17  C   UNL     1     -40.325  52.983 -51.485  1.00  0.00     0.096 A 
HETATM   18  N   UNL     1     -40.227  52.925 -50.151  1.00  0.00    -0.172 NA
HETATM   19  N   UNL     1     -40.607  54.133 -49.718  1.00  0.00    -0.284 N 
HETATM   20  C   UNL     1     -40.713  54.385 -48.300  1.00  0.00     0.179 C 
HETATM   21  C   UNL     1     -40.851  55.012 -50.732  1.00  0.00     0.123 A 
BRANCH  17  22
HETATM   22  C   UNL     1     -40.057  51.800 -52.299  1.00  0.00    -0.005 A 
HETATM   23  C   UNL     1     -40.171  51.844 -53.695  1.00  0.00     0.014 A 
HETATM   24  C   UNL     1     -39.899  50.708 -54.461  1.00  0.00     0.001 A 
HETATM   25  C   UNL     1     -39.530  49.518 -53.837  1.00  0.00     0.000 A 
HETATM   26  C   UNL     1     -39.440  49.457 -52.447  1.00  0.00     0.001 A 
HETATM   27  C   UNL     1     -39.705  50.593 -51.681  1.00  0.00     0.014 A 
ENDBRANCH  17  22
ENDBRANCH  15  16
ENDBRANCH   1  15
BRANCH   4  28
HETATM   28  C   UNL     1     -43.481  57.570 -56.247  1.00  0.00     0.178 C 
BRANCH  28  29
HETATM   29  O   UNL     1     -44.032  56.432 -56.895  1.00  0.00    -0.400 OA
HETATM   30  H   UNL     1     -44.672  56.025 -56.275  1.00  0.00     0.209 HD
ENDBRANCH  28  29
ENDBRANCH   4  28
TORSDOF 5
ENDMDL
MODEL 6
REMARK VINA RESULT:      -7.2      2.482      6.139
REMARK  5 active torsions:
REMARK  status: ('A' for Active; 'I' for Inactive)
REMARK    1  A    between atoms: C_4  and  C_5 
REMARK    2  A    between atoms: C_11  and  C_12 
REMARK    3  A    between atoms: C_12  and  N_13 
REMARK    4  A    between atoms: C_16  and  C_17 
REMARK    5  A    between atoms: C_17  and  O_18 
ROOT
HETATM    1  N   UNL     1     -41.168  55.797 -55.141  1.00  0.00    -0.066 N 
HETATM    2  H   UNL     1     -40.761  56.417 -55.858  1.00  0.00     0.280 HD
HETATM    3  C   UNL     1     -42.124  56.591 -54.303  1.00  0.00     0.250 C 
HETATM    4  C   UNL     1     -43.368  56.781 -55.183  1.00  0.00     0.036 C 
HETATM    5  C   UNL     1     -43.302  55.618 -56.221  1.00  0.00     0.061 C 
HETATM    6  C   UNL     1     -42.052  54.805 -55.850  1.00  0.00     0.245 C 
HETATM    7  C   UNL     1     -43.312  58.156 -55.866  1.00  0.00     0.189 C 
HETATM    8  O   UNL     1     -42.274  58.187 -56.852  1.00  0.00    -0.350 OA
HETATM    9  C   UNL     1     -42.648  57.381 -57.897  1.00  0.00     0.075 A 
HETATM   10  C   UNL     1     -43.201  56.121 -57.643  1.00  0.00    -0.018 A 
HETATM   11  C   UNL     1     -42.475  57.849 -59.193  1.00  0.00     0.037 A 
HETATM   12  C   UNL     1     -42.909  57.068 -60.263  1.00  0.00     0.003 A 
HETATM   13  C   UNL     1     -43.492  55.822 -60.028  1.00  0.00     0.001 A 
HETATM   14  C   UNL     1     -43.629  55.342 -58.724  1.00  0.00     0.010 A 
ENDROOT
BRANCH   1  15
HETATM   15  C   UNL     1     -40.045  55.195 -54.349  1.00  0.00     0.277 C 
BRANCH  15  16
HETATM   16  C   UNL     1     -40.237  53.758 -54.044  1.00  0.00     0.016 A 
HETATM   17  C   UNL     1     -40.575  53.164 -52.788  1.00  0.00     0.096 A 
HETATM   18  N   UNL     1     -40.715  51.838 -52.914  1.00  0.00    -0.172 NA
HETATM   19  N   UNL     1     -40.370  51.569 -54.179  1.00  0.00    -0.284 N 
HETATM   20  C   UNL     1     -40.314  50.197 -54.629  1.00  0.00     0.179 C 
HETATM   21  C   UNL     1     -40.110  52.689 -54.913  1.00  0.00     0.123 A 
BRANCH  17  22
HETATM   22  C   UNL     1     -40.797  53.811 -51.497  1.00  0.00    -0.005 A 
HETATM   23  C   UNL     1     -41.985  54.505 -51.232  1.00  0.00     0.014 A 
HETATM   24  C   UNL     1     -42.189  55.108 -49.989  1.00  0.00     0.001 A 
HETATM   25  C   UNL     1     -41.200  55.039 -49.010  1.00  0.00     0.000 A 
HETATM   26  C   UNL     1     -40.002  54.374 -49.273  1.00  0.00     0.001 A 
HETATM   27  C   UNL     1     -39.801  53.765 -50.512  1.00  0.00     0.014 A 
ENDBRANCH  17  22
ENDBRANCH  15  16
ENDBRANCH   1  15
BRANCH   4  28
HETATM   28  C   UNL     1     -44.641  56.705 -54.331  1.00  0.00     0.178 C 
BRANCH  28  29
HETATM   29  O   UNL     1     -44.281  56.467 -52.978  1.00  0.00    -0.400 OA
HETATM   30  H   UNL     1     -43.309  56.353 -52.950  1.00  0.00     0.209 HD
ENDBRANCH  28  29
ENDBRANCH   4  28
TORSDOF 5
ENDMDL
MODEL 7
REMARK VINA RESULT:      -7.2      2.130      4.486
REMARK  5 active torsions:
REMARK  status: ('A' for Active; 'I' for Inactive)
REMARK    1  A    between atoms: C_4  and  C_5 
REMARK    2  A    between atoms: C_11  and  C_12 
REMARK    3  A    between atoms: C_12  and  N_13 
REMARK    4  A    between atoms: C_16  and  C_17 
REMARK    5  A    between atoms: C_17  and  O_18 
ROOT
HETATM    1  N   UNL     1     -43.510  57.123 -54.840  1.00  0.00    -0.066 N 
HETATM    2  H   UNL     1     -43.815  56.260 -54.364  1.00  0.00     0.280 HD
HETATM    3  C   UNL     1     -42.972  58.074 -53.814  1.00  0.00     0.250 C 
HETATM    4  C   UNL     1     -41.592  57.517 -53.433  1.00  0.00     0.036 C 
HETATM    5  C   UNL     1     -41.169  56.639 -54.650  1.00  0.00     0.061 C 
HETATM    6  C   UNL     1     -42.305  56.778 -55.675  1.00  0.00     0.245 C 
HETATM    7  C   UNL     1     -41.710  56.686 -52.145  1.00  0.00     0.189 C 
HETATM    8  O   UNL     1     -42.434  55.475 -52.392  1.00  0.00    -0.350 OA
HETATM    9  C   UNL     1     -41.655  54.659 -53.171  1.00  0.00     0.075 A 
HETATM   10  C   UNL     1     -40.974  55.188 -54.272  1.00  0.00    -0.018 A 
HETATM   11  C   UNL     1     -41.557  53.315 -52.834  1.00  0.00     0.037 A 
HETATM   12  C   UNL     1     -40.719  52.486 -53.579  1.00  0.00     0.003 A 
HETATM   13  C   UNL     1     -40.006  53.002 -54.662  1.00  0.00     0.001 A 
HETATM   14  C   UNL     1     -40.140  54.346 -55.017  1.00  0.00     0.010 A 
ENDROOT
BRANCH   1  15
HETATM   15  C   UNL     1     -44.677  57.675 -55.604  1.00  0.00     0.277 C 
BRANCH  15  16
HETATM   16  C   UNL     1     -44.291  58.630 -56.669  1.00  0.00     0.016 A 
HETATM   17  C   UNL     1     -44.271  58.409 -58.082  1.00  0.00     0.096 A 
HETATM   18  N   UNL     1     -43.917  59.526 -58.730  1.00  0.00    -0.172 NA
HETATM   19  N   UNL     1     -43.609  60.405 -57.770  1.00  0.00    -0.284 N 
HETATM   20  C   UNL     1     -43.084  61.703 -58.128  1.00  0.00     0.179 C 
HETATM   21  C   UNL     1     -43.851  59.932 -56.513  1.00  0.00     0.123 A 
BRANCH  17  22
HETATM   22  C   UNL     1     -44.604  57.197 -58.826  1.00  0.00    -0.005 A 
HETATM   23  C   UNL     1     -43.682  56.148 -58.947  1.00  0.00     0.014 A 
HETATM   24  C   UNL     1     -44.018  54.990 -59.651  1.00  0.00     0.001 A 
HETATM   25  C   UNL     1     -45.270  54.879 -60.254  1.00  0.00     0.000 A 
HETATM   26  C   UNL     1     -46.184  55.927 -60.162  1.00  0.00     0.001 A 
HETATM   27  C   UNL     1     -45.852  57.083 -59.453  1.00  0.00     0.014 A 
ENDBRANCH  17  22
ENDBRANCH  15  16
ENDBRANCH   1  15
BRANCH   4  28
HETATM   28  C   UNL     1     -40.602  58.662 -53.192  1.00  0.00     0.178 C 
BRANCH  28  29
HETATM   29  O   UNL     1     -40.953  59.763 -54.018  1.00  0.00    -0.400 OA
HETATM   30  H   UNL     1     -40.919  60.568 -53.462  1.00  0.00     0.209 HD
ENDBRANCH  28  29
ENDBRANCH   4  28
TORSDOF 5
ENDMDL
MODEL 8
REMARK VINA RESULT:      -7.2      2.883      6.326
REMARK  5 active torsions:
REMARK  status: ('A' for Active; 'I' for Inactive)
REMARK    1  A    between atoms: C_4  and  C_5 
REMARK    2  A    between atoms: C_11  and  C_12 
REMARK    3  A    between atoms: C_12  and  N_13 
REMARK    4  A    between atoms: C_16  and  C_17 
REMARK    5  A    between atoms: C_17  and  O_18 
ROOT
HETATM    1  N   UNL     1     -43.290  55.780 -56.490  1.00  0.00    -0.066 N 
HETATM    2  H   UNL     1     -44.091  56.353 -56.182  1.00  0.00     0.280 HD
HETATM    3  C   UNL     1     -43.531  55.332 -57.900  1.00  0.00     0.250 C 
HETATM    4  C   UNL     1     -43.276  56.574 -58.766  1.00  0.00     0.036 C 
HETATM    5  C   UNL     1     -42.355  57.482 -57.896  1.00  0.00     0.061 C 
HETATM    6  C   UNL     1     -42.097  56.692 -56.604  1.00  0.00     0.245 C 
HETATM    7  C   UNL     1     -44.613  57.261 -59.087  1.00  0.00     0.189 C 
HETATM    8  O   UNL     1     -45.167  57.859 -57.909  1.00  0.00    -0.350 OA
HETATM    9  C   UNL     1     -44.387  58.933 -57.563  1.00  0.00     0.075 A 
HETATM   10  C   UNL     1     -42.993  58.816 -57.581  1.00  0.00    -0.018 A 
HETATM   11  C   UNL     1     -45.011  60.123 -57.210  1.00  0.00     0.037 A 
HETATM   12  C   UNL     1     -44.230  61.240 -56.918  1.00  0.00     0.003 A 
HETATM   13  C   UNL     1     -42.838  61.152 -56.961  1.00  0.00     0.001 A 
HETATM   14  C   UNL     1     -42.218  59.942 -57.280  1.00  0.00     0.010 A 
ENDROOT
BRANCH   1  15
HETATM   15  C   UNL     1     -43.130  54.641 -55.526  1.00  0.00     0.277 C 
BRANCH  15  16
HETATM   16  C   UNL     1     -43.070  55.068 -54.108  1.00  0.00     0.016 A 
HETATM   17  C   UNL     1     -42.268  54.518 -53.059  1.00  0.00     0.096 A 
HETATM   18  N   UNL     1     -42.444  55.203 -51.922  1.00  0.00    -0.172 NA
HETATM   19  N   UNL     1     -43.408  56.091 -52.193  1.00  0.00    -0.284 N 
HETATM   20  C   UNL     1     -43.919  56.938 -51.140  1.00  0.00     0.179 C 
HETATM   21  C   UNL     1     -43.794  56.079 -53.501  1.00  0.00     0.123 A 
BRANCH  17  22
HETATM   22  C   UNL     1     -41.330  53.399 -53.111  1.00  0.00    -0.005 A 
HETATM   23  C   UNL     1     -41.186  52.632 -54.275  1.00  0.00     0.014 A 
HETATM   24  C   UNL     1     -40.276  51.574 -54.314  1.00  0.00     0.001 A 
HETATM   25  C   UNL     1     -39.520  51.262 -53.186  1.00  0.00     0.000 A 
HETATM   26  C   UNL     1     -39.676  52.001 -52.014  1.00  0.00     0.001 A 
HETATM   27  C   UNL     1     -40.580  53.064 -51.976  1.00  0.00     0.014 A 
ENDBRANCH  17  22
ENDBRANCH  15  16
ENDBRANCH   1  15
BRANCH   4  28
HETATM   28  C   UNL     1     -42.598  56.177 -60.082  1.00  0.00     0.178 C 
BRANCH  28  29
HETATM   29  O   UNL     1     -41.403  56.930 -60.236  1.00  0.00    -0.400 OA
HETATM   30  H   UNL     1     -40.977  56.634 -61.066  1.00  0.00     0.209 HD
ENDBRANCH  28  29
ENDBRANCH   4  28
TORSDOF 5
ENDMDL
MODEL 9
REMARK VINA RESULT:      -7.0     16.085     18.225
REMARK  5 active torsions:
REMARK  status: ('A' for Active; 'I' for Inactive)
REMARK    1  A    between atoms: C_4  and  C_5 
REMARK    2  A    between atoms: C_11  and  C_12 
REMARK    3  A    between atoms: C_12  and  N_13 
REMARK    4  A    between atoms: C_16  and  C_17 
REMARK    5  A    between atoms: C_17  and  O_18 
ROOT
HETATM    1  N   UNL     1     -35.214  41.368 -54.318  1.00  0.00    -0.066 N 
HETATM    2  H   UNL     1     -36.053  40.784 -54.463  1.00  0.00     0.280 HD
HETATM    3  C   UNL     1     -33.996  40.528 -54.558  1.00  0.00     0.250 C 
HETATM    4  C   UNL     1     -33.910  40.370 -56.083  1.00  0.00     0.036 C 
HETATM    5  C   UNL     1     -34.712  41.580 -56.653  1.00  0.00     0.061 C 
HETATM    6  C   UNL     1     -35.172  42.385 -55.428  1.00  0.00     0.245 C 
HETATM    7  C   UNL     1     -34.534  39.028 -56.498  1.00  0.00     0.189 C 
HETATM    8  O   UNL     1     -35.953  39.052 -56.306  1.00  0.00    -0.350 OA
HETATM    9  C   UNL     1     -36.499  39.903 -57.233  1.00  0.00     0.075 A 
HETATM   10  C   UNL     1     -35.903  41.144 -57.476  1.00  0.00    -0.018 A 
HETATM   11  C   UNL     1     -37.637  39.497 -57.919  1.00  0.00     0.037 A 
HETATM   12  C   UNL     1     -38.166  40.323 -58.909  1.00  0.00     0.003 A 
HETATM   13  C   UNL     1     -37.567  41.553 -59.188  1.00  0.00     0.001 A 
HETATM   14  C   UNL     1     -36.446  41.970 -58.468  1.00  0.00     0.010 A 
ENDROOT
BRANCH   1  15
HETATM   15  C   UNL     1     -35.275  41.940 -52.932  1.00  0.00     0.277 C 
BRANCH  15  16
HETATM   16  C   UNL     1     -35.880  41.024 -51.937  1.00  0.00     0.016 A 
HETATM   17  C   UNL     1     -37.232  40.560 -51.879  1.00  0.00     0.096 A 
HETATM   18  N   UNL     1     -37.392  39.699 -50.866  1.00  0.00    -0.172 NA
HETATM   19  N   UNL     1     -36.218  39.691 -50.224  1.00  0.00    -0.284 N 
HETATM   20  C   UNL     1     -36.074  38.930 -49.004  1.00  0.00     0.179 C 
HETATM   21  C   UNL     1     -35.263  40.440 -50.846  1.00  0.00     0.123 A 
BRANCH  17  22
HETATM   22  C   UNL     1     -38.351  40.881 -52.761  1.00  0.00    -0.005 A 
HETATM   23  C   UNL     1     -39.625  41.150 -52.242  1.00  0.00     0.014 A 
HETATM   24  C   UNL     1     -40.683  41.468 -53.096  1.00  0.00     0.001 A 
HETATM   25  C   UNL     1     -40.480  41.501 -54.475  1.00  0.00     0.000 A 
HETATM   26  C   UNL     1     -39.224  41.208 -55.003  1.00  0.00     0.001 A 
HETATM   27  C   UNL     1     -38.164  40.898 -54.149  1.00  0.00     0.014 A 
ENDBRANCH  17  22
ENDBRANCH  15  16
ENDBRANCH   1  15
BRANCH   4  28
HETATM   28  C   UNL     1     -32.447  40.396 -56.541  1.00  0.00     0.178 C 
BRANCH  28  29
HETATM   29  O   UNL     1     -31.603  40.418 -55.399  1.00  0.00    -0.400 OA
HETATM   30  H   UNL     1     -32.063  39.929 -54.686  1.00  0.00     0.209 HD
ENDBRANCH  28  29
ENDBRANCH   4  28
TORSDOF 5
ENDMDL
MODEL 10
REMARK VINA RESULT:      -7.0     16.573     18.784
REMARK  5 active torsions:
REMARK  status: ('A' for Active; 'I' for Inactive)
REMARK    1  A    between atoms: C_4  and  C_5 
REMARK    2  A    between atoms: C_11  and  C_12 
REMARK    3  A    between atoms: C_12  and  N_13 
REMARK    4  A    between atoms: C_16  and  C_17 
REMARK    5  A    between atoms: C_17  and  O_18 
ROOT
HETATM    1  N   UNL     1     -35.883  41.082 -53.926  1.00  0.00    -0.066 N 
HETATM    2  H   UNL     1     -36.667  40.500 -54.262  1.00  0.00     0.280 HD
HETATM    3  C   UNL     1     -34.612  40.299 -54.053  1.00  0.00     0.250 C 
HETATM    4  C   UNL     1     -34.283  40.305 -55.554  1.00  0.00     0.036 C 
HETATM    5  C   UNL     1     -35.032  41.551 -56.119  1.00  0.00     0.061 C 
HETATM    6  C   UNL     1     -35.706  42.212 -54.907  1.00  0.00     0.245 C 
HETATM    7  C   UNL     1     -34.784  39.002 -56.196  1.00  0.00     0.189 C 
HETATM    8  O   UNL     1     -36.216  38.975 -56.231  1.00  0.00    -0.350 OA
HETATM    9  C   UNL     1     -36.642  39.908 -57.142  1.00  0.00     0.075 A 
HETATM   10  C   UNL     1     -36.062  41.181 -57.160  1.00  0.00    -0.018 A 
HETATM   11  C   UNL     1     -37.643  39.553 -58.038  1.00  0.00     0.037 A 
HETATM   12  C   UNL     1     -38.042  40.468 -59.010  1.00  0.00     0.003 A 
HETATM   13  C   UNL     1     -37.453  41.733 -59.064  1.00  0.00     0.001 A 
HETATM   14  C   UNL     1     -36.475  42.095 -58.136  1.00  0.00     0.010 A 
ENDROOT
BRANCH   1  15
HETATM   15  C   UNL     1     -36.181  41.503 -52.517  1.00  0.00     0.277 C 
BRANCH  15  16
HETATM   16  C   UNL     1     -36.866  40.460 -51.719  1.00  0.00     0.016 A 
HETATM   17  C   UNL     1     -36.318  39.655 -50.671  1.00  0.00     0.096 A 
HETATM   18  N   UNL     1     -37.258  38.859 -50.146  1.00  0.00    -0.172 NA
HETATM   19  N   UNL     1     -38.346  39.058 -50.899  1.00  0.00    -0.284 N 
HETATM   20  C   UNL     1     -39.534  38.270 -50.664  1.00  0.00     0.179 C 
HETATM   21  C   UNL     1     -38.178  40.037 -51.834  1.00  0.00     0.123 A 
BRANCH  17  22
HETATM   22  C   UNL     1     -34.956  39.641 -50.141  1.00  0.00    -0.005 A 
HETATM   23  C   UNL     1     -34.003  40.572 -50.576  1.00  0.00     0.014 A 
HETATM   24  C   UNL     1     -32.709  40.555 -50.051  1.00  0.00     0.001 A 
HETATM   25  C   UNL     1     -32.353  39.596 -49.104  1.00  0.00     0.000 A 
HETATM   26  C   UNL     1     -33.286  38.648 -48.686  1.00  0.00     0.001 A 
HETATM   27  C   UNL     1     -34.582  38.669 -49.204  1.00  0.00     0.014 A 
ENDBRANCH  17  22
ENDBRANCH  15  16
ENDBRANCH   1  15
BRANCH   4  28
HETATM   28  C   UNL     1     -32.769  40.410 -55.768  1.00  0.00     0.178 C 
BRANCH  28  29
HETATM   29  O   UNL     1     -32.160  40.871 -54.570  1.00  0.00    -0.400 OA
HETATM   30  H   UNL     1     -32.673  40.502 -53.822  1.00  0.00     0.209 HD
ENDBRANCH  28  29
ENDBRANCH   4  28
TORSDOF 5
ENDMDL
