MODEL 1
REMARK VINA RESULT:      -8.1      0.000      0.000
REMARK  9 active torsions:
REMARK  status: ('A' for Active; 'I' for Inactive)
REMARK    1  A    between atoms: C_6  and  S_7 
REMARK    2  A    between atoms: S_7  and  C_8 
REMARK    3  A    between atoms: C_8  and  C_9 
REMARK       I    between atoms: C_9  and  N_10 
REMARK    4  A    between atoms: N_10  and  N_11 
REMARK    5  A    between atoms: N_11  and  C_12 
REMARK    6  A    between atoms: C_12  and  N_13 
REMARK    7  A    between atoms: N_13  and  C_14 
REMARK    8  A    between atoms: C_17  and  O_18 
REMARK    9  A    between atoms: O_18  and  C_19 
ROOT
HETATM    1  C   UNL     1     -43.220  55.787 -55.527  1.00  0.00     0.245 C 
HETATM    2  N   UNL     1     -44.191  55.536 -54.564  1.00  0.00    -0.267 N 
HETATM    3  O   UNL     1     -43.171  56.809 -56.211  1.00  0.00    -0.271 OA
HETATM    4  H   UNL     1     -43.916  54.945 -53.780  1.00  0.00     0.190 HD
ENDROOT
BRANCH   2   5
HETATM    5  N   UNL     1     -45.060  56.584 -54.237  1.00  0.00    -0.274 N 
HETATM    6  H   UNL     1     -45.931  56.615 -54.754  1.00  0.00     0.189 HD
BRANCH   5   7
HETATM    7  C   UNL     1     -44.775  57.507 -53.264  1.00  0.00     0.191 C 
HETATM    8  S   UNL     1     -44.761  59.169 -53.485  1.00  0.00    -0.039 SA
BRANCH   7   9
HETATM    9  N   UNL     1     -44.593  57.038 -51.990  1.00  0.00    -0.332 N 
HETATM   10  H   UNL     1     -45.391  57.216 -51.390  1.00  0.00     0.168 HD
BRANCH   9  11
HETATM   11  C   UNL     1     -43.504  56.371 -51.398  1.00  0.00     0.034 A 
HETATM   12  C   UNL     1     -43.530  55.031 -51.013  1.00  0.00     0.032 A 
HETATM   13  C   UNL     1     -42.419  54.457 -50.385  1.00  0.00     0.039 A 
HETATM   14  C   UNL     1     -41.258  55.200 -50.163  1.00  0.00     0.075 A 
HETATM   15  C   UNL     1     -41.208  56.522 -50.603  1.00  0.00     0.039 A 
HETATM   16  C   UNL     1     -42.321  57.097 -51.230  1.00  0.00     0.032 A 
BRANCH  14  17
HETATM   17  O   UNL     1     -40.266  54.523 -49.513  1.00  0.00    -0.290 OA
BRANCH  17  18
HETATM   18  C   UNL     1     -40.573  54.004 -48.231  1.00  0.00     0.505 C 
HETATM   19  F   UNL     1     -40.762  52.664 -48.320  1.00  0.00    -0.184 F 
HETATM   20  F   UNL     1     -39.481  54.188 -47.448  1.00  0.00    -0.184 F 
ENDBRANCH  17  18
ENDBRANCH  14  17
ENDBRANCH   9  11
ENDBRANCH   7   9
ENDBRANCH   5   7
ENDBRANCH   2   5
BRANCH   1  21
HETATM   21  C   UNL     1     -42.198  54.668 -55.642  1.00  0.00     0.187 C 
BRANCH  21  22
HETATM   22  S   UNL     1     -40.689  55.066 -54.716  1.00  0.00    -0.083 SA
BRANCH  22  23
HETATM   23  C   UNL     1     -40.319  53.533 -54.022  1.00  0.00     0.168 A 
HETATM   24  N   UNL     1     -40.231  52.376 -54.632  1.00  0.00    -0.223 NA
HETATM   25  C   UNL     1     -39.994  51.473 -53.619  1.00  0.00     0.086 A 
HETATM   26  C   UNL     1     -39.932  52.110 -52.381  1.00  0.00     0.063 A 
HETATM   27  C   UNL     1     -39.832  50.081 -53.677  1.00  0.00     0.034 A 
HETATM   28  C   UNL     1     -39.716  51.436 -51.178  1.00  0.00     0.032 A 
HETATM   29  N   UNL     1     -40.130  53.434 -52.676  1.00  0.00    -0.333 N 
HETATM   30  C   UNL     1     -39.561  50.048 -51.258  1.00  0.00     0.002 A 
HETATM   31  C   UNL     1     -39.617  49.379 -52.483  1.00  0.00     0.002 A 
HETATM   32  H   UNL     1     -40.170  54.202 -52.022  1.00  0.00     0.168 HD
ENDBRANCH  22  23
ENDBRANCH  21  22
ENDBRANCH   1  21
TORSDOF 9
ENDMDL
MODEL 2
REMARK VINA RESULT:      -7.7      2.826      5.102
REMARK  9 active torsions:
REMARK  status: ('A' for Active; 'I' for Inactive)
REMARK    1  A    between atoms: C_6  and  S_7 
REMARK    2  A    between atoms: S_7  and  C_8 
REMARK    3  A    between atoms: C_8  and  C_9 
REMARK       I    between atoms: C_9  and  N_10 
REMARK    4  A    between atoms: N_10  and  N_11 
REMARK    5  A    between atoms: N_11  and  C_12 
REMARK    6  A    between atoms: C_12  and  N_13 
REMARK    7  A    between atoms: N_13  and  C_14 
REMARK    8  A    between atoms: C_17  and  O_18 
REMARK    9  A    between atoms: O_18  and  C_19 
ROOT
HETATM    1  C   UNL     1     -42.537  59.530 -54.417  1.00  0.00     0.245 C 
HETATM    2  N   UNL     1     -43.614  59.002 -55.119  1.00  0.00    -0.267 N 
HETATM    3  O   UNL     1     -41.378  59.538 -54.831  1.00  0.00    -0.271 OA
HETATM    4  H   UNL     1     -44.526  59.422 -54.942  1.00  0.00     0.190 HD
ENDROOT
BRANCH   2   5
HETATM    5  N   UNL     1     -43.390  58.613 -56.446  1.00  0.00    -0.274 N 
HETATM    6  H   UNL     1     -43.071  59.343 -57.073  1.00  0.00     0.189 HD
BRANCH   5   7
HETATM    7  C   UNL     1     -43.565  57.325 -56.880  1.00  0.00     0.191 C 
HETATM    8  S   UNL     1     -43.568  56.841 -58.486  1.00  0.00    -0.039 SA
BRANCH   7   9
HETATM    9  N   UNL     1     -43.634  56.346 -55.925  1.00  0.00    -0.332 N 
HETATM   10  H   UNL     1     -44.563  56.252 -55.528  1.00  0.00     0.168 HD
BRANCH   9  11
HETATM   11  C   UNL     1     -42.649  55.479 -55.418  1.00  0.00     0.034 A 
HETATM   12  C   UNL     1     -41.381  55.895 -55.014  1.00  0.00     0.032 A 
HETATM   13  C   UNL     1     -40.441  54.961 -54.568  1.00  0.00     0.039 A 
HETATM   14  C   UNL     1     -40.762  53.605 -54.486  1.00  0.00     0.075 A 
HETATM   15  C   UNL     1     -42.049  53.193 -54.831  1.00  0.00     0.039 A 
HETATM   16  C   UNL     1     -42.989  54.130 -55.280  1.00  0.00     0.032 A 
BRANCH  14  17
HETATM   17  O   UNL     1     -39.740  52.803 -54.064  1.00  0.00    -0.290 OA
BRANCH  17  18
HETATM   18  C   UNL     1     -40.069  51.467 -53.721  1.00  0.00     0.505 C 
HETATM   19  F   UNL     1     -39.485  50.619 -54.604  1.00  0.00    -0.184 F 
HETATM   20  F   UNL     1     -39.509  51.212 -52.512  1.00  0.00    -0.184 F 
ENDBRANCH  17  18
ENDBRANCH  14  17
ENDBRANCH   9  11
ENDBRANCH   7   9
ENDBRANCH   5   7
ENDBRANCH   2   5
BRANCH   1  21
HETATM   21  C   UNL     1     -42.939  60.122 -53.076  1.00  0.00     0.187 C 
BRANCH  21  22
HETATM   22  S   UNL     1     -44.289  59.173 -52.323  1.00  0.00    -0.083 SA
BRANCH  22  23
HETATM   23  C   UNL     1     -43.455  57.742 -51.847  1.00  0.00     0.168 A 
HETATM   24  N   UNL     1     -42.231  57.642 -51.387  1.00  0.00    -0.223 NA
HETATM   25  C   UNL     1     -42.033  56.286 -51.239  1.00  0.00     0.086 A 
HETATM   26  C   UNL     1     -43.167  55.568 -51.613  1.00  0.00     0.063 A 
HETATM   27  C   UNL     1     -40.898  55.589 -50.800  1.00  0.00     0.034 A 
HETATM   28  C   UNL     1     -43.241  54.175 -51.578  1.00  0.00     0.032 A 
HETATM   29  N   UNL     1     -44.067  56.533 -51.985  1.00  0.00    -0.333 N 
HETATM   30  C   UNL     1     -42.098  53.498 -51.141  1.00  0.00     0.002 A 
HETATM   31  C   UNL     1     -40.946  54.188 -50.758  1.00  0.00     0.002 A 
HETATM   32  H   UNL     1     -45.002  56.387 -52.335  1.00  0.00     0.168 HD
ENDBRANCH  22  23
ENDBRANCH  21  22
ENDBRANCH   1  21
TORSDOF 9
ENDMDL
MODEL 3
REMARK VINA RESULT:      -7.5      2.511      4.030
REMARK  9 active torsions:
REMARK  status: ('A' for Active; 'I' for Inactive)
REMARK    1  A    between atoms: C_6  and  S_7 
REMARK    2  A    between atoms: S_7  and  C_8 
REMARK    3  A    between atoms: C_8  and  C_9 
REMARK       I    between atoms: C_9  and  N_10 
REMARK    4  A    between atoms: N_10  and  N_11 
REMARK    5  A    between atoms: N_11  and  C_12 
REMARK    6  A    between atoms: C_12  and  N_13 
REMARK    7  A    between atoms: N_13  and  C_14 
REMARK    8  A    between atoms: C_17  and  O_18 
REMARK    9  A    between atoms: O_18  and  C_19 
ROOT
HETATM    1  C   UNL     1     -44.308  58.933 -53.602  1.00  0.00     0.245 C 
HETATM    2  N   UNL     1     -44.211  58.184 -52.435  1.00  0.00    -0.267 N 
HETATM    3  O   UNL     1     -43.719  59.998 -53.791  1.00  0.00    -0.271 OA
HETATM    4  H   UNL     1     -44.333  57.176 -52.528  1.00  0.00     0.190 HD
ENDROOT
BRANCH   2   5
HETATM    5  N   UNL     1     -43.254  58.579 -51.493  1.00  0.00    -0.274 N 
HETATM    6  H   UNL     1     -43.541  59.308 -50.850  1.00  0.00     0.189 HD
BRANCH   5   7
HETATM    7  C   UNL     1     -42.009  58.010 -51.417  1.00  0.00     0.191 C 
HETATM    8  S   UNL     1     -40.706  58.408 -52.394  1.00  0.00    -0.039 SA
BRANCH   7   9
HETATM    9  N   UNL     1     -41.786  57.126 -50.395  1.00  0.00    -0.332 N 
HETATM   10  H   UNL     1     -41.904  57.549 -49.480  1.00  0.00     0.168 HD
BRANCH   9  11
HETATM   11  C   UNL     1     -41.424  55.766 -50.412  1.00  0.00     0.034 A 
HETATM   12  C   UNL     1     -42.114  54.788 -51.127  1.00  0.00     0.032 A 
HETATM   13  C   UNL     1     -41.717  53.448 -51.052  1.00  0.00     0.039 A 
HETATM   14  C   UNL     1     -40.610  53.072 -50.290  1.00  0.00     0.075 A 
HETATM   15  C   UNL     1     -39.882  54.056 -49.622  1.00  0.00     0.039 A 
HETATM   16  C   UNL     1     -40.281  55.397 -49.697  1.00  0.00     0.032 A 
BRANCH  14  17
HETATM   17  O   UNL     1     -40.356  51.729 -50.280  1.00  0.00    -0.290 OA
BRANCH  17  18
HETATM   18  C   UNL     1     -39.738  51.182 -51.433  1.00  0.00     0.505 C 
HETATM   19  F   UNL     1     -38.782  52.034 -51.879  1.00  0.00    -0.184 F 
HETATM   20  F   UNL     1     -39.098  50.050 -51.048  1.00  0.00    -0.184 F 
ENDBRANCH  17  18
ENDBRANCH  14  17
ENDBRANCH   9  11
ENDBRANCH   7   9
ENDBRANCH   5   7
ENDBRANCH   2   5
BRANCH   1  21
HETATM   21  C   UNL     1     -45.209  58.292 -54.644  1.00  0.00     0.187 C 
BRANCH  21  22
HETATM   22  S   UNL     1     -44.294  57.947 -56.173  1.00  0.00    -0.083 SA
BRANCH  22  23
HETATM   23  C   UNL     1     -43.222  56.709 -55.637  1.00  0.00     0.168 A 
HETATM   24  N   UNL     1     -41.921  56.784 -55.483  1.00  0.00    -0.223 NA
HETATM   25  C   UNL     1     -41.547  55.510 -55.116  1.00  0.00     0.086 A 
HETATM   26  C   UNL     1     -42.651  54.663 -55.043  1.00  0.00     0.063 A 
HETATM   27  C   UNL     1     -40.273  54.994 -54.840  1.00  0.00     0.034 A 
HETATM   28  C   UNL     1     -42.563  53.311 -54.707  1.00  0.00     0.032 A 
HETATM   29  N   UNL     1     -43.712  55.466 -55.369  1.00  0.00    -0.333 N 
HETATM   30  C   UNL     1     -41.282  52.815 -54.439  1.00  0.00     0.002 A 
HETATM   31  C   UNL     1     -40.155  53.639 -54.502  1.00  0.00     0.002 A 
HETATM   32  H   UNL     1     -44.681  55.193 -55.439  1.00  0.00     0.168 HD
ENDBRANCH  22  23
ENDBRANCH  21  22
ENDBRANCH   1  21
TORSDOF 9
ENDMDL
MODEL 4
REMARK VINA RESULT:      -7.5      2.797      4.731
REMARK  9 active torsions:
REMARK  status: ('A' for Active; 'I' for Inactive)
REMARK    1  A    between atoms: C_6  and  S_7 
REMARK    2  A    between atoms: S_7  and  C_8 
REMARK    3  A    between atoms: C_8  and  C_9 
REMARK       I    between atoms: C_9  and  N_10 
REMARK    4  A    between atoms: N_10  and  N_11 
REMARK    5  A    between atoms: N_11  and  C_12 
REMARK    6  A    between atoms: C_12  and  N_13 
REMARK    7  A    between atoms: N_13  and  C_14 
REMARK    8  A    between atoms: C_17  and  O_18 
REMARK    9  A    between atoms: O_18  and  C_19 
ROOT
HETATM    1  C   UNL     1     -44.325  57.698 -53.806  1.00  0.00     0.245 C 
HETATM    2  N   UNL     1     -43.466  58.428 -54.619  1.00  0.00    -0.267 N 
HETATM    3  O   UNL     1     -45.192  56.932 -54.227  1.00  0.00    -0.271 OA
HETATM    4  H   UNL     1     -42.548  58.649 -54.233  1.00  0.00     0.190 HD
ENDROOT
BRANCH   2   5
HETATM    5  N   UNL     1     -43.477  58.141 -55.990  1.00  0.00    -0.274 N 
HETATM    6  H   UNL     1     -43.993  58.789 -56.573  1.00  0.00     0.189 HD
BRANCH   5   7
HETATM    7  C   UNL     1     -42.816  57.067 -56.527  1.00  0.00     0.191 C 
HETATM    8  S   UNL     1     -43.054  56.463 -58.073  1.00  0.00    -0.039 SA
BRANCH   7   9
HETATM    9  N   UNL     1     -41.809  56.515 -55.781  1.00  0.00    -0.332 N 
HETATM   10  H   UNL     1     -41.108  57.195 -55.506  1.00  0.00     0.168 HD
BRANCH   9  11
HETATM   11  C   UNL     1     -41.596  55.191 -55.353  1.00  0.00     0.034 A 
HETATM   12  C   UNL     1     -42.622  54.296 -55.056  1.00  0.00     0.032 A 
HETATM   13  C   UNL     1     -42.325  53.012 -54.589  1.00  0.00     0.039 A 
HETATM   14  C   UNL     1     -41.001  52.592 -54.443  1.00  0.00     0.075 A 
HETATM   15  C   UNL     1     -39.972  53.464 -54.797  1.00  0.00     0.039 A 
HETATM   16  C   UNL     1     -40.271  54.751 -55.263  1.00  0.00     0.032 A 
BRANCH  14  17
HETATM   17  O   UNL     1     -40.858  51.327 -53.948  1.00  0.00    -0.290 OA
BRANCH  17  18
HETATM   18  C   UNL     1     -39.536  50.875 -53.707  1.00  0.00     0.505 C 
HETATM   19  F   UNL     1     -39.445  50.402 -52.440  1.00  0.00    -0.184 F 
HETATM   20  F   UNL     1     -39.313  49.820 -54.531  1.00  0.00    -0.184 F 
ENDBRANCH  17  18
ENDBRANCH  14  17
ENDBRANCH   9  11
ENDBRANCH   7   9
ENDBRANCH   5   7
ENDBRANCH   2   5
BRANCH   1  21
HETATM   21  C   UNL     1     -44.074  57.925 -52.324  1.00  0.00     0.187 C 
BRANCH  21  22
HETATM   22  S   UNL     1     -42.344  58.380 -52.019  1.00  0.00    -0.083 SA
BRANCH  22  23
HETATM   23  C   UNL     1     -41.731  56.908 -51.367  1.00  0.00     0.168 A 
HETATM   24  N   UNL     1     -41.356  55.835 -52.021  1.00  0.00    -0.223 NA
HETATM   25  C   UNL     1     -41.029  54.931 -51.034  1.00  0.00     0.086 A 
HETATM   26  C   UNL     1     -41.205  55.483 -49.767  1.00  0.00     0.063 A 
HETATM   27  C   UNL     1     -40.582  53.606 -51.143  1.00  0.00     0.034 A 
HETATM   28  C   UNL     1     -40.962  54.786 -48.582  1.00  0.00     0.032 A 
HETATM   29  N   UNL     1     -41.643  56.758 -50.015  1.00  0.00    -0.333 N 
HETATM   30  C   UNL     1     -40.520  53.465 -48.714  1.00  0.00     0.002 A 
HETATM   31  C   UNL     1     -40.332  52.882 -49.969  1.00  0.00     0.002 A 
HETATM   32  H   UNL     1     -41.895  57.457 -49.333  1.00  0.00     0.168 HD
ENDBRANCH  22  23
ENDBRANCH  21  22
ENDBRANCH   1  21
TORSDOF 9
ENDMDL
MODEL 5
REMARK VINA RESULT:      -7.4      3.703      5.568
REMARK  9 active torsions:
REMARK  status: ('A' for Active; 'I' for Inactive)
REMARK    1  A    between atoms: C_6  and  S_7 
REMARK    2  A    between atoms: S_7  and  C_8 
REMARK    3  A    between atoms: C_8  and  C_9 
REMARK       I    between atoms: C_9  and  N_10 
REMARK    4  A    between atoms: N_10  and  N_11 
REMARK    5  A    between atoms: N_11  and  C_12 
REMARK    6  A    between atoms: C_12  and  N_13 
REMARK    7  A    between atoms: N_13  and  C_14 
REMARK    8  A    between atoms: C_17  and  O_18 
REMARK    9  A    between atoms: O_18  and  C_19 
ROOT
HETATM    1  C   UNL     1     -41.741  57.582 -50.659  1.00  0.00     0.245 C 
HETATM    2  N   UNL     1     -42.965  56.936 -50.784  1.00  0.00    -0.267 N 
HETATM    3  O   UNL     1     -41.590  58.801 -50.744  1.00  0.00    -0.271 OA
HETATM    4  H   UNL     1     -43.074  56.061 -50.272  1.00  0.00     0.190 HD
ENDROOT
BRANCH   2   5
HETATM    5  N   UNL     1     -44.114  57.736 -50.837  1.00  0.00    -0.274 N 
HETATM    6  H   UNL     1     -44.489  58.032 -49.944  1.00  0.00     0.189 HD
BRANCH   5   7
HETATM    7  C   UNL     1     -44.693  58.122 -52.018  1.00  0.00     0.191 C 
HETATM    8  S   UNL     1     -44.971  59.710 -52.483  1.00  0.00    -0.039 SA
BRANCH   7   9
HETATM    9  N   UNL     1     -44.966  57.140 -52.933  1.00  0.00    -0.332 N 
HETATM   10  H   UNL     1     -45.763  56.570 -52.669  1.00  0.00     0.168 HD
BRANCH   9  11
HETATM   11  C   UNL     1     -44.331  56.801 -54.142  1.00  0.00     0.034 A 
HETATM   12  C   UNL     1     -44.366  57.596 -55.287  1.00  0.00     0.032 A 
HETATM   13  C   UNL     1     -43.748  57.163 -56.465  1.00  0.00     0.039 A 
HETATM   14  C   UNL     1     -43.060  55.949 -56.509  1.00  0.00     0.075 A 
HETATM   15  C   UNL     1     -42.972  55.181 -55.349  1.00  0.00     0.039 A 
HETATM   16  C   UNL     1     -43.592  55.614 -54.170  1.00  0.00     0.032 A 
BRANCH  14  17
HETATM   17  O   UNL     1     -42.534  55.637 -57.730  1.00  0.00    -0.290 OA
BRANCH  17  18
HETATM   18  C   UNL     1     -43.426  55.628 -58.832  1.00  0.00     0.505 C 
HETATM   19  F   UNL     1     -42.715  55.636 -59.987  1.00  0.00    -0.184 F 
HETATM   20  F   UNL     1     -44.096  54.449 -58.799  1.00  0.00    -0.184 F 
ENDBRANCH  17  18
ENDBRANCH  14  17
ENDBRANCH   9  11
ENDBRANCH   7   9
ENDBRANCH   5   7
ENDBRANCH   2   5
BRANCH   1  21
HETATM   21  C   UNL     1     -40.592  56.626 -50.384  1.00  0.00     0.187 C 
BRANCH  21  22
HETATM   22  S   UNL     1     -41.196  55.071 -49.670  1.00  0.00    -0.083 SA
BRANCH  22  23
HETATM   23  C   UNL     1     -40.810  53.963 -50.932  1.00  0.00     0.168 A 
HETATM   24  N   UNL     1     -41.099  54.066 -52.207  1.00  0.00    -0.223 NA
HETATM   25  C   UNL     1     -40.640  52.889 -52.758  1.00  0.00     0.086 A 
HETATM   26  C   UNL     1     -40.059  52.074 -51.788  1.00  0.00     0.063 A 
HETATM   27  C   UNL     1     -40.695  52.438 -54.084  1.00  0.00     0.034 A 
HETATM   28  C   UNL     1     -39.522  50.815 -52.062  1.00  0.00     0.032 A 
HETATM   29  N   UNL     1     -40.172  52.798 -50.630  1.00  0.00    -0.333 N 
HETATM   30  C   UNL     1     -39.591  50.382 -53.391  1.00  0.00     0.002 A 
HETATM   31  C   UNL     1     -40.165  51.176 -54.386  1.00  0.00     0.002 A 
HETATM   32  H   UNL     1     -39.875  52.517 -49.708  1.00  0.00     0.168 HD
ENDBRANCH  22  23
ENDBRANCH  21  22
ENDBRANCH   1  21
TORSDOF 9
ENDMDL
MODEL 6
REMARK VINA RESULT:      -7.4      3.212      5.887
REMARK  9 active torsions:
REMARK  status: ('A' for Active; 'I' for Inactive)
REMARK    1  A    between atoms: C_6  and  S_7 
REMARK    2  A    between atoms: S_7  and  C_8 
REMARK    3  A    between atoms: C_8  and  C_9 
REMARK       I    between atoms: C_9  and  N_10 
REMARK    4  A    between atoms: N_10  and  N_11 
REMARK    5  A    between atoms: N_11  and  C_12 
REMARK    6  A    between atoms: C_12  and  N_13 
REMARK    7  A    between atoms: N_13  and  C_14 
REMARK    8  A    between atoms: C_17  and  O_18 
REMARK    9  A    between atoms: O_18  and  C_19 
ROOT
HETATM    1  C   UNL     1     -41.806  59.423 -51.529  1.00  0.00     0.245 C 
HETATM    2  N   UNL     1     -42.462  58.508 -50.714  1.00  0.00    -0.267 N 
HETATM    3  O   UNL     1     -40.585  59.465 -51.678  1.00  0.00    -0.271 OA
HETATM    4  H   UNL     1     -43.410  58.249 -50.988  1.00  0.00     0.190 HD
ENDROOT
BRANCH   2   5
HETATM    5  N   UNL     1     -41.700  57.468 -50.169  1.00  0.00    -0.274 N 
HETATM    6  H   UNL     1     -41.079  57.725 -49.411  1.00  0.00     0.189 HD
BRANCH   5   7
HETATM    7  C   UNL     1     -41.794  56.172 -50.607  1.00  0.00     0.191 C 
HETATM    8  S   UNL     1     -43.182  55.232 -50.548  1.00  0.00    -0.039 SA
BRANCH   7   9
HETATM    9  N   UNL     1     -40.699  55.644 -51.239  1.00  0.00    -0.332 N 
HETATM   10  H   UNL     1     -39.950  56.319 -51.353  1.00  0.00     0.168 HD
BRANCH   9  11
HETATM   11  C   UNL     1     -40.459  54.353 -51.745  1.00  0.00     0.034 A 
HETATM   12  C   UNL     1     -40.615  54.003 -53.085  1.00  0.00     0.032 A 
HETATM   13  C   UNL     1     -40.402  52.683 -53.498  1.00  0.00     0.039 A 
HETATM   14  C   UNL     1     -39.999  51.704 -52.588  1.00  0.00     0.075 A 
HETATM   15  C   UNL     1     -39.783  52.065 -51.258  1.00  0.00     0.039 A 
HETATM   16  C   UNL     1     -39.998  53.386 -50.845  1.00  0.00     0.032 A 
BRANCH  14  17
HETATM   17  O   UNL     1     -39.859  50.454 -53.122  1.00  0.00    -0.290 OA
BRANCH  17  18
HETATM   18  C   UNL     1     -40.059  50.325 -54.519  1.00  0.00     0.505 C 
HETATM   19  F   UNL     1     -39.167  49.434 -55.020  1.00  0.00    -0.184 F 
HETATM   20  F   UNL     1     -41.289  49.784 -54.702  1.00  0.00    -0.184 F 
ENDBRANCH  17  18
ENDBRANCH  14  17
ENDBRANCH   9  11
ENDBRANCH   7   9
ENDBRANCH   5   7
ENDBRANCH   2   5
BRANCH   1  21
HETATM   21  C   UNL     1     -42.757  60.368 -52.244  1.00  0.00     0.187 C 
BRANCH  21  22
HETATM   22  S   UNL     1     -44.351  59.565 -52.569  1.00  0.00    -0.083 SA
BRANCH  22  23
HETATM   23  C   UNL     1     -43.853  58.236 -53.545  1.00  0.00     0.168 A 
HETATM   24  N   UNL     1     -43.105  58.267 -54.622  1.00  0.00    -0.223 NA
HETATM   25  C   UNL     1     -43.077  56.959 -55.055  1.00  0.00     0.086 A 
HETATM   26  C   UNL     1     -43.816  56.133 -54.211  1.00  0.00     0.063 A 
HETATM   27  C   UNL     1     -42.446  56.398 -56.175  1.00  0.00     0.034 A 
HETATM   28  C   UNL     1     -43.972  54.761 -54.417  1.00  0.00     0.032 A 
HETATM   29  N   UNL     1     -44.290  56.981 -53.243  1.00  0.00    -0.333 N 
HETATM   30  C   UNL     1     -43.338  54.223 -55.542  1.00  0.00     0.002 A 
HETATM   31  C   UNL     1     -42.588  55.023 -56.407  1.00  0.00     0.002 A 
HETATM   32  H   UNL     1     -44.885  56.741 -52.465  1.00  0.00     0.168 HD
ENDBRANCH  22  23
ENDBRANCH  21  22
ENDBRANCH   1  21
TORSDOF 9
ENDMDL
MODEL 7
REMARK VINA RESULT:      -7.4      4.382      6.633
REMARK  9 active torsions:
REMARK  status: ('A' for Active; 'I' for Inactive)
REMARK    1  A    between atoms: C_6  and  S_7 
REMARK    2  A    between atoms: S_7  and  C_8 
REMARK    3  A    between atoms: C_8  and  C_9 
REMARK       I    between atoms: C_9  and  N_10 
REMARK    4  A    between atoms: N_10  and  N_11 
REMARK    5  A    between atoms: N_11  and  C_12 
REMARK    6  A    between atoms: C_12  and  N_13 
REMARK    7  A    between atoms: N_13  and  C_14 
REMARK    8  A    between atoms: C_17  and  O_18 
REMARK    9  A    between atoms: O_18  and  C_19 
ROOT
HETATM    1  C   UNL     1     -43.541  55.983 -51.481  1.00  0.00     0.245 C 
HETATM    2  N   UNL     1     -43.766  55.582 -52.793  1.00  0.00    -0.267 N 
HETATM    3  O   UNL     1     -43.894  57.068 -51.019  1.00  0.00    -0.271 OA
HETATM    4  H   UNL     1     -43.864  54.580 -52.954  1.00  0.00     0.190 HD
ENDROOT
BRANCH   2   5
HETATM    5  N   UNL     1     -44.595  56.391 -53.581  1.00  0.00    -0.274 N 
HETATM    6  H   UNL     1     -45.585  56.182 -53.540  1.00  0.00     0.189 HD
BRANCH   5   7
HETATM    7  C   UNL     1     -44.113  57.420 -54.348  1.00  0.00     0.191 C 
HETATM    8  S   UNL     1     -44.395  59.048 -54.064  1.00  0.00    -0.039 SA
BRANCH   7   9
HETATM    9  N   UNL     1     -43.248  57.095 -55.359  1.00  0.00    -0.332 N 
HETATM   10  H   UNL     1     -42.298  56.955 -55.031  1.00  0.00     0.168 HD
BRANCH   9  11
HETATM   11  C   UNL     1     -43.461  56.935 -56.741  1.00  0.00     0.034 A 
HETATM   12  C   UNL     1     -44.052  57.902 -57.553  1.00  0.00     0.032 A 
HETATM   13  C   UNL     1     -44.273  57.644 -58.910  1.00  0.00     0.039 A 
HETATM   14  C   UNL     1     -43.877  56.433 -59.482  1.00  0.00     0.075 A 
HETATM   15  C   UNL     1     -43.231  55.488 -58.686  1.00  0.00     0.039 A 
HETATM   16  C   UNL     1     -43.013  55.747 -57.326  1.00  0.00     0.032 A 
BRANCH  14  17
HETATM   17  O   UNL     1     -44.183  56.304 -60.807  1.00  0.00    -0.290 OA
BRANCH  17  18
HETATM   18  C   UNL     1     -45.290  55.482 -61.136  1.00  0.00     0.505 C 
HETATM   19  F   UNL     1     -44.854  54.228 -61.410  1.00  0.00    -0.184 F 
HETATM   20  F   UNL     1     -46.066  55.388 -60.027  1.00  0.00    -0.184 F 
ENDBRANCH  17  18
ENDBRANCH  14  17
ENDBRANCH   9  11
ENDBRANCH   7   9
ENDBRANCH   5   7
ENDBRANCH   2   5
BRANCH   1  21
HETATM   21  C   UNL     1     -42.822  54.930 -50.655  1.00  0.00     0.187 C 
BRANCH  21  22
HETATM   22  S   UNL     1     -41.022  55.130 -50.769  1.00  0.00    -0.083 SA
BRANCH  22  23
HETATM   23  C   UNL     1     -40.591  53.707 -51.640  1.00  0.00     0.168 A 
HETATM   24  N   UNL     1     -40.702  53.491 -52.929  1.00  0.00    -0.223 NA
HETATM   25  C   UNL     1     -40.295  52.185 -53.092  1.00  0.00     0.086 A 
HETATM   26  C   UNL     1     -39.927  51.617 -51.874  1.00  0.00     0.063 A 
HETATM   27  C   UNL     1     -40.225  51.406 -54.255  1.00  0.00     0.034 A 
HETATM   28  C   UNL     1     -39.488  50.298 -51.740  1.00  0.00     0.032 A 
HETATM   29  N   UNL     1     -40.115  52.625 -50.964  1.00  0.00    -0.333 N 
HETATM   30  C   UNL     1     -39.429  49.538 -52.912  1.00  0.00     0.002 A 
HETATM   31  C   UNL     1     -39.789  50.077 -54.149  1.00  0.00     0.002 A 
HETATM   32  H   UNL     1     -39.968  52.577 -49.967  1.00  0.00     0.168 HD
ENDBRANCH  22  23
ENDBRANCH  21  22
ENDBRANCH   1  21
TORSDOF 9
ENDMDL
MODEL 8
REMARK VINA RESULT:      -7.3      3.244      6.009
REMARK  9 active torsions:
REMARK  status: ('A' for Active; 'I' for Inactive)
REMARK    1  A    between atoms: C_6  and  S_7 
REMARK    2  A    between atoms: S_7  and  C_8 
REMARK    3  A    between atoms: C_8  and  C_9 
REMARK       I    between atoms: C_9  and  N_10 
REMARK    4  A    between atoms: N_10  and  N_11 
REMARK    5  A    between atoms: N_11  and  C_12 
REMARK    6  A    between atoms: C_12  and  N_13 
REMARK    7  A    between atoms: N_13  and  C_14 
REMARK    8  A    between atoms: C_17  and  O_18 
REMARK    9  A    between atoms: O_18  and  C_19 
ROOT
HETATM    1  C   UNL     1     -44.449  57.739 -55.503  1.00  0.00     0.245 C 
HETATM    2  N   UNL     1     -43.627  56.725 -55.026  1.00  0.00    -0.267 N 
HETATM    3  O   UNL     1     -45.551  58.017 -55.030  1.00  0.00    -0.271 OA
HETATM    4  H   UNL     1     -42.623  56.856 -55.147  1.00  0.00     0.190 HD
ENDROOT
BRANCH   2   5
HETATM    5  N   UNL     1     -44.002  56.101 -53.830  1.00  0.00    -0.274 N 
HETATM    6  H   UNL     1     -44.696  55.367 -53.912  1.00  0.00     0.189 HD
BRANCH   5   7
HETATM    7  C   UNL     1     -43.457  56.435 -52.617  1.00  0.00     0.191 C 
HETATM    8  S   UNL     1     -44.303  57.093 -51.328  1.00  0.00    -0.039 SA
BRANCH   7   9
HETATM    9  N   UNL     1     -42.144  56.105 -52.409  1.00  0.00    -0.332 N 
HETATM   10  H   UNL     1     -41.606  56.870 -52.016  1.00  0.00     0.168 HD
BRANCH   9  11
HETATM   11  C   UNL     1     -41.442  54.909 -52.652  1.00  0.00     0.034 A 
HETATM   12  C   UNL     1     -40.821  54.605 -53.863  1.00  0.00     0.032 A 
HETATM   13  C   UNL     1     -40.186  53.371 -54.039  1.00  0.00     0.039 A 
HETATM   14  C   UNL     1     -40.132  52.439 -53.001  1.00  0.00     0.075 A 
HETATM   15  C   UNL     1     -40.699  52.765 -51.769  1.00  0.00     0.039 A 
HETATM   16  C   UNL     1     -41.338  54.000 -51.595  1.00  0.00     0.032 A 
BRANCH  14  17
HETATM   17  O   UNL     1     -39.509  51.266 -53.322  1.00  0.00    -0.290 OA
BRANCH  17  18
HETATM   18  C   UNL     1     -39.920  50.625 -54.517  1.00  0.00     0.505 C 
HETATM   19  F   UNL     1     -39.362  49.390 -54.580  1.00  0.00    -0.184 F 
HETATM   20  F   UNL     1     -41.261  50.439 -54.436  1.00  0.00    -0.184 F 
ENDBRANCH  17  18
ENDBRANCH  14  17
ENDBRANCH   9  11
ENDBRANCH   7   9
ENDBRANCH   5   7
ENDBRANCH   2   5
BRANCH   1  21
HETATM   21  C   UNL     1     -43.839  58.495 -56.672  1.00  0.00     0.187 C 
BRANCH  21  22
HETATM   22  S   UNL     1     -43.470  60.212 -56.215  1.00  0.00    -0.083 SA
BRANCH  22  23
HETATM   23  C   UNL     1     -42.547  59.975 -54.779  1.00  0.00     0.168 A 
HETATM   24  N   UNL     1     -41.405  59.342 -54.655  1.00  0.00    -0.223 NA
HETATM   25  C   UNL     1     -41.143  59.375 -53.302  1.00  0.00     0.086 A 
HETATM   26  C   UNL     1     -42.147  60.050 -52.611  1.00  0.00     0.063 A 
HETATM   27  C   UNL     1     -40.066  58.835 -52.584  1.00  0.00     0.034 A 
HETATM   28  C   UNL     1     -42.146  60.223 -51.226  1.00  0.00     0.032 A 
HETATM   29  N   UNL     1     -43.026  60.435 -53.590  1.00  0.00    -0.333 N 
HETATM   30  C   UNL     1     -41.065  59.674 -50.528  1.00  0.00     0.002 A 
HETATM   31  C   UNL     1     -40.042  58.993 -51.191  1.00  0.00     0.002 A 
HETATM   32  H   UNL     1     -43.893  60.936 -53.464  1.00  0.00     0.168 HD
ENDBRANCH  22  23
ENDBRANCH  21  22
ENDBRANCH   1  21
TORSDOF 9
ENDMDL
MODEL 9
REMARK VINA RESULT:      -7.2      3.907      6.877
REMARK  9 active torsions:
REMARK  status: ('A' for Active; 'I' for Inactive)
REMARK    1  A    between atoms: C_6  and  S_7 
REMARK    2  A    between atoms: S_7  and  C_8 
REMARK    3  A    between atoms: C_8  and  C_9 
REMARK       I    between atoms: C_9  and  N_10 
REMARK    4  A    between atoms: N_10  and  N_11 
REMARK    5  A    between atoms: N_11  and  C_12 
REMARK    6  A    between atoms: C_12  and  N_13 
REMARK    7  A    between atoms: N_13  and  C_14 
REMARK    8  A    between atoms: C_17  and  O_18 
REMARK    9  A    between atoms: O_18  and  C_19 
ROOT
HETATM    1  C   UNL     1     -42.138  58.237 -55.095  1.00  0.00     0.245 C 
HETATM    2  N   UNL     1     -41.347  58.661 -54.034  1.00  0.00    -0.267 N 
HETATM    3  O   UNL     1     -42.125  57.095 -55.555  1.00  0.00    -0.271 OA
HETATM    4  H   UNL     1     -41.724  59.411 -53.454  1.00  0.00     0.190 HD
ENDROOT
BRANCH   2   5
HETATM    5  N   UNL     1     -40.623  57.684 -53.339  1.00  0.00    -0.274 N 
HETATM    6  H   UNL     1     -39.652  57.577 -53.609  1.00  0.00     0.189 HD
BRANCH   5   7
HETATM    7  C   UNL     1     -41.173  56.926 -52.338  1.00  0.00     0.191 C 
HETATM    8  S   UNL     1     -41.410  57.440 -50.759  1.00  0.00    -0.039 SA
BRANCH   7   9
HETATM    9  N   UNL     1     -41.663  55.695 -52.682  1.00  0.00    -0.332 N 
HETATM   10  H   UNL     1     -42.676  55.652 -52.642  1.00  0.00     0.168 HD
BRANCH   9  11
HETATM   11  C   UNL     1     -41.004  54.512 -53.066  1.00  0.00     0.034 A 
HETATM   12  C   UNL     1     -40.692  54.191 -54.386  1.00  0.00     0.032 A 
HETATM   13  C   UNL     1     -40.078  52.970 -54.688  1.00  0.00     0.039 A 
HETATM   14  C   UNL     1     -39.738  52.070 -53.677  1.00  0.00     0.075 A 
HETATM   15  C   UNL     1     -39.993  52.416 -52.350  1.00  0.00     0.039 A 
HETATM   16  C   UNL     1     -40.610  53.638 -52.049  1.00  0.00     0.032 A 
BRANCH  14  17
HETATM   17  O   UNL     1     -39.174  50.907 -54.117  1.00  0.00    -0.290 OA
BRANCH  17  18
HETATM   18  C   UNL     1     -39.995  49.751 -54.111  1.00  0.00     0.505 C 
HETATM   19  F   UNL     1     -40.133  49.303 -52.839  1.00  0.00    -0.184 F 
HETATM   20  F   UNL     1     -41.230  50.131 -54.523  1.00  0.00    -0.184 F 
ENDBRANCH  17  18
ENDBRANCH  14  17
ENDBRANCH   9  11
ENDBRANCH   7   9
ENDBRANCH   5   7
ENDBRANCH   2   5
BRANCH   1  21
HETATM   21  C   UNL     1     -43.047  59.331 -55.630  1.00  0.00     0.187 C 
BRANCH  21  22
HETATM   22  S   UNL     1     -42.574  59.803 -57.317  1.00  0.00    -0.083 SA
BRANCH  22  23
HETATM   23  C   UNL     1     -43.421  58.617 -58.236  1.00  0.00     0.168 A 
HETATM   24  N   UNL     1     -44.673  58.646 -58.626  1.00  0.00    -0.223 NA
HETATM   25  C   UNL     1     -44.864  57.434 -59.252  1.00  0.00     0.086 A 
HETATM   26  C   UNL     1     -43.697  56.672 -59.241  1.00  0.00     0.063 A 
HETATM   27  C   UNL     1     -46.017  56.903 -59.847  1.00  0.00     0.034 A 
HETATM   28  C   UNL     1     -43.606  55.394 -59.793  1.00  0.00     0.032 A 
HETATM   29  N   UNL     1     -42.785  57.466 -58.594  1.00  0.00    -0.333 N 
HETATM   30  C   UNL     1     -44.769  54.882 -60.378  1.00  0.00     0.002 A 
HETATM   31  C   UNL     1     -45.955  55.620 -60.407  1.00  0.00     0.002 A 
HETATM   32  H   UNL     1     -41.826  57.238 -58.381  1.00  0.00     0.168 HD
ENDBRANCH  22  23
ENDBRANCH  21  22
ENDBRANCH   1  21
TORSDOF 9
ENDMDL
MODEL 10
REMARK VINA RESULT:      -7.2      3.543      6.101
REMARK  9 active torsions:
REMARK  status: ('A' for Active; 'I' for Inactive)
REMARK    1  A    between atoms: C_6  and  S_7 
REMARK    2  A    between atoms: S_7  and  C_8 
REMARK    3  A    between atoms: C_8  and  C_9 
REMARK       I    between atoms: C_9  and  N_10 
REMARK    4  A    between atoms: N_10  and  N_11 
REMARK    5  A    between atoms: N_11  and  C_12 
REMARK    6  A    between atoms: C_12  and  N_13 
REMARK    7  A    between atoms: N_13  and  C_14 
REMARK    8  A    between atoms: C_17  and  O_18 
REMARK    9  A    between atoms: O_18  and  C_19 
ROOT
HETATM    1  C   UNL     1     -42.040  59.062 -58.883  1.00  0.00     0.245 C 
HETATM    2  N   UNL     1     -41.816  57.893 -58.167  1.00  0.00    -0.267 N 
HETATM    3  O   UNL     1     -42.388  59.095 -60.064  1.00  0.00    -0.271 OA
HETATM    4  H   UNL     1     -41.983  57.933 -57.162  1.00  0.00     0.190 HD
ENDROOT
BRANCH   2   5
HETATM    5  N   UNL     1     -42.175  56.684 -58.777  1.00  0.00    -0.274 N 
HETATM    6  H   UNL     1     -41.647  56.433 -59.605  1.00  0.00     0.189 HD
BRANCH   5   7
HETATM    7  C   UNL     1     -43.161  55.869 -58.284  1.00  0.00     0.191 C 
HETATM    8  S   UNL     1     -44.106  54.833 -59.205  1.00  0.00    -0.039 SA
BRANCH   7   9
HETATM    9  N   UNL     1     -43.310  55.820 -56.924  1.00  0.00    -0.332 N 
HETATM   10  H   UNL     1     -44.081  56.390 -56.594  1.00  0.00     0.168 HD
BRANCH   9  11
HETATM   11  C   UNL     1     -42.580  55.127 -55.940  1.00  0.00     0.034 A 
HETATM   12  C   UNL     1     -41.189  55.146 -55.846  1.00  0.00     0.032 A 
HETATM   13  C   UNL     1     -40.538  54.389 -54.866  1.00  0.00     0.039 A 
HETATM   14  C   UNL     1     -41.265  53.630 -53.947  1.00  0.00     0.075 A 
HETATM   15  C   UNL     1     -42.658  53.657 -54.000  1.00  0.00     0.039 A 
HETATM   16  C   UNL     1     -43.310  54.414 -54.983  1.00  0.00     0.032 A 
BRANCH  14  17
HETATM   17  O   UNL     1     -40.501  52.916 -53.068  1.00  0.00    -0.290 OA
BRANCH  17  18
HETATM   18  C   UNL     1     -40.149  51.596 -53.445  1.00  0.00     0.505 C 
HETATM   19  F   UNL     1     -40.899  51.216 -54.509  1.00  0.00    -0.184 F 
HETATM   20  F   UNL     1     -38.861  51.627 -53.871  1.00  0.00    -0.184 F 
ENDBRANCH  17  18
ENDBRANCH  14  17
ENDBRANCH   9  11
ENDBRANCH   7   9
ENDBRANCH   5   7
ENDBRANCH   2   5
BRANCH   1  21
HETATM   21  C   UNL     1     -41.830  60.316 -58.051  1.00  0.00     0.187 C 
BRANCH  21  22
HETATM   22  S   UNL     1     -43.240  60.609 -56.947  1.00  0.00    -0.083 SA
BRANCH  22  23
HETATM   23  C   UNL     1     -42.800  59.638 -55.593  1.00  0.00     0.168 A 
HETATM   24  N   UNL     1     -41.592  59.350 -55.170  1.00  0.00    -0.223 NA
HETATM   25  C   UNL     1     -41.797  58.486 -54.116  1.00  0.00     0.086 A 
HETATM   26  C   UNL     1     -43.156  58.265 -53.904  1.00  0.00     0.063 A 
HETATM   27  C   UNL     1     -40.865  57.837 -53.294  1.00  0.00     0.034 A 
HETATM   28  C   UNL     1     -43.653  57.421 -52.909  1.00  0.00     0.032 A 
HETATM   29  N   UNL     1     -43.774  59.030 -54.860  1.00  0.00    -0.333 N 
HETATM   30  C   UNL     1     -42.706  56.780 -52.103  1.00  0.00     0.002 A 
HETATM   31  C   UNL     1     -41.336  56.982 -52.288  1.00  0.00     0.002 A 
HETATM   32  H   UNL     1     -44.766  59.108 -55.026  1.00  0.00     0.168 HD
ENDBRANCH  22  23
ENDBRANCH  21  22
ENDBRANCH   1  21
TORSDOF 9
ENDMDL
