MODEL 1
REMARK VINA RESULT:      -8.1      0.000      0.000
REMARK  6 active torsions:
REMARK  status: ('A' for Active; 'I' for Inactive)
REMARK    1  A    between atoms: C_3  and  N_4 
REMARK    2  A    between atoms: N_4  and  C_5 
REMARK    3  A    between atoms: C_5  and  C_6 
REMARK    4  A    between atoms: N_8  and  C_10 
REMARK    5  A    between atoms: C_10  and  C_11 
REMARK    6  A    between atoms: C_16  and  O_17 
ROOT
HETATM    1  C   UNL     1     -42.719  56.112 -55.386  1.00  0.00     0.031 C 
HETATM    2  C   UNL     1     -41.898  54.858 -55.677  1.00  0.00     0.241 C 
HETATM    3  N   UNL     1     -41.918  54.084 -54.375  1.00  0.00    -0.067 N 
HETATM    4  H   UNL     1     -42.204  53.116 -54.588  1.00  0.00     0.280 HD
HETATM    5  C   UNL     1     -42.992  54.690 -53.493  1.00  0.00     0.235 C 
HETATM    6  C   UNL     1     -43.788  55.575 -54.437  1.00  0.00     0.035 C 
ENDROOT
BRANCH   3   7
HETATM    7  C   UNL     1     -40.565  53.955 -53.712  1.00  0.00     0.274 C 
BRANCH   7   8
HETATM    8  C   UNL     1     -40.228  52.549 -53.297  1.00  0.00    -0.013 A 
HETATM    9  C   UNL     1     -39.913  52.194 -51.974  1.00  0.00     0.019 A 
HETATM   10 BR   UNL     1     -39.864  53.485 -50.581  1.00  0.00    -0.051 Br
HETATM   11  C   UNL     1     -39.606  50.870 -51.642  1.00  0.00     0.022 A 
HETATM   12  C   UNL     1     -39.600  49.881 -52.626  1.00  0.00     0.038 A 
HETATM   13  C   UNL     1     -39.901  50.228 -53.934  1.00  0.00     0.066 A 
HETATM   14  C   UNL     1     -40.216  51.540 -54.275  1.00  0.00     0.046 A 
BRANCH  13  15
HETATM   15  O   UNL     1     -39.900  49.311 -54.939  1.00  0.00    -0.361 OA
HETATM   16  H   UNL     1     -40.647  49.485 -55.541  1.00  0.00     0.217 HD
ENDBRANCH  13  15
ENDBRANCH   7   8
ENDBRANCH   3   7
BRANCH   1  17
HETATM   17  C   UNL     1     -43.277  56.768 -56.654  1.00  0.00     0.127 C 
BRANCH  17  18
HETATM   18  N   UNL     1     -43.084  55.888 -57.811  1.00  0.00    -0.376 N 
HETATM   19  H   UNL     1     -42.599  55.018 -57.611  1.00  0.00     0.161 HD
BRANCH  18  20
HETATM   20  C   UNL     1     -44.023  55.849 -58.831  1.00  0.00     0.100 A 
HETATM   21  C   UNL     1     -43.974  54.972 -59.924  1.00  0.00     0.048 A 
HETATM   22  C   UNL     1     -44.980  54.991 -60.891  1.00  0.00     0.005 A 
HETATM   23  C   UNL     1     -46.042  55.873 -60.759  1.00  0.00     0.017 A 
HETATM   24  C   UNL     1     -46.075  56.710 -59.658  1.00  0.00     0.089 A 
HETATM   25  N   UNL     1     -45.089  56.667 -58.746  1.00  0.00    -0.353 N 
HETATM   26  H   UNL     1     -45.162  57.278 -57.939  1.00  0.00     0.166 HD
ENDBRANCH  18  20
ENDBRANCH  17  18
ENDBRANCH   1  17
TORSDOF 6
ENDMDL
MODEL 2
REMARK VINA RESULT:      -7.3      2.750      3.361
REMARK  6 active torsions:
REMARK  status: ('A' for Active; 'I' for Inactive)
REMARK    1  A    between atoms: C_3  and  N_4 
REMARK    2  A    between atoms: N_4  and  C_5 
REMARK    3  A    between atoms: C_5  and  C_6 
REMARK    4  A    between atoms: N_8  and  C_10 
REMARK    5  A    between atoms: C_10  and  C_11 
REMARK    6  A    between atoms: C_16  and  O_17 
ROOT
HETATM    1  C   UNL     1     -42.175  56.357 -55.043  1.00  0.00     0.031 C 
HETATM    2  C   UNL     1     -43.487  55.959 -54.370  1.00  0.00     0.241 C 
HETATM    3  N   UNL     1     -43.174  55.987 -52.889  1.00  0.00    -0.067 N 
HETATM    4  H   UNL     1     -43.901  56.552 -52.423  1.00  0.00     0.280 HD
HETATM    5  C   UNL     1     -41.853  56.709 -52.708  1.00  0.00     0.235 C 
HETATM    6  C   UNL     1     -41.609  57.372 -54.054  1.00  0.00     0.035 C 
ENDROOT
BRANCH   3   7
HETATM    7  C   UNL     1     -43.242  54.633 -52.216  1.00  0.00     0.274 C 
BRANCH   7   8
HETATM    8  C   UNL     1     -42.034  54.313 -51.381  1.00  0.00    -0.013 A 
HETATM    9  C   UNL     1     -40.915  53.626 -51.881  1.00  0.00     0.019 A 
HETATM   10 BR   UNL     1     -40.843  53.015 -53.678  1.00  0.00    -0.051 Br
HETATM   11  C   UNL     1     -39.816  53.353 -51.059  1.00  0.00     0.022 A 
HETATM   12  C   UNL     1     -39.821  53.754 -49.722  1.00  0.00     0.038 A 
HETATM   13  C   UNL     1     -40.926  54.425 -49.221  1.00  0.00     0.066 A 
HETATM   14  C   UNL     1     -42.021  54.708 -50.032  1.00  0.00     0.046 A 
BRANCH  13  15
HETATM   15  O   UNL     1     -40.994  54.830 -47.925  1.00  0.00    -0.361 OA
HETATM   16  H   UNL     1     -41.165  55.789 -47.891  1.00  0.00     0.217 HD
ENDBRANCH  13  15
ENDBRANCH   7   8
ENDBRANCH   3   7
BRANCH   1  17
HETATM   17  C   UNL     1     -42.374  56.905 -56.461  1.00  0.00     0.127 C 
BRANCH  17  18
HETATM   18  N   UNL     1     -42.589  55.806 -57.407  1.00  0.00    -0.376 N 
HETATM   19  H   UNL     1     -42.375  54.881 -57.045  1.00  0.00     0.161 HD
BRANCH  18  20
HETATM   20  C   UNL     1     -43.600  55.878 -58.354  1.00  0.00     0.100 A 
HETATM   21  C   UNL     1     -43.795  54.947 -59.383  1.00  0.00     0.048 A 
HETATM   22  C   UNL     1     -44.858  55.090 -60.275  1.00  0.00     0.005 A 
HETATM   23  C   UNL     1     -45.735  56.154 -60.131  1.00  0.00     0.017 A 
HETATM   24  C   UNL     1     -45.533  57.044 -59.091  1.00  0.00     0.089 A 
HETATM   25  N   UNL     1     -44.498  56.876 -58.251  1.00  0.00    -0.353 N 
HETATM   26  H   UNL     1     -44.397  57.535 -57.486  1.00  0.00     0.166 HD
ENDBRANCH  18  20
ENDBRANCH  17  18
ENDBRANCH   1  17
TORSDOF 6
ENDMDL
MODEL 3
REMARK VINA RESULT:      -7.3      3.418      8.094
REMARK  6 active torsions:
REMARK  status: ('A' for Active; 'I' for Inactive)
REMARK    1  A    between atoms: C_3  and  N_4 
REMARK    2  A    between atoms: N_4  and  C_5 
REMARK    3  A    between atoms: C_5  and  C_6 
REMARK    4  A    between atoms: N_8  and  C_10 
REMARK    5  A    between atoms: C_10  and  C_11 
REMARK    6  A    between atoms: C_16  and  O_17 
ROOT
HETATM    1  C   UNL     1     -42.294  55.444 -53.361  1.00  0.00     0.031 C 
HETATM    2  C   UNL     1     -42.634  55.143 -54.819  1.00  0.00     0.241 C 
HETATM    3  N   UNL     1     -42.466  56.471 -55.527  1.00  0.00    -0.067 N 
HETATM    4  H   UNL     1     -41.863  56.316 -56.349  1.00  0.00     0.280 HD
HETATM    5  C   UNL     1     -41.724  57.404 -54.590  1.00  0.00     0.235 C 
HETATM    6  C   UNL     1     -41.188  56.486 -53.503  1.00  0.00     0.035 C 
ENDROOT
BRANCH   3   7
HETATM    7  C   UNL     1     -43.751  57.041 -56.086  1.00  0.00     0.274 C 
BRANCH   7   8
HETATM    8  C   UNL     1     -43.756  57.161 -57.585  1.00  0.00    -0.013 A 
HETATM    9  C   UNL     1     -44.835  57.697 -58.308  1.00  0.00     0.019 A 
HETATM   10 BR   UNL     1     -46.412  58.303 -57.441  1.00  0.00    -0.051 Br
HETATM   11  C   UNL     1     -44.788  57.785 -59.704  1.00  0.00     0.022 A 
HETATM   12  C   UNL     1     -43.667  57.332 -60.400  1.00  0.00     0.038 A 
HETATM   13  C   UNL     1     -42.603  56.795 -59.692  1.00  0.00     0.066 A 
HETATM   14  C   UNL     1     -42.635  56.709 -58.303  1.00  0.00     0.046 A 
BRANCH  13  15
HETATM   15  O   UNL     1     -41.488  56.326 -60.315  1.00  0.00    -0.361 OA
HETATM   16  H   UNL     1     -41.746  55.822 -61.109  1.00  0.00     0.217 HD
ENDBRANCH  13  15
ENDBRANCH   7   8
ENDBRANCH   3   7
BRANCH   1  17
HETATM   17  C   UNL     1     -41.883  54.195 -52.574  1.00  0.00     0.127 C 
BRANCH  17  18
HETATM   18  N   UNL     1     -40.554  53.741 -52.996  1.00  0.00    -0.376 N 
HETATM   19  H   UNL     1     -39.785  54.336 -52.701  1.00  0.00     0.161 HD
BRANCH  18  20
HETATM   20  C   UNL     1     -40.275  52.387 -53.113  1.00  0.00     0.100 A 
HETATM   21  C   UNL     1     -40.420  51.645 -54.293  1.00  0.00     0.048 A 
HETATM   22  C   UNL     1     -40.090  50.289 -54.320  1.00  0.00     0.005 A 
HETATM   23  C   UNL     1     -39.602  49.679 -53.174  1.00  0.00     0.017 A 
HETATM   24  C   UNL     1     -39.448  50.443 -52.031  1.00  0.00     0.089 A 
HETATM   25  N   UNL     1     -39.776  51.745 -52.040  1.00  0.00    -0.353 N 
HETATM   26  H   UNL     1     -39.624  52.278 -51.190  1.00  0.00     0.166 HD
ENDBRANCH  18  20
ENDBRANCH  17  18
ENDBRANCH   1  17
TORSDOF 6
ENDMDL
MODEL 4
REMARK VINA RESULT:      -7.2      2.774      3.450
REMARK  6 active torsions:
REMARK  status: ('A' for Active; 'I' for Inactive)
REMARK    1  A    between atoms: C_3  and  N_4 
REMARK    2  A    between atoms: N_4  and  C_5 
REMARK    3  A    between atoms: C_5  and  C_6 
REMARK    4  A    between atoms: N_8  and  C_10 
REMARK    5  A    between atoms: C_10  and  C_11 
REMARK    6  A    between atoms: C_16  and  O_17 
ROOT
HETATM    1  C   UNL     1     -43.137  56.343 -51.866  1.00  0.00     0.031 C 
HETATM    2  C   UNL     1     -42.667  55.129 -52.663  1.00  0.00     0.241 C 
HETATM    3  N   UNL     1     -42.061  54.208 -51.624  1.00  0.00    -0.067 N 
HETATM    4  H   UNL     1     -42.477  53.273 -51.750  1.00  0.00     0.280 HD
HETATM    5  C   UNL     1     -42.484  54.711 -50.257  1.00  0.00     0.235 C 
HETATM    6  C   UNL     1     -43.595  55.704 -50.558  1.00  0.00     0.035 C 
ENDROOT
BRANCH   3   7
HETATM    7  C   UNL     1     -40.571  53.997 -51.777  1.00  0.00     0.274 C 
BRANCH   7   8
HETATM    8  C   UNL     1     -40.204  52.630 -52.284  1.00  0.00    -0.013 A 
HETATM    9  C   UNL     1     -40.111  52.319 -53.652  1.00  0.00     0.019 A 
HETATM   10 BR   UNL     1     -40.468  53.613 -54.994  1.00  0.00    -0.051 Br
HETATM   11  C   UNL     1     -39.765  51.029 -54.070  1.00  0.00     0.022 A 
HETATM   12  C   UNL     1     -39.516  50.028 -53.131  1.00  0.00     0.038 A 
HETATM   13  C   UNL     1     -39.615  50.327 -51.781  1.00  0.00     0.066 A 
HETATM   14  C   UNL     1     -39.950  51.609 -51.353  1.00  0.00     0.046 A 
BRANCH  13  15
HETATM   15  O   UNL     1     -39.396  49.391 -50.819  1.00  0.00    -0.361 OA
HETATM   16  H   UNL     1     -38.512  48.999 -50.941  1.00  0.00     0.217 HD
ENDBRANCH  13  15
ENDBRANCH   7   8
ENDBRANCH   3   7
BRANCH   1  17
HETATM   17  C   UNL     1     -44.226  57.145 -52.588  1.00  0.00     0.127 C 
BRANCH  17  18
HETATM   18  N   UNL     1     -44.634  56.459 -53.819  1.00  0.00    -0.376 N 
HETATM   19  H   UNL     1     -45.359  55.759 -53.698  1.00  0.00     0.161 HD
BRANCH  18  20
HETATM   20  C   UNL     1     -44.616  57.124 -55.036  1.00  0.00     0.100 A 
HETATM   21  C   UNL     1     -43.506  57.193 -55.888  1.00  0.00     0.048 A 
HETATM   22  C   UNL     1     -43.591  57.866 -57.107  1.00  0.00     0.005 A 
HETATM   23  C   UNL     1     -44.789  58.457 -57.482  1.00  0.00     0.017 A 
HETATM   24  C   UNL     1     -45.874  58.352 -56.631  1.00  0.00     0.089 A 
HETATM   25  N   UNL     1     -45.756  57.698 -55.464  1.00  0.00    -0.353 N 
HETATM   26  H   UNL     1     -46.582  57.620 -54.878  1.00  0.00     0.166 HD
ENDBRANCH  18  20
ENDBRANCH  17  18
ENDBRANCH   1  17
TORSDOF 6
ENDMDL
MODEL 5
REMARK VINA RESULT:      -7.2      3.229      8.266
REMARK  6 active torsions:
REMARK  status: ('A' for Active; 'I' for Inactive)
REMARK    1  A    between atoms: C_3  and  N_4 
REMARK    2  A    between atoms: N_4  and  C_5 
REMARK    3  A    between atoms: C_5  and  C_6 
REMARK    4  A    between atoms: N_8  and  C_10 
REMARK    5  A    between atoms: C_10  and  C_11 
REMARK    6  A    between atoms: C_16  and  O_17 
ROOT
HETATM    1  C   UNL     1     -41.393  54.907 -55.483  1.00  0.00     0.031 C 
HETATM    2  C   UNL     1     -41.852  56.343 -55.727  1.00  0.00     0.241 C 
HETATM    3  N   UNL     1     -43.071  56.203 -56.614  1.00  0.00    -0.067 N 
HETATM    4  H   UNL     1     -43.834  56.756 -56.193  1.00  0.00     0.280 HD
HETATM    5  C   UNL     1     -43.498  54.748 -56.588  1.00  0.00     0.235 C 
HETATM    6  C   UNL     1     -42.721  54.157 -55.423  1.00  0.00     0.035 C 
ENDROOT
BRANCH   3   7
HETATM    7  C   UNL     1     -42.895  56.776 -58.003  1.00  0.00     0.274 C 
BRANCH   7   8
HETATM    8  C   UNL     1     -44.076  56.549 -58.905  1.00  0.00    -0.013 A 
HETATM    9  C   UNL     1     -45.302  57.219 -58.746  1.00  0.00     0.019 A 
HETATM   10 BR   UNL     1     -45.580  58.468 -57.343  1.00  0.00    -0.051 Br
HETATM   11  C   UNL     1     -46.371  56.970 -59.614  1.00  0.00     0.022 A 
HETATM   12  C   UNL     1     -46.237  56.043 -60.648  1.00  0.00     0.038 A 
HETATM   13  C   UNL     1     -45.032  55.374 -60.804  1.00  0.00     0.066 A 
HETATM   14  C   UNL     1     -43.960  55.619 -59.952  1.00  0.00     0.046 A 
BRANCH  13  15
HETATM   15  O   UNL     1     -44.845  54.452 -61.786  1.00  0.00    -0.361 OA
HETATM   16  H   UNL     1     -44.358  54.858 -62.527  1.00  0.00     0.217 HD
ENDBRANCH  13  15
ENDBRANCH   7   8
ENDBRANCH   3   7
BRANCH   1  17
HETATM   17  C   UNL     1     -40.533  54.762 -54.223  1.00  0.00     0.127 C 
BRANCH  17  18
HETATM   18  N   UNL     1     -41.125  53.779 -53.310  1.00  0.00    -0.376 N 
HETATM   19  H   UNL     1     -42.131  53.856 -53.193  1.00  0.00     0.161 HD
BRANCH  18  20
HETATM   20  C   UNL     1     -40.588  52.505 -53.200  1.00  0.00     0.100 A 
HETATM   21  C   UNL     1     -40.525  51.575 -54.247  1.00  0.00     0.048 A 
HETATM   22  C   UNL     1     -39.942  50.323 -54.046  1.00  0.00     0.005 A 
HETATM   23  C   UNL     1     -39.408  50.006 -52.806  1.00  0.00     0.017 A 
HETATM   24  C   UNL     1     -39.463  50.953 -51.799  1.00  0.00     0.089 A 
HETATM   25  N   UNL     1     -40.033  52.148 -52.026  1.00  0.00    -0.353 N 
HETATM   26  H   UNL     1     -40.031  52.825 -51.271  1.00  0.00     0.166 HD
ENDBRANCH  18  20
ENDBRANCH  17  18
ENDBRANCH   1  17
TORSDOF 6
ENDMDL
MODEL 6
REMARK VINA RESULT:      -7.0      3.155      3.944
REMARK  6 active torsions:
REMARK  status: ('A' for Active; 'I' for Inactive)
REMARK    1  A    between atoms: C_3  and  N_4 
REMARK    2  A    between atoms: N_4  and  C_5 
REMARK    3  A    between atoms: C_5  and  C_6 
REMARK    4  A    between atoms: N_8  and  C_10 
REMARK    5  A    between atoms: C_10  and  C_11 
REMARK    6  A    between atoms: C_16  and  O_17 
ROOT
HETATM    1  C   UNL     1     -43.726  57.866 -54.145  1.00  0.00     0.031 C 
HETATM    2  C   UNL     1     -43.016  56.521 -54.003  1.00  0.00     0.241 C 
HETATM    3  N   UNL     1     -42.838  56.345 -52.510  1.00  0.00    -0.067 N 
HETATM    4  H   UNL     1     -43.192  55.410 -52.258  1.00  0.00     0.280 HD
HETATM    5  C   UNL     1     -43.717  57.367 -51.815  1.00  0.00     0.235 C 
HETATM    6  C   UNL     1     -44.632  57.875 -52.917  1.00  0.00     0.035 C 
ENDROOT
BRANCH   3   7
HETATM    7  C   UNL     1     -41.395  56.351 -52.054  1.00  0.00     0.274 C 
BRANCH   7   8
HETATM    8  C   UNL     1     -41.047  55.213 -51.136  1.00  0.00    -0.013 A 
HETATM    9  C   UNL     1     -40.699  53.932 -51.600  1.00  0.00     0.019 A 
HETATM   10 BR   UNL     1     -40.660  53.521 -53.453  1.00  0.00    -0.051 Br
HETATM   11  C   UNL     1     -40.384  52.907 -50.701  1.00  0.00     0.022 A 
HETATM   12  C   UNL     1     -40.419  53.141 -49.326  1.00  0.00     0.038 A 
HETATM   13  C   UNL     1     -40.770  54.400 -48.863  1.00  0.00     0.066 A 
HETATM   14  C   UNL     1     -41.078  55.429 -49.748  1.00  0.00     0.046 A 
BRANCH  13  15
HETATM   15  O   UNL     1     -40.835  54.685 -47.535  1.00  0.00    -0.361 OA
HETATM   16  H   UNL     1     -41.647  54.301 -47.157  1.00  0.00     0.217 HD
ENDBRANCH  13  15
ENDBRANCH   7   8
ENDBRANCH   3   7
BRANCH   1  17
HETATM   17  C   UNL     1     -44.471  58.009 -55.477  1.00  0.00     0.127 C 
BRANCH  17  18
HETATM   18  N   UNL     1     -44.277  56.813 -56.302  1.00  0.00    -0.376 N 
HETATM   19  H   UNL     1     -45.027  56.131 -56.250  1.00  0.00     0.161 HD
BRANCH  18  20
HETATM   20  C   UNL     1     -43.599  56.892 -57.510  1.00  0.00     0.100 A 
HETATM   21  C   UNL     1     -42.734  57.934 -57.871  1.00  0.00     0.048 A 
HETATM   22  C   UNL     1     -42.077  57.913 -59.101  1.00  0.00     0.005 A 
HETATM   23  C   UNL     1     -42.271  56.845 -59.965  1.00  0.00     0.017 A 
HETATM   24  C   UNL     1     -43.112  55.820 -59.572  1.00  0.00     0.089 A 
HETATM   25  N   UNL     1     -43.730  55.872 -58.380  1.00  0.00    -0.353 N 
HETATM   26  H   UNL     1     -44.319  55.089 -58.116  1.00  0.00     0.166 HD
ENDBRANCH  18  20
ENDBRANCH  17  18
ENDBRANCH   1  17
TORSDOF 6
ENDMDL
MODEL 7
REMARK VINA RESULT:      -7.0      5.637      8.616
REMARK  6 active torsions:
REMARK  status: ('A' for Active; 'I' for Inactive)
REMARK    1  A    between atoms: C_3  and  N_4 
REMARK    2  A    between atoms: N_4  and  C_5 
REMARK    3  A    between atoms: C_5  and  C_6 
REMARK    4  A    between atoms: N_8  and  C_10 
REMARK    5  A    between atoms: C_10  and  C_11 
REMARK    6  A    between atoms: C_16  and  O_17 
ROOT
HETATM    1  C   UNL     1     -41.485  54.430 -51.388  1.00  0.00     0.031 C 
HETATM    2  C   UNL     1     -41.848  55.733 -50.680  1.00  0.00     0.241 C 
HETATM    3  N   UNL     1     -43.002  56.291 -51.485  1.00  0.00    -0.067 N 
HETATM    4  H   UNL     1     -43.764  56.521 -50.829  1.00  0.00     0.280 HD
HETATM    5  C   UNL     1     -43.507  55.189 -52.397  1.00  0.00     0.235 C 
HETATM    6  C   UNL     1     -42.852  53.931 -51.850  1.00  0.00     0.035 C 
ENDROOT
BRANCH   3   7
HETATM    7  C   UNL     1     -42.691  57.592 -52.193  1.00  0.00     0.274 C 
BRANCH   7   8
HETATM    8  C   UNL     1     -43.065  58.814 -51.401  1.00  0.00    -0.013 A 
HETATM    9  C   UNL     1     -42.115  59.668 -50.814  1.00  0.00     0.019 A 
HETATM   10 BR   UNL     1     -40.251  59.332 -50.956  1.00  0.00    -0.051 Br
HETATM   11  C   UNL     1     -42.517  60.793 -50.086  1.00  0.00     0.022 A 
HETATM   12  C   UNL     1     -43.873  61.079 -49.925  1.00  0.00     0.038 A 
HETATM   13  C   UNL     1     -44.814  60.235 -50.494  1.00  0.00     0.066 A 
HETATM   14  C   UNL     1     -44.426  59.118 -51.227  1.00  0.00     0.046 A 
BRANCH  13  15
HETATM   15  O   UNL     1     -46.150  60.455 -50.361  1.00  0.00    -0.361 OA
HETATM   16  H   UNL     1     -46.444  61.095 -51.034  1.00  0.00     0.217 HD
ENDBRANCH  13  15
ENDBRANCH   7   8
ENDBRANCH   3   7
BRANCH   1  17
HETATM   17  C   UNL     1     -40.731  53.449 -50.484  1.00  0.00     0.127 C 
BRANCH  17  18
HETATM   18  N   UNL     1     -39.562  52.906 -51.183  1.00  0.00    -0.376 N 
HETATM   19  H   UNL     1     -38.708  52.884 -50.634  1.00  0.00     0.161 HD
BRANCH  18  20
HETATM   20  C   UNL     1     -39.709  51.906 -52.133  1.00  0.00     0.100 A 
HETATM   21  C   UNL     1     -39.987  52.132 -53.488  1.00  0.00     0.048 A 
HETATM   22  C   UNL     1     -40.094  51.060 -54.376  1.00  0.00     0.005 A 
HETATM   23  C   UNL     1     -39.908  49.766 -53.914  1.00  0.00     0.017 A 
HETATM   24  C   UNL     1     -39.611  49.576 -52.576  1.00  0.00     0.089 A 
HETATM   25  N   UNL     1     -39.517  50.630 -51.749  1.00  0.00    -0.353 N 
HETATM   26  H   UNL     1     -39.273  50.452 -50.780  1.00  0.00     0.166 HD
ENDBRANCH  18  20
ENDBRANCH  17  18
ENDBRANCH   1  17
TORSDOF 6
ENDMDL
MODEL 8
REMARK VINA RESULT:      -6.9      1.625      2.207
REMARK  6 active torsions:
REMARK  status: ('A' for Active; 'I' for Inactive)
REMARK    1  A    between atoms: C_3  and  N_4 
REMARK    2  A    between atoms: N_4  and  C_5 
REMARK    3  A    between atoms: C_5  and  C_6 
REMARK    4  A    between atoms: N_8  and  C_10 
REMARK    5  A    between atoms: C_10  and  C_11 
REMARK    6  A    between atoms: C_16  and  O_17 
ROOT
HETATM    1  C   UNL     1     -42.542  56.372 -55.037  1.00  0.00     0.031 C 
HETATM    2  C   UNL     1     -43.679  56.208 -54.031  1.00  0.00     0.241 C 
HETATM    3  N   UNL     1     -42.984  56.107 -52.690  1.00  0.00    -0.067 N 
HETATM    4  H   UNL     1     -43.432  56.782 -52.051  1.00  0.00     0.280 HD
HETATM    5  C   UNL     1     -41.545  56.549 -52.879  1.00  0.00     0.235 C 
HETATM    6  C   UNL     1     -41.541  57.212 -54.247  1.00  0.00     0.035 C 
ENDROOT
BRANCH   3   7
HETATM    7  C   UNL     1     -43.140  54.764 -52.011  1.00  0.00     0.274 C 
BRANCH   7   8
HETATM    8  C   UNL     1     -41.899  53.916 -52.059  1.00  0.00    -0.013 A 
HETATM    9  C   UNL     1     -41.020  53.781 -50.971  1.00  0.00     0.019 A 
HETATM   10 BR   UNL     1     -41.317  54.693 -49.332  1.00  0.00    -0.051 Br
HETATM   11  C   UNL     1     -39.877  52.979 -51.069  1.00  0.00     0.022 A 
HETATM   12  C   UNL     1     -39.591  52.304 -52.256  1.00  0.00     0.038 A 
HETATM   13  C   UNL     1     -40.451  52.440 -53.335  1.00  0.00     0.066 A 
HETATM   14  C   UNL     1     -41.594  53.230 -53.247  1.00  0.00     0.046 A 
BRANCH  13  15
HETATM   15  O   UNL     1     -40.219  51.818 -54.522  1.00  0.00    -0.361 OA
HETATM   16  H   UNL     1     -40.475  50.879 -54.454  1.00  0.00     0.217 HD
ENDBRANCH  13  15
ENDBRANCH   7   8
ENDBRANCH   3   7
BRANCH   1  17
HETATM   17  C   UNL     1     -42.997  57.012 -56.353  1.00  0.00     0.127 C 
BRANCH  17  18
HETATM   18  N   UNL     1     -42.463  56.263 -57.496  1.00  0.00    -0.376 N 
HETATM   19  H   UNL     1     -41.720  55.610 -57.270  1.00  0.00     0.161 HD
BRANCH  18  20
HETATM   20  C   UNL     1     -43.285  55.917 -58.559  1.00  0.00     0.100 A 
HETATM   21  C   UNL     1     -43.520  56.726 -59.679  1.00  0.00     0.048 A 
HETATM   22  C   UNL     1     -44.346  56.281 -60.711  1.00  0.00     0.005 A 
HETATM   23  C   UNL     1     -44.924  55.022 -60.633  1.00  0.00     0.017 A 
HETATM   24  C   UNL     1     -44.655  54.237 -59.527  1.00  0.00     0.089 A 
HETATM   25  N   UNL     1     -43.856  54.698 -58.550  1.00  0.00    -0.353 N 
HETATM   26  H   UNL     1     -43.662  54.083 -57.766  1.00  0.00     0.166 HD
ENDBRANCH  18  20
ENDBRANCH  17  18
ENDBRANCH   1  17
TORSDOF 6
ENDMDL
MODEL 9
REMARK VINA RESULT:      -6.9      4.297      8.079
REMARK  6 active torsions:
REMARK  status: ('A' for Active; 'I' for Inactive)
REMARK    1  A    between atoms: C_3  and  N_4 
REMARK    2  A    between atoms: N_4  and  C_5 
REMARK    3  A    between atoms: C_5  and  C_6 
REMARK    4  A    between atoms: N_8  and  C_10 
REMARK    5  A    between atoms: C_10  and  C_11 
REMARK    6  A    between atoms: C_16  and  O_17 
ROOT
HETATM    1  C   UNL     1     -41.316  54.440 -54.609  1.00  0.00     0.031 C 
HETATM    2  C   UNL     1     -41.304  55.377 -53.404  1.00  0.00     0.241 C 
HETATM    3  N   UNL     1     -42.515  56.264 -53.604  1.00  0.00    -0.067 N 
HETATM    4  H   UNL     1     -43.060  56.256 -52.728  1.00  0.00     0.280 HD
HETATM    5  C   UNL     1     -43.377  55.634 -54.680  1.00  0.00     0.235 C 
HETATM    6  C   UNL     1     -42.812  54.231 -54.831  1.00  0.00     0.035 C 
ENDROOT
BRANCH   3   7
HETATM    7  C   UNL     1     -42.183  57.721 -53.843  1.00  0.00     0.274 C 
BRANCH   7   8
HETATM    8  C   UNL     1     -41.598  58.412 -52.643  1.00  0.00    -0.013 A 
HETATM    9  C   UNL     1     -42.375  58.855 -51.559  1.00  0.00     0.019 A 
HETATM   10 BR   UNL     1     -44.261  58.634 -51.529  1.00  0.00    -0.051 Br
HETATM   11  C   UNL     1     -41.780  59.495 -50.466  1.00  0.00     0.022 A 
HETATM   12  C   UNL     1     -40.401  59.709 -50.441  1.00  0.00     0.038 A 
HETATM   13  C   UNL     1     -39.632  59.281 -51.512  1.00  0.00     0.066 A 
HETATM   14  C   UNL     1     -40.212  58.637 -52.601  1.00  0.00     0.046 A 
BRANCH  13  15
HETATM   15  O   UNL     1     -38.285  59.473 -51.551  1.00  0.00    -0.361 OA
HETATM   16  H   UNL     1     -37.832  58.611 -51.504  1.00  0.00     0.217 HD
ENDBRANCH  13  15
ENDBRANCH   7   8
ENDBRANCH   3   7
BRANCH   1  17
HETATM   17  C   UNL     1     -40.530  53.147 -54.367  1.00  0.00     0.127 C 
BRANCH  17  18
HETATM   18  N   UNL     1     -39.949  53.146 -53.020  1.00  0.00    -0.376 N 
HETATM   19  H   UNL     1     -40.076  54.009 -52.500  1.00  0.00     0.161 HD
BRANCH  18  20
HETATM   20  C   UNL     1     -39.898  51.979 -52.274  1.00  0.00     0.100 A 
HETATM   21  C   UNL     1     -40.166  51.900 -50.901  1.00  0.00     0.048 A 
HETATM   22  C   UNL     1     -40.113  50.672 -50.239  1.00  0.00     0.005 A 
HETATM   23  C   UNL     1     -39.808  49.522 -50.951  1.00  0.00     0.017 A 
HETATM   24  C   UNL     1     -39.572  49.627 -52.311  1.00  0.00     0.089 A 
HETATM   25  N   UNL     1     -39.630  50.825 -52.915  1.00  0.00    -0.353 N 
HETATM   26  H   UNL     1     -39.476  50.858 -53.918  1.00  0.00     0.166 HD
ENDBRANCH  18  20
ENDBRANCH  17  18
ENDBRANCH   1  17
TORSDOF 6
ENDMDL
MODEL 10
REMARK VINA RESULT:      -6.9      3.406      5.732
REMARK  6 active torsions:
REMARK  status: ('A' for Active; 'I' for Inactive)
REMARK    1  A    between atoms: C_3  and  N_4 
REMARK    2  A    between atoms: N_4  and  C_5 
REMARK    3  A    between atoms: C_5  and  C_6 
REMARK    4  A    between atoms: N_8  and  C_10 
REMARK    5  A    between atoms: C_10  and  C_11 
REMARK    6  A    between atoms: C_16  and  O_17 
ROOT
HETATM    1  C   UNL     1     -42.314  57.290 -55.006  1.00  0.00     0.031 C 
HETATM    2  C   UNL     1     -41.346  56.271 -54.410  1.00  0.00     0.241 C 
HETATM    3  N   UNL     1     -41.756  54.953 -55.034  1.00  0.00    -0.067 N 
HETATM    4  H   UNL     1     -40.909  54.510 -55.421  1.00  0.00     0.280 HD
HETATM    5  C   UNL     1     -42.680  55.259 -56.197  1.00  0.00     0.235 C 
HETATM    6  C   UNL     1     -42.507  56.752 -56.421  1.00  0.00     0.035 C 
ENDROOT
BRANCH   3   7
HETATM    7  C   UNL     1     -42.307  53.947 -54.048  1.00  0.00     0.274 C 
BRANCH   7   8
HETATM    8  C   UNL     1     -41.255  53.068 -53.430  1.00  0.00    -0.013 A 
HETATM    9  C   UNL     1     -40.741  53.279 -52.139  1.00  0.00     0.019 A 
HETATM   10 BR   UNL     1     -41.324  54.728 -51.059  1.00  0.00    -0.051 Br
HETATM   11  C   UNL     1     -39.760  52.431 -51.612  1.00  0.00     0.022 A 
HETATM   12  C   UNL     1     -39.273  51.364 -52.367  1.00  0.00     0.038 A 
HETATM   13  C   UNL     1     -39.771  51.156 -53.644  1.00  0.00     0.066 A 
HETATM   14  C   UNL     1     -40.752  51.989 -54.176  1.00  0.00     0.046 A 
BRANCH  13  15
HETATM   15  O   UNL     1     -39.327  50.141 -54.433  1.00  0.00    -0.361 OA
HETATM   16  H   UNL     1     -39.813  49.324 -54.218  1.00  0.00     0.217 HD
ENDBRANCH  13  15
ENDBRANCH   7   8
ENDBRANCH   3   7
BRANCH   1  17
HETATM   17  C   UNL     1     -41.780  58.726 -54.947  1.00  0.00     0.127 C 
BRANCH  17  18
HETATM   18  N   UNL     1     -42.410  59.461 -53.846  1.00  0.00    -0.376 N 
HETATM   19  H   UNL     1     -43.425  59.420 -53.830  1.00  0.00     0.161 HD
BRANCH  18  20
HETATM   20  C   UNL     1     -41.779  59.567 -52.615  1.00  0.00     0.100 A 
HETATM   21  C   UNL     1     -42.366  60.107 -51.463  1.00  0.00     0.048 A 
HETATM   22  C   UNL     1     -41.658  60.149 -50.262  1.00  0.00     0.005 A 
HETATM   23  C   UNL     1     -40.370  59.638 -50.207  1.00  0.00     0.017 A 
HETATM   24  C   UNL     1     -39.825  59.090 -51.354  1.00  0.00     0.089 A 
HETATM   25  N   UNL     1     -40.534  59.066 -52.494  1.00  0.00    -0.353 N 
HETATM   26  H   UNL     1     -40.110  58.633 -53.308  1.00  0.00     0.166 HD
ENDBRANCH  18  20
ENDBRANCH  17  18
ENDBRANCH   1  17
TORSDOF 6
ENDMDL
