MODEL 1
REMARK VINA RESULT:      -8.5      0.000      0.000
REMARK  9 active torsions:
REMARK  status: ('A' for Active; 'I' for Inactive)
REMARK    1  A    between atoms: C_5  and  C_6 
REMARK    2  A    between atoms: C_8  and  N_9 
REMARK       I    between atoms: N_9  and  C_10 
REMARK    3  A    between atoms: C_10  and  C_11 
REMARK    4  A    between atoms: C_11  and  N_12 
REMARK    5  A    between atoms: N_12  and  C_14 
REMARK    6  A    between atoms: C_14  and  C_15 
REMARK       I    between atoms: C_15  and  N_16 
REMARK    7  A    between atoms: N_16  and  C_17 
REMARK    8  A    between atoms: C_20  and  O_21 
REMARK    9  A    between atoms: O_21  and  C_22 
ROOT
HETATM    1  N   UNL     1     -42.409  59.342 -52.084  1.00  0.00    -0.058 N 
HETATM    2  H   UNL     1     -41.801  59.022 -51.322  1.00  0.00     0.280 HD
HETATM    3  C   UNL     1     -42.965  60.659 -51.586  1.00  0.00     0.270 C 
ENDROOT
BRANCH   1   4
HETATM    4  C   UNL     1     -43.480  58.255 -52.225  1.00  0.00     0.337 C 
BRANCH   4   5
HETATM    5  C   UNL     1     -43.242  56.943 -51.468  1.00  0.00     0.248 C 
HETATM    6  N   UNL     1     -41.943  56.475 -51.548  1.00  0.00    -0.326 N 
HETATM    7  H   UNL     1     -41.320  56.868 -52.241  1.00  0.00     0.169 HD
HETATM    8  O   UNL     1     -44.182  56.415 -50.883  1.00  0.00    -0.271 OA
BRANCH   6   9
HETATM    9  C   UNL     1     -41.382  55.405 -50.813  1.00  0.00     0.035 A 
HETATM   10  C   UNL     1     -40.985  54.188 -51.378  1.00  0.00     0.043 A 
HETATM   11  C   UNL     1     -40.494  53.138 -50.577  1.00  0.00    -0.005 A 
HETATM   12  C   UNL     1     -40.385  53.346 -49.195  1.00  0.00     0.014 A 
HETATM   13  C   UNL     1     -40.771  54.559 -48.625  1.00  0.00     0.003 A 
HETATM   14  C   UNL     1     -41.277  55.577 -49.429  1.00  0.00     0.029 A 
BRANCH  11  15
HETATM   15  C   UNL     1     -40.137  51.862 -51.205  1.00  0.00     0.074 A 
HETATM   16  C   UNL     1     -39.930  50.674 -50.530  1.00  0.00     0.084 A 
HETATM   17  S   UNL     1     -39.539  49.419 -51.631  1.00  0.00    -0.085 SA
HETATM   18  C   UNL     1     -39.680  50.532 -52.928  1.00  0.00     0.071 A 
HETATM   19  C   UNL     1     -39.439  50.089 -54.328  1.00  0.00     0.078 C 
HETATM   20  N   UNL     1     -39.993  51.763 -52.585  1.00  0.00    -0.245 NA
ENDBRANCH  11  15
ENDBRANCH   6   9
ENDBRANCH   4   5
ENDBRANCH   1   4
BRANCH   1  21
HETATM   21  C   UNL     1     -41.494  59.484 -53.301  1.00  0.00     0.337 C 
BRANCH  21  22
HETATM   22  C   UNL     1     -41.574  58.344 -54.323  1.00  0.00     0.248 C 
HETATM   23  N   UNL     1     -42.329  58.642 -55.446  1.00  0.00    -0.326 N 
HETATM   24  H   UNL     1     -42.902  59.480 -55.445  1.00  0.00     0.169 HD
HETATM   25  O   UNL     1     -40.960  57.305 -54.118  1.00  0.00    -0.271 OA
BRANCH  23  26
HETATM   26  C   UNL     1     -42.532  57.797 -56.565  1.00  0.00     0.034 A 
HETATM   27  C   UNL     1     -42.726  56.420 -56.483  1.00  0.00     0.032 A 
HETATM   28  C   UNL     1     -42.942  55.663 -57.641  1.00  0.00     0.039 A 
HETATM   29  C   UNL     1     -42.972  56.265 -58.900  1.00  0.00     0.078 A 
HETATM   30  C   UNL     1     -42.752  57.638 -58.990  1.00  0.00     0.039 A 
HETATM   31  C   UNL     1     -42.533  58.397 -57.831  1.00  0.00     0.032 A 
BRANCH  29  32
HETATM   32  O   UNL     1     -43.215  55.408 -59.932  1.00  0.00    -0.255 OA
BRANCH  32  33
HETATM   33  C   UNL     1     -44.543  54.936 -60.101  1.00  0.00     0.530 C 
HETATM   34  F   UNL     1     -44.830  54.747 -61.407  1.00  0.00    -0.144 F 
HETATM   35  F   UNL     1     -44.726  53.779 -59.429  1.00  0.00    -0.144 F 
HETATM   36  F   UNL     1     -45.398  55.854 -59.606  1.00  0.00    -0.144 F 
ENDBRANCH  32  33
ENDBRANCH  29  32
ENDBRANCH  23  26
ENDBRANCH  21  22
ENDBRANCH   1  21
TORSDOF 9
ENDMDL
MODEL 2
REMARK VINA RESULT:      -8.5      4.567      8.544
REMARK  9 active torsions:
REMARK  status: ('A' for Active; 'I' for Inactive)
REMARK    1  A    between atoms: C_5  and  C_6 
REMARK    2  A    between atoms: C_8  and  N_9 
REMARK       I    between atoms: N_9  and  C_10 
REMARK    3  A    between atoms: C_10  and  C_11 
REMARK    4  A    between atoms: C_11  and  N_12 
REMARK    5  A    between atoms: N_12  and  C_14 
REMARK    6  A    between atoms: C_14  and  C_15 
REMARK       I    between atoms: C_15  and  N_16 
REMARK    7  A    between atoms: N_16  and  C_17 
REMARK    8  A    between atoms: C_20  and  O_21 
REMARK    9  A    between atoms: O_21  and  C_22 
ROOT
HETATM    1  N   UNL     1     -43.924  58.651 -53.179  1.00  0.00    -0.058 N 
HETATM    2  H   UNL     1     -44.267  57.874 -53.755  1.00  0.00     0.280 HD
HETATM    3  C   UNL     1     -45.127  59.557 -53.026  1.00  0.00     0.270 C 
ENDROOT
BRANCH   1   4
HETATM    4  C   UNL     1     -42.795  59.288 -53.997  1.00  0.00     0.337 C 
BRANCH   4   5
HETATM    5  C   UNL     1     -42.653  58.833 -55.454  1.00  0.00     0.248 C 
HETATM    6  N   UNL     1     -43.489  57.788 -55.803  1.00  0.00    -0.326 N 
HETATM    7  H   UNL     1     -43.952  57.264 -55.072  1.00  0.00     0.169 HD
HETATM    8  O   UNL     1     -41.830  59.391 -56.174  1.00  0.00    -0.271 OA
BRANCH   6   9
HETATM    9  C   UNL     1     -43.715  57.282 -57.104  1.00  0.00     0.035 A 
HETATM   10  C   UNL     1     -44.714  57.749 -57.964  1.00  0.00     0.043 A 
HETATM   11  C   UNL     1     -44.930  57.155 -59.223  1.00  0.00    -0.005 A 
HETATM   12  C   UNL     1     -44.099  56.094 -59.612  1.00  0.00     0.014 A 
HETATM   13  C   UNL     1     -43.095  55.628 -58.764  1.00  0.00     0.003 A 
HETATM   14  C   UNL     1     -42.913  56.211 -57.512  1.00  0.00     0.029 A 
BRANCH  11  15
HETATM   15  C   UNL     1     -46.020  57.643 -60.072  1.00  0.00     0.074 A 
HETATM   16  C   UNL     1     -46.316  58.974 -60.299  1.00  0.00     0.084 A 
HETATM   17  S   UNL     1     -47.659  59.119 -61.355  1.00  0.00    -0.085 SA
HETATM   18  C   UNL     1     -47.752  57.409 -61.448  1.00  0.00     0.071 A 
HETATM   19  C   UNL     1     -48.806  56.757 -62.271  1.00  0.00     0.078 C 
HETATM   20  N   UNL     1     -46.854  56.755 -60.742  1.00  0.00    -0.245 NA
ENDBRANCH  11  15
ENDBRANCH   6   9
ENDBRANCH   4   5
ENDBRANCH   1   4
BRANCH   1  21
HETATM   21  C   UNL     1     -43.466  58.014 -51.867  1.00  0.00     0.337 C 
BRANCH  21  22
HETATM   22  C   UNL     1     -42.333  56.989 -51.991  1.00  0.00     0.248 C 
HETATM   23  N   UNL     1     -42.688  55.829 -52.661  1.00  0.00    -0.326 N 
HETATM   24  H   UNL     1     -43.669  55.657 -52.858  1.00  0.00     0.169 HD
HETATM   25  O   UNL     1     -41.222  57.260 -51.553  1.00  0.00    -0.271 OA
BRANCH  23  26
HETATM   26  C   UNL     1     -41.833  54.740 -52.960  1.00  0.00     0.034 A 
HETATM   27  C   UNL     1     -41.349  53.840 -52.013  1.00  0.00     0.032 A 
HETATM   28  C   UNL     1     -40.524  52.777 -52.401  1.00  0.00     0.039 A 
HETATM   29  C   UNL     1     -40.170  52.591 -53.737  1.00  0.00     0.078 A 
HETATM   30  C   UNL     1     -40.629  53.503 -54.684  1.00  0.00     0.039 A 
HETATM   31  C   UNL     1     -41.454  54.570 -54.297  1.00  0.00     0.032 A 
BRANCH  29  32
HETATM   32  O   UNL     1     -39.382  51.502 -53.968  1.00  0.00    -0.255 OA
BRANCH  32  33
HETATM   33  C   UNL     1     -40.024  50.253 -54.172  1.00  0.00     0.530 C 
HETATM   34  F   UNL     1     -41.298  50.422 -54.586  1.00  0.00    -0.144 F 
HETATM   35  F   UNL     1     -39.351  49.514 -55.081  1.00  0.00    -0.144 F 
HETATM   36  F   UNL     1     -40.043  49.576 -53.004  1.00  0.00    -0.144 F 
ENDBRANCH  32  33
ENDBRANCH  29  32
ENDBRANCH  23  26
ENDBRANCH  21  22
ENDBRANCH   1  21
TORSDOF 9
ENDMDL
MODEL 3
REMARK VINA RESULT:      -8.4      3.400      5.846
REMARK  9 active torsions:
REMARK  status: ('A' for Active; 'I' for Inactive)
REMARK    1  A    between atoms: C_5  and  C_6 
REMARK    2  A    between atoms: C_8  and  N_9 
REMARK       I    between atoms: N_9  and  C_10 
REMARK    3  A    between atoms: C_10  and  C_11 
REMARK    4  A    between atoms: C_11  and  N_12 
REMARK    5  A    between atoms: N_12  and  C_14 
REMARK    6  A    between atoms: C_14  and  C_15 
REMARK       I    between atoms: C_15  and  N_16 
REMARK    7  A    between atoms: N_16  and  C_17 
REMARK    8  A    between atoms: C_20  and  O_21 
REMARK    9  A    between atoms: O_21  and  C_22 
ROOT
HETATM    1  N   UNL     1     -42.247  58.634 -57.860  1.00  0.00    -0.058 N 
HETATM    2  H   UNL     1     -41.382  58.172 -57.558  1.00  0.00     0.280 HD
HETATM    3  C   UNL     1     -41.991  58.987 -59.309  1.00  0.00     0.270 C 
ENDROOT
BRANCH   1   4
HETATM    4  C   UNL     1     -42.378  59.866 -56.957  1.00  0.00     0.337 C 
BRANCH   4   5
HETATM    5  C   UNL     1     -42.652  59.611 -55.471  1.00  0.00     0.248 C 
HETATM    6  N   UNL     1     -41.619  58.970 -54.810  1.00  0.00    -0.326 N 
HETATM    7  H   UNL     1     -40.887  58.530 -55.351  1.00  0.00     0.169 HD
HETATM    8  O   UNL     1     -43.727  59.961 -54.995  1.00  0.00    -0.271 OA
BRANCH   6   9
HETATM    9  C   UNL     1     -41.503  58.768 -53.415  1.00  0.00     0.035 A 
HETATM   10  C   UNL     1     -41.347  57.515 -52.815  1.00  0.00     0.043 A 
HETATM   11  C   UNL     1     -41.305  57.377 -51.413  1.00  0.00    -0.005 A 
HETATM   12  C   UNL     1     -41.395  58.534 -50.625  1.00  0.00     0.014 A 
HETATM   13  C   UNL     1     -41.543  59.788 -51.216  1.00  0.00     0.003 A 
HETATM   14  C   UNL     1     -41.608  59.902 -52.603  1.00  0.00     0.029 A 
BRANCH  11  15
HETATM   15  C   UNL     1     -41.191  56.040 -50.825  1.00  0.00     0.074 A 
HETATM   16  C   UNL     1     -41.466  54.856 -51.484  1.00  0.00     0.084 A 
HETATM   17  S   UNL     1     -41.201  53.516 -50.446  1.00  0.00    -0.085 SA
HETATM   18  C   UNL     1     -40.730  54.595 -49.198  1.00  0.00     0.071 A 
HETATM   19  C   UNL     1     -40.333  54.072 -47.862  1.00  0.00     0.078 C 
HETATM   20  N   UNL     1     -40.766  55.872 -49.512  1.00  0.00    -0.245 NA
ENDBRANCH  11  15
ENDBRANCH   6   9
ENDBRANCH   4   5
ENDBRANCH   1   4
BRANCH   1  21
HETATM   21  C   UNL     1     -43.351  57.594 -57.668  1.00  0.00     0.337 C 
BRANCH  21  22
HETATM   22  C   UNL     1     -42.875  56.187 -57.291  1.00  0.00     0.248 C 
HETATM   23  N   UNL     1     -42.213  56.119 -56.076  1.00  0.00    -0.326 N 
HETATM   24  H   UNL     1     -41.937  56.982 -55.618  1.00  0.00     0.169 HD
HETATM   25  O   UNL     1     -43.133  55.244 -58.028  1.00  0.00    -0.271 OA
BRANCH  23  26
HETATM   26  C   UNL     1     -41.710  54.946 -55.461  1.00  0.00     0.034 A 
HETATM   27  C   UNL     1     -40.356  54.686 -55.259  1.00  0.00     0.032 A 
HETATM   28  C   UNL     1     -39.947  53.508 -54.622  1.00  0.00     0.039 A 
HETATM   29  C   UNL     1     -40.878  52.572 -54.172  1.00  0.00     0.078 A 
HETATM   30  C   UNL     1     -42.232  52.815 -54.395  1.00  0.00     0.039 A 
HETATM   31  C   UNL     1     -42.643  53.993 -55.036  1.00  0.00     0.032 A 
BRANCH  29  32
HETATM   32  O   UNL     1     -40.335  51.487 -53.550  1.00  0.00    -0.255 OA
BRANCH  32  33
HETATM   33  C   UNL     1     -40.300  50.262 -54.266  1.00  0.00     0.530 C 
HETATM   34  F   UNL     1     -41.520  49.947 -54.750  1.00  0.00    -0.144 F 
HETATM   35  F   UNL     1     -39.416  50.331 -55.284  1.00  0.00    -0.144 F 
HETATM   36  F   UNL     1     -39.908  49.279 -53.428  1.00  0.00    -0.144 F 
ENDBRANCH  32  33
ENDBRANCH  29  32
ENDBRANCH  23  26
ENDBRANCH  21  22
ENDBRANCH   1  21
TORSDOF 9
ENDMDL
MODEL 4
REMARK VINA RESULT:      -8.3      3.829      7.757
REMARK  9 active torsions:
REMARK  status: ('A' for Active; 'I' for Inactive)
REMARK    1  A    between atoms: C_5  and  C_6 
REMARK    2  A    between atoms: C_8  and  N_9 
REMARK       I    between atoms: N_9  and  C_10 
REMARK    3  A    between atoms: C_10  and  C_11 
REMARK    4  A    between atoms: C_11  and  N_12 
REMARK    5  A    between atoms: N_12  and  C_14 
REMARK    6  A    between atoms: C_14  and  C_15 
REMARK       I    between atoms: C_15  and  N_16 
REMARK    7  A    between atoms: N_16  and  C_17 
REMARK    8  A    between atoms: C_20  and  O_21 
REMARK    9  A    between atoms: O_21  and  C_22 
ROOT
HETATM    1  N   UNL     1     -42.379  59.039 -51.219  1.00  0.00    -0.058 N 
HETATM    2  H   UNL     1     -42.896  59.538 -50.486  1.00  0.00     0.280 HD
HETATM    3  C   UNL     1     -41.112  58.580 -50.531  1.00  0.00     0.270 C 
ENDROOT
BRANCH   1   4
HETATM    4  C   UNL     1     -42.123  60.084 -52.311  1.00  0.00     0.337 C 
BRANCH   4   5
HETATM    5  C   UNL     1     -41.812  59.558 -53.717  1.00  0.00     0.248 C 
HETATM    6  N   UNL     1     -42.794  59.834 -54.651  1.00  0.00    -0.326 N 
HETATM    7  H   UNL     1     -43.702  60.144 -54.333  1.00  0.00     0.169 HD
HETATM    8  O   UNL     1     -40.769  58.940 -53.903  1.00  0.00    -0.271 OA
BRANCH   6   9
HETATM    9  C   UNL     1     -42.710  59.643 -56.049  1.00  0.00     0.035 A 
HETATM   10  C   UNL     1     -43.400  58.646 -56.747  1.00  0.00     0.043 A 
HETATM   11  C   UNL     1     -43.219  58.467 -58.133  1.00  0.00    -0.005 A 
HETATM   12  C   UNL     1     -42.347  59.331 -58.810  1.00  0.00     0.014 A 
HETATM   13  C   UNL     1     -41.662  60.333 -58.124  1.00  0.00     0.003 A 
HETATM   14  C   UNL     1     -41.834  60.479 -56.749  1.00  0.00     0.029 A 
BRANCH  11  15
HETATM   15  C   UNL     1     -43.924  57.378 -58.815  1.00  0.00     0.074 A 
HETATM   16  C   UNL     1     -43.382  56.140 -59.108  1.00  0.00     0.084 A 
HETATM   17  S   UNL     1     -44.537  55.152 -59.903  1.00  0.00    -0.085 SA
HETATM   18  C   UNL     1     -45.679  56.427 -59.796  1.00  0.00     0.071 A 
HETATM   19  C   UNL     1     -47.049  56.257 -60.353  1.00  0.00     0.078 C 
HETATM   20  N   UNL     1     -45.248  57.526 -59.214  1.00  0.00    -0.245 NA
ENDBRANCH  11  15
ENDBRANCH   6   9
ENDBRANCH   4   5
ENDBRANCH   1   4
BRANCH   1  21
HETATM   21  C   UNL     1     -43.292  57.891 -51.651  1.00  0.00     0.337 C 
BRANCH  21  22
HETATM   22  C   UNL     1     -42.639  56.505 -51.686  1.00  0.00     0.248 C 
HETATM   23  N   UNL     1     -42.148  56.141 -52.930  1.00  0.00    -0.326 N 
HETATM   24  H   UNL     1     -42.396  56.701 -53.739  1.00  0.00     0.169 HD
HETATM   25  O   UNL     1     -42.553  55.851 -50.654  1.00  0.00    -0.271 OA
BRANCH  23  26
HETATM   26  C   UNL     1     -41.457  54.944 -53.239  1.00  0.00     0.034 A 
HETATM   27  C   UNL     1     -40.968  54.625 -54.504  1.00  0.00     0.032 A 
HETATM   28  C   UNL     1     -40.276  53.426 -54.716  1.00  0.00     0.039 A 
HETATM   29  C   UNL     1     -40.056  52.527 -53.672  1.00  0.00     0.078 A 
HETATM   30  C   UNL     1     -40.566  52.829 -52.412  1.00  0.00     0.039 A 
HETATM   31  C   UNL     1     -41.261  54.028 -52.198  1.00  0.00     0.032 A 
BRANCH  29  32
HETATM   32  O   UNL     1     -39.348  51.416 -54.022  1.00  0.00    -0.255 OA
BRANCH  32  33
HETATM   33  C   UNL     1     -40.061  50.200 -54.183  1.00  0.00     0.530 C 
HETATM   34  F   UNL     1     -40.069  49.484 -53.038  1.00  0.00    -0.144 F 
HETATM   35  F   UNL     1     -41.332  50.440 -54.571  1.00  0.00    -0.144 F 
HETATM   36  F   UNL     1     -39.458  49.463 -55.140  1.00  0.00    -0.144 F 
ENDBRANCH  32  33
ENDBRANCH  29  32
ENDBRANCH  23  26
ENDBRANCH  21  22
ENDBRANCH   1  21
TORSDOF 9
ENDMDL
MODEL 5
REMARK VINA RESULT:      -8.3      4.440      8.612
REMARK  9 active torsions:
REMARK  status: ('A' for Active; 'I' for Inactive)
REMARK    1  A    between atoms: C_5  and  C_6 
REMARK    2  A    between atoms: C_8  and  N_9 
REMARK       I    between atoms: N_9  and  C_10 
REMARK    3  A    between atoms: C_10  and  C_11 
REMARK    4  A    between atoms: C_11  and  N_12 
REMARK    5  A    between atoms: N_12  and  C_14 
REMARK    6  A    between atoms: C_14  and  C_15 
REMARK       I    between atoms: C_15  and  N_16 
REMARK    7  A    between atoms: N_16  and  C_17 
REMARK    8  A    between atoms: C_20  and  O_21 
REMARK    9  A    between atoms: O_21  and  C_22 
ROOT
HETATM    1  N   UNL     1     -44.320  58.051 -52.818  1.00  0.00    -0.058 N 
HETATM    2  H   UNL     1     -45.201  58.485 -52.518  1.00  0.00     0.280 HD
HETATM    3  C   UNL     1     -43.486  59.211 -53.316  1.00  0.00     0.270 C 
ENDROOT
BRANCH   1   4
HETATM    4  C   UNL     1     -44.715  57.074 -53.931  1.00  0.00     0.337 C 
BRANCH   4   5
HETATM    5  C   UNL     1     -44.496  57.542 -55.374  1.00  0.00     0.248 C 
HETATM    6  N   UNL     1     -43.343  57.048 -55.958  1.00  0.00    -0.326 N 
HETATM    7  H   UNL     1     -42.639  56.621 -55.371  1.00  0.00     0.169 HD
HETATM    8  O   UNL     1     -45.313  58.303 -55.883  1.00  0.00    -0.271 OA
BRANCH   6   9
HETATM    9  C   UNL     1     -42.972  57.151 -57.318  1.00  0.00     0.035 A 
HETATM   10  C   UNL     1     -42.600  58.347 -57.941  1.00  0.00     0.043 A 
HETATM   11  C   UNL     1     -42.306  58.391 -59.318  1.00  0.00    -0.005 A 
HETATM   12  C   UNL     1     -42.366  57.199 -60.054  1.00  0.00     0.014 A 
HETATM   13  C   UNL     1     -42.728  56.000 -59.438  1.00  0.00     0.003 A 
HETATM   14  C   UNL     1     -43.040  55.980 -58.081  1.00  0.00     0.029 A 
BRANCH  11  15
HETATM   15  C   UNL     1     -41.971  59.675 -59.940  1.00  0.00     0.074 A 
HETATM   16  C   UNL     1     -42.049  59.948 -61.293  1.00  0.00     0.084 A 
HETATM   17  S   UNL     1     -41.576  61.567 -61.607  1.00  0.00    -0.085 SA
HETATM   18  C   UNL     1     -41.310  61.799 -59.929  1.00  0.00     0.071 A 
HETATM   19  C   UNL     1     -40.828  63.112 -59.419  1.00  0.00     0.078 C 
HETATM   20  N   UNL     1     -41.547  60.752 -59.168  1.00  0.00    -0.245 NA
ENDBRANCH  11  15
ENDBRANCH   6   9
ENDBRANCH   4   5
ENDBRANCH   1   4
BRANCH   1  21
HETATM   21  C   UNL     1     -43.752  57.380 -51.566  1.00  0.00     0.337 C 
BRANCH  21  22
HETATM   22  C   UNL     1     -43.212  55.959 -51.767  1.00  0.00     0.248 C 
HETATM   23  N   UNL     1     -42.079  55.890 -52.562  1.00  0.00    -0.326 N 
HETATM   24  H   UNL     1     -41.795  56.713 -53.084  1.00  0.00     0.169 HD
HETATM   25  O   UNL     1     -43.760  55.020 -51.205  1.00  0.00    -0.271 OA
BRANCH  23  26
HETATM   26  C   UNL     1     -41.346  54.719 -52.873  1.00  0.00     0.034 A 
HETATM   27  C   UNL     1     -40.888  53.806 -51.926  1.00  0.00     0.032 A 
HETATM   28  C   UNL     1     -40.188  52.660 -52.324  1.00  0.00     0.039 A 
HETATM   29  C   UNL     1     -39.934  52.404 -53.672  1.00  0.00     0.078 A 
HETATM   30  C   UNL     1     -40.366  53.328 -54.621  1.00  0.00     0.039 A 
HETATM   31  C   UNL     1     -41.066  54.477 -54.224  1.00  0.00     0.032 A 
BRANCH  29  32
HETATM   32  O   UNL     1     -39.264  51.241 -53.911  1.00  0.00    -0.255 OA
BRANCH  32  33
HETATM   33  C   UNL     1     -40.032  50.075 -54.164  1.00  0.00     0.530 C 
HETATM   34  F   UNL     1     -40.045  49.258 -53.089  1.00  0.00    -0.144 F 
HETATM   35  F   UNL     1     -41.300  50.401 -54.495  1.00  0.00    -0.144 F 
HETATM   36  F   UNL     1     -39.482  49.406 -55.199  1.00  0.00    -0.144 F 
ENDBRANCH  32  33
ENDBRANCH  29  32
ENDBRANCH  23  26
ENDBRANCH  21  22
ENDBRANCH   1  21
TORSDOF 9
ENDMDL
MODEL 6
REMARK VINA RESULT:      -8.1      4.202      7.999
REMARK  9 active torsions:
REMARK  status: ('A' for Active; 'I' for Inactive)
REMARK    1  A    between atoms: C_5  and  C_6 
REMARK    2  A    between atoms: C_8  and  N_9 
REMARK       I    between atoms: N_9  and  C_10 
REMARK    3  A    between atoms: C_10  and  C_11 
REMARK    4  A    between atoms: C_11  and  N_12 
REMARK    5  A    between atoms: N_12  and  C_14 
REMARK    6  A    between atoms: C_14  and  C_15 
REMARK       I    between atoms: C_15  and  N_16 
REMARK    7  A    between atoms: N_16  and  C_17 
REMARK    8  A    between atoms: C_20  and  O_21 
REMARK    9  A    between atoms: O_21  and  C_22 
ROOT
HETATM    1  N   UNL     1     -42.327  59.040 -51.790  1.00  0.00    -0.058 N 
HETATM    2  H   UNL     1     -43.098  59.664 -52.054  1.00  0.00     0.280 HD
HETATM    3  C   UNL     1     -41.603  59.789 -50.692  1.00  0.00     0.270 C 
ENDROOT
BRANCH   1   4
HETATM    4  C   UNL     1     -41.487  58.881 -53.062  1.00  0.00     0.337 C 
BRANCH   4   5
HETATM    5  C   UNL     1     -42.183  59.178 -54.395  1.00  0.00     0.248 C 
HETATM    6  N   UNL     1     -43.509  58.787 -54.438  1.00  0.00    -0.326 N 
HETATM    7  H   UNL     1     -43.861  58.165 -53.724  1.00  0.00     0.169 HD
HETATM    8  O   UNL     1     -41.538  59.702 -55.298  1.00  0.00    -0.271 OA
BRANCH   6   9
HETATM    9  C   UNL     1     -44.449  59.091 -55.449  1.00  0.00     0.035 A 
HETATM   10  C   UNL     1     -44.768  58.233 -56.507  1.00  0.00     0.043 A 
HETATM   11  C   UNL     1     -45.665  58.625 -57.520  1.00  0.00    -0.005 A 
HETATM   12  C   UNL     1     -46.258  59.893 -57.433  1.00  0.00     0.014 A 
HETATM   13  C   UNL     1     -45.952  60.752 -56.378  1.00  0.00     0.003 A 
HETATM   14  C   UNL     1     -45.043  60.356 -55.399  1.00  0.00     0.029 A 
BRANCH  11  15
HETATM   15  C   UNL     1     -45.932  57.714 -58.636  1.00  0.00     0.074 A 
HETATM   16  C   UNL     1     -47.077  57.719 -59.411  1.00  0.00     0.084 A 
HETATM   17  S   UNL     1     -46.992  56.500 -60.615  1.00  0.00    -0.085 SA
HETATM   18  C   UNL     1     -45.440  56.056 -60.035  1.00  0.00     0.071 A 
HETATM   19  C   UNL     1     -44.691  54.939 -60.673  1.00  0.00     0.078 C 
HETATM   20  N   UNL     1     -44.998  56.754 -59.010  1.00  0.00    -0.245 NA
ENDBRANCH  11  15
ENDBRANCH   6   9
ENDBRANCH   4   5
ENDBRANCH   1   4
BRANCH   1  21
HETATM   21  C   UNL     1     -42.996  57.750 -51.314  1.00  0.00     0.337 C 
BRANCH  21  22
HETATM   22  C   UNL     1     -42.701  56.503 -52.156  1.00  0.00     0.248 C 
HETATM   23  N   UNL     1     -41.463  55.932 -51.910  1.00  0.00    -0.326 N 
HETATM   24  H   UNL     1     -40.788  56.445 -51.351  1.00  0.00     0.169 HD
HETATM   25  O   UNL     1     -43.553  56.081 -52.928  1.00  0.00    -0.271 OA
BRANCH  23  26
HETATM   26  C   UNL     1     -40.952  54.753 -52.506  1.00  0.00     0.034 A 
HETATM   27  C   UNL     1     -40.696  54.612 -53.868  1.00  0.00     0.032 A 
HETATM   28  C   UNL     1     -40.168  53.416 -54.371  1.00  0.00     0.039 A 
HETATM   29  C   UNL     1     -39.885  52.343 -53.526  1.00  0.00     0.078 A 
HETATM   30  C   UNL     1     -40.164  52.470 -52.167  1.00  0.00     0.039 A 
HETATM   31  C   UNL     1     -40.694  53.666 -51.662  1.00  0.00     0.032 A 
BRANCH  29  32
HETATM   32  O   UNL     1     -39.353  51.254 -54.152  1.00  0.00    -0.255 OA
BRANCH  32  33
HETATM   33  C   UNL     1     -40.159  50.091 -54.255  1.00  0.00     0.530 C 
HETATM   34  F   UNL     1     -39.737  49.293 -55.259  1.00  0.00    -0.144 F 
HETATM   35  F   UNL     1     -40.146  49.398 -53.096  1.00  0.00    -0.144 F 
HETATM   36  F   UNL     1     -41.431  50.463 -54.513  1.00  0.00    -0.144 F 
ENDBRANCH  32  33
ENDBRANCH  29  32
ENDBRANCH  23  26
ENDBRANCH  21  22
ENDBRANCH   1  21
TORSDOF 9
ENDMDL
MODEL 7
REMARK VINA RESULT:      -7.8      4.330      8.747
REMARK  9 active torsions:
REMARK  status: ('A' for Active; 'I' for Inactive)
REMARK    1  A    between atoms: C_5  and  C_6 
REMARK    2  A    between atoms: C_8  and  N_9 
REMARK       I    between atoms: N_9  and  C_10 
REMARK    3  A    between atoms: C_10  and  C_11 
REMARK    4  A    between atoms: C_11  and  N_12 
REMARK    5  A    between atoms: N_12  and  C_14 
REMARK    6  A    between atoms: C_14  and  C_15 
REMARK       I    between atoms: C_15  and  N_16 
REMARK    7  A    between atoms: N_16  and  C_17 
REMARK    8  A    between atoms: C_20  and  O_21 
REMARK    9  A    between atoms: O_21  and  C_22 
ROOT
HETATM    1  N   UNL     1     -42.635  59.169 -52.805  1.00  0.00    -0.058 N 
HETATM    2  H   UNL     1     -43.303  59.901 -53.072  1.00  0.00     0.280 HD
HETATM    3  C   UNL     1     -41.933  59.733 -51.589  1.00  0.00     0.270 C 
ENDROOT
BRANCH   1   4
HETATM    4  C   UNL     1     -41.706  59.016 -54.015  1.00  0.00     0.337 C 
BRANCH   4   5
HETATM    5  C   UNL     1     -42.156  59.676 -55.323  1.00  0.00     0.248 C 
HETATM    6  N   UNL     1     -42.071  58.850 -56.429  1.00  0.00    -0.326 N 
HETATM    7  H   UNL     1     -41.539  57.993 -56.363  1.00  0.00     0.169 HD
HETATM    8  O   UNL     1     -42.528  60.845 -55.302  1.00  0.00    -0.271 OA
BRANCH   6   9
HETATM    9  C   UNL     1     -42.580  59.111 -57.723  1.00  0.00     0.035 A 
HETATM   10  C   UNL     1     -43.756  58.549 -58.230  1.00  0.00     0.043 A 
HETATM   11  C   UNL     1     -44.173  58.799 -59.553  1.00  0.00    -0.005 A 
HETATM   12  C   UNL     1     -43.393  59.650 -60.349  1.00  0.00     0.014 A 
HETATM   13  C   UNL     1     -42.223  60.221 -59.848  1.00  0.00     0.003 A 
HETATM   14  C   UNL     1     -41.814  59.942 -58.546  1.00  0.00     0.029 A 
BRANCH  11  15
HETATM   15  C   UNL     1     -45.385  58.149 -60.059  1.00  0.00     0.074 A 
HETATM   16  C   UNL     1     -45.685  56.807 -59.920  1.00  0.00     0.084 A 
HETATM   17  S   UNL     1     -47.198  56.453 -60.646  1.00  0.00    -0.085 SA
HETATM   18  C   UNL     1     -47.357  58.102 -61.087  1.00  0.00     0.071 A 
HETATM   19  C   UNL     1     -48.556  58.568 -61.836  1.00  0.00     0.078 C 
HETATM   20  N   UNL     1     -46.358  58.882 -60.730  1.00  0.00    -0.245 NA
ENDBRANCH  11  15
ENDBRANCH   6   9
ENDBRANCH   4   5
ENDBRANCH   1   4
BRANCH   1  21
HETATM   21  C   UNL     1     -43.484  57.933 -52.505  1.00  0.00     0.337 C 
BRANCH  21  22
HETATM   22  C   UNL     1     -43.029  56.638 -53.188  1.00  0.00     0.248 C 
HETATM   23  N   UNL     1     -41.879  56.086 -52.648  1.00  0.00    -0.326 N 
HETATM   24  H   UNL     1     -41.333  56.634 -51.990  1.00  0.00     0.169 HD
HETATM   25  O   UNL     1     -43.700  56.167 -54.097  1.00  0.00    -0.271 OA
BRANCH  23  26
HETATM   26  C   UNL     1     -41.264  54.874 -53.049  1.00  0.00     0.034 A 
HETATM   27  C   UNL     1     -40.928  54.564 -54.365  1.00  0.00     0.032 A 
HETATM   28  C   UNL     1     -40.301  53.349 -54.670  1.00  0.00     0.039 A 
HETATM   29  C   UNL     1     -39.997  52.425 -53.670  1.00  0.00     0.078 A 
HETATM   30  C   UNL     1     -40.356  52.719 -52.356  1.00  0.00     0.039 A 
HETATM   31  C   UNL     1     -40.985  53.934 -52.049  1.00  0.00     0.032 A 
BRANCH  29  32
HETATM   32  O   UNL     1     -39.367  51.300 -54.112  1.00  0.00    -0.255 OA
BRANCH  32  33
HETATM   33  C   UNL     1     -40.135  50.112 -54.226  1.00  0.00     0.530 C 
HETATM   34  F   UNL     1     -40.124  49.413 -53.071  1.00  0.00    -0.144 F 
HETATM   35  F   UNL     1     -41.411  50.400 -54.564  1.00  0.00    -0.144 F 
HETATM   36  F   UNL     1     -39.603  49.340 -55.196  1.00  0.00    -0.144 F 
ENDBRANCH  32  33
ENDBRANCH  29  32
ENDBRANCH  23  26
ENDBRANCH  21  22
ENDBRANCH   1  21
TORSDOF 9
ENDMDL
MODEL 8
REMARK VINA RESULT:      -7.8      4.821      8.274
REMARK  9 active torsions:
REMARK  status: ('A' for Active; 'I' for Inactive)
REMARK    1  A    between atoms: C_5  and  C_6 
REMARK    2  A    between atoms: C_8  and  N_9 
REMARK       I    between atoms: N_9  and  C_10 
REMARK    3  A    between atoms: C_10  and  C_11 
REMARK    4  A    between atoms: C_11  and  N_12 
REMARK    5  A    between atoms: N_12  and  C_14 
REMARK    6  A    between atoms: C_14  and  C_15 
REMARK       I    between atoms: C_15  and  N_16 
REMARK    7  A    between atoms: N_16  and  C_17 
REMARK    8  A    between atoms: C_20  and  O_21 
REMARK    9  A    between atoms: O_21  and  C_22 
ROOT
HETATM    1  N   UNL     1     -44.061  58.376 -55.320  1.00  0.00    -0.058 N 
HETATM    2  H   UNL     1     -43.856  59.371 -55.173  1.00  0.00     0.280 HD
HETATM    3  C   UNL     1     -45.310  58.377 -56.175  1.00  0.00     0.270 C 
ENDROOT
BRANCH   1   4
HETATM    4  C   UNL     1     -44.297  57.806 -53.917  1.00  0.00     0.337 C 
BRANCH   4   5
HETATM    5  C   UNL     1     -43.767  58.627 -52.736  1.00  0.00     0.248 C 
HETATM    6  N   UNL     1     -44.222  59.933 -52.710  1.00  0.00    -0.326 N 
HETATM    7  H   UNL     1     -44.662  60.317 -53.534  1.00  0.00     0.169 HD
HETATM    8  O   UNL     1     -42.997  58.098 -51.940  1.00  0.00    -0.271 OA
BRANCH   6   9
HETATM    9  C   UNL     1     -44.058  60.866 -51.659  1.00  0.00     0.035 A 
HETATM   10  C   UNL     1     -44.602  60.710 -50.380  1.00  0.00     0.043 A 
HETATM   11  C   UNL     1     -44.458  61.711 -49.398  1.00  0.00    -0.005 A 
HETATM   12  C   UNL     1     -43.729  62.864 -49.722  1.00  0.00     0.014 A 
HETATM   13  C   UNL     1     -43.176  63.024 -50.993  1.00  0.00     0.003 A 
HETATM   14  C   UNL     1     -43.351  62.035 -51.958  1.00  0.00     0.029 A 
BRANCH  11  15
HETATM   15  C   UNL     1     -45.087  61.528 -48.088  1.00  0.00     0.074 A 
HETATM   16  C   UNL     1     -45.161  62.491 -47.100  1.00  0.00     0.084 A 
HETATM   17  S   UNL     1     -45.983  61.879 -45.724  1.00  0.00    -0.085 SA
HETATM   18  C   UNL     1     -46.194  60.382 -46.535  1.00  0.00     0.071 A 
HETATM   19  C   UNL     1     -46.893  59.254 -45.861  1.00  0.00     0.078 C 
HETATM   20  N   UNL     1     -45.689  60.320 -47.749  1.00  0.00    -0.245 NA
ENDBRANCH  11  15
ENDBRANCH   6   9
ENDBRANCH   4   5
ENDBRANCH   1   4
BRANCH   1  21
HETATM   21  C   UNL     1     -42.832  57.808 -56.030  1.00  0.00     0.337 C 
BRANCH  21  22
HETATM   22  C   UNL     1     -42.499  56.347 -55.706  1.00  0.00     0.248 C 
HETATM   23  N   UNL     1     -41.485  56.190 -54.774  1.00  0.00    -0.326 N 
HETATM   24  H   UNL     1     -40.931  56.999 -54.511  1.00  0.00     0.169 HD
HETATM   25  O   UNL     1     -43.145  55.449 -56.230  1.00  0.00    -0.271 OA
BRANCH  23  26
HETATM   26  C   UNL     1     -41.008  54.961 -54.256  1.00  0.00     0.034 A 
HETATM   27  C   UNL     1     -41.202  54.536 -52.943  1.00  0.00     0.032 A 
HETATM   28  C   UNL     1     -40.714  53.294 -52.520  1.00  0.00     0.039 A 
HETATM   29  C   UNL     1     -40.027  52.453 -53.397  1.00  0.00     0.078 A 
HETATM   30  C   UNL     1     -39.808  52.885 -54.703  1.00  0.00     0.039 A 
HETATM   31  C   UNL     1     -40.294  54.130 -55.128  1.00  0.00     0.032 A 
BRANCH  29  32
HETATM   32  O   UNL     1     -39.633  51.267 -52.852  1.00  0.00    -0.255 OA
BRANCH  32  33
HETATM   33  C   UNL     1     -39.836  50.088 -53.615  1.00  0.00     0.530 C 
HETATM   34  F   UNL     1     -39.865  48.995 -52.823  1.00  0.00    -0.144 F 
HETATM   35  F   UNL     1     -40.988  50.166 -54.316  1.00  0.00    -0.144 F 
HETATM   36  F   UNL     1     -38.816  49.953 -54.489  1.00  0.00    -0.144 F 
ENDBRANCH  32  33
ENDBRANCH  29  32
ENDBRANCH  23  26
ENDBRANCH  21  22
ENDBRANCH   1  21
TORSDOF 9
ENDMDL
MODEL 9
REMARK VINA RESULT:      -7.7      4.001      6.738
REMARK  9 active torsions:
REMARK  status: ('A' for Active; 'I' for Inactive)
REMARK    1  A    between atoms: C_5  and  C_6 
REMARK    2  A    between atoms: C_8  and  N_9 
REMARK       I    between atoms: N_9  and  C_10 
REMARK    3  A    between atoms: C_10  and  C_11 
REMARK    4  A    between atoms: C_11  and  N_12 
REMARK    5  A    between atoms: N_12  and  C_14 
REMARK    6  A    between atoms: C_14  and  C_15 
REMARK       I    between atoms: C_15  and  N_16 
REMARK    7  A    between atoms: N_16  and  C_17 
REMARK    8  A    between atoms: C_20  and  O_21 
REMARK    9  A    between atoms: O_21  and  C_22 
ROOT
HETATM    1  N   UNL     1     -43.369  58.732 -58.720  1.00  0.00    -0.058 N 
HETATM    2  H   UNL     1     -42.399  58.402 -58.784  1.00  0.00     0.280 HD
HETATM    3  C   UNL     1     -43.843  58.767 -60.157  1.00  0.00     0.270 C 
ENDROOT
BRANCH   1   4
HETATM    4  C   UNL     1     -43.277  60.124 -58.085  1.00  0.00     0.337 C 
BRANCH   4   5
HETATM    5  C   UNL     1     -42.589  60.219 -56.719  1.00  0.00     0.248 C 
HETATM    6  N   UNL     1     -43.465  60.277 -55.650  1.00  0.00    -0.326 N 
HETATM    7  H   UNL     1     -44.441  60.472 -55.824  1.00  0.00     0.169 HD
HETATM    8  O   UNL     1     -41.363  60.253 -56.671  1.00  0.00    -0.271 OA
BRANCH   6   9
HETATM    9  C   UNL     1     -43.134  60.185 -54.278  1.00  0.00     0.035 A 
HETATM   10  C   UNL     1     -42.863  58.983 -53.616  1.00  0.00     0.043 A 
HETATM   11  C   UNL     1     -42.606  58.954 -52.231  1.00  0.00    -0.005 A 
HETATM   12  C   UNL     1     -42.599  60.167 -51.527  1.00  0.00     0.014 A 
HETATM   13  C   UNL     1     -42.860  61.371 -52.182  1.00  0.00     0.003 A 
HETATM   14  C   UNL     1     -43.138  61.377 -53.547  1.00  0.00     0.029 A 
BRANCH  11  15
HETATM   15  C   UNL     1     -42.377  57.667 -51.569  1.00  0.00     0.074 A 
HETATM   16  C   UNL     1     -41.293  57.368 -50.764  1.00  0.00     0.084 A 
HETATM   17  S   UNL     1     -41.405  55.760 -50.179  1.00  0.00    -0.085 SA
HETATM   18  C   UNL     1     -42.886  55.571 -51.024  1.00  0.00     0.071 A 
HETATM   19  C   UNL     1     -43.623  54.280 -50.970  1.00  0.00     0.078 C 
HETATM   20  N   UNL     1     -43.286  56.624 -51.706  1.00  0.00    -0.245 NA
ENDBRANCH  11  15
ENDBRANCH   6   9
ENDBRANCH   4   5
ENDBRANCH   1   4
BRANCH   1  21
HETATM   21  C   UNL     1     -44.095  57.696 -57.861  1.00  0.00     0.337 C 
BRANCH  21  22
HETATM   22  C   UNL     1     -43.250  56.494 -57.423  1.00  0.00     0.248 C 
HETATM   23  N   UNL     1     -43.050  56.409 -56.055  1.00  0.00    -0.326 N 
HETATM   24  H   UNL     1     -43.305  57.200 -55.471  1.00  0.00     0.169 HD
HETATM   25  O   UNL     1     -42.858  55.693 -58.263  1.00  0.00    -0.271 OA
BRANCH  23  26
HETATM   26  C   UNL     1     -42.353  55.382 -55.373  1.00  0.00     0.034 A 
HETATM   27  C   UNL     1     -42.928  54.177 -54.972  1.00  0.00     0.032 A 
HETATM   28  C   UNL     1     -42.158  53.206 -54.321  1.00  0.00     0.039 A 
HETATM   29  C   UNL     1     -40.803  53.415 -54.061  1.00  0.00     0.078 A 
HETATM   30  C   UNL     1     -40.230  54.628 -54.436  1.00  0.00     0.039 A 
HETATM   31  C   UNL     1     -41.000  55.604 -55.086  1.00  0.00     0.032 A 
BRANCH  29  32
HETATM   32  O   UNL     1     -40.177  52.373 -53.443  1.00  0.00    -0.255 OA
BRANCH  32  33
HETATM   33  C   UNL     1     -40.067  52.411 -52.029  1.00  0.00     0.530 C 
HETATM   34  F   UNL     1     -39.413  51.326 -51.562  1.00  0.00    -0.144 F 
HETATM   35  F   UNL     1     -39.424  53.529 -51.631  1.00  0.00    -0.144 F 
HETATM   36  F   UNL     1     -41.307  52.422 -51.496  1.00  0.00    -0.144 F 
ENDBRANCH  32  33
ENDBRANCH  29  32
ENDBRANCH  23  26
ENDBRANCH  21  22
ENDBRANCH   1  21
TORSDOF 9
ENDMDL
MODEL 10
REMARK VINA RESULT:      -7.6      6.185      9.885
REMARK  9 active torsions:
REMARK  status: ('A' for Active; 'I' for Inactive)
REMARK    1  A    between atoms: C_5  and  C_6 
REMARK    2  A    between atoms: C_8  and  N_9 
REMARK       I    between atoms: N_9  and  C_10 
REMARK    3  A    between atoms: C_10  and  C_11 
REMARK    4  A    between atoms: C_11  and  N_12 
REMARK    5  A    between atoms: N_12  and  C_14 
REMARK    6  A    between atoms: C_14  and  C_15 
REMARK       I    between atoms: C_15  and  N_16 
REMARK    7  A    between atoms: N_16  and  C_17 
REMARK    8  A    between atoms: C_20  and  O_21 
REMARK    9  A    between atoms: O_21  and  C_22 
ROOT
HETATM    1  N   UNL     1     -43.825  58.765 -52.023  1.00  0.00    -0.058 N 
HETATM    2  H   UNL     1     -42.873  58.891 -52.385  1.00  0.00     0.280 HD
HETATM    3  C   UNL     1     -44.704  58.849 -53.252  1.00  0.00     0.270 C 
ENDROOT
BRANCH   1   4
HETATM    4  C   UNL     1     -44.041  59.932 -51.052  1.00  0.00     0.337 C 
BRANCH   4   5
HETATM    5  C   UNL     1     -45.483  60.409 -50.850  1.00  0.00     0.248 C 
HETATM    6  N   UNL     1     -45.750  61.647 -51.405  1.00  0.00    -0.326 N 
HETATM    7  H   UNL     1     -44.978  62.233 -51.693  1.00  0.00     0.169 HD
HETATM    8  O   UNL     1     -46.262  59.698 -50.222  1.00  0.00    -0.271 OA
BRANCH   6   9
HETATM    9  C   UNL     1     -47.017  62.259 -51.540  1.00  0.00     0.035 A 
HETATM   10  C   UNL     1     -47.891  62.024 -52.607  1.00  0.00     0.043 A 
HETATM   11  C   UNL     1     -49.112  62.719 -52.717  1.00  0.00    -0.005 A 
HETATM   12  C   UNL     1     -49.451  63.638 -51.713  1.00  0.00     0.014 A 
HETATM   13  C   UNL     1     -48.589  63.872 -50.642  1.00  0.00     0.003 A 
HETATM   14  C   UNL     1     -47.374  63.195 -50.564  1.00  0.00     0.029 A 
BRANCH  11  15
HETATM   15  C   UNL     1     -49.974  62.479 -53.877  1.00  0.00     0.074 A 
HETATM   16  C   UNL     1     -49.829  63.081 -55.113  1.00  0.00     0.084 A 
HETATM   17  S   UNL     1     -51.035  62.522 -56.198  1.00  0.00    -0.085 SA
HETATM   18  C   UNL     1     -51.662  61.514 -54.959  1.00  0.00     0.071 A 
HETATM   19  C   UNL     1     -52.850  60.656 -55.217  1.00  0.00     0.078 C 
HETATM   20  N   UNL     1     -51.031  61.578 -53.806  1.00  0.00    -0.245 NA
ENDBRANCH  11  15
ENDBRANCH   6   9
ENDBRANCH   4   5
ENDBRANCH   1   4
BRANCH   1  21
HETATM   21  C   UNL     1     -43.829  57.387 -51.359  1.00  0.00     0.337 C 
BRANCH  21  22
HETATM   22  C   UNL     1     -42.595  56.519 -51.634  1.00  0.00     0.248 C 
HETATM   23  N   UNL     1     -42.889  55.251 -52.108  1.00  0.00    -0.326 N 
HETATM   24  H   UNL     1     -43.849  54.924 -52.075  1.00  0.00     0.169 HD
HETATM   25  O   UNL     1     -41.477  56.990 -51.469  1.00  0.00    -0.271 OA
BRANCH  23  26
HETATM   26  C   UNL     1     -41.949  54.262 -52.488  1.00  0.00     0.034 A 
HETATM   27  C   UNL     1     -41.196  53.509 -51.589  1.00  0.00     0.032 A 
HETATM   28  C   UNL     1     -40.304  52.534 -52.052  1.00  0.00     0.039 A 
HETATM   29  C   UNL     1     -40.149  52.291 -53.417  1.00  0.00     0.078 A 
HETATM   30  C   UNL     1     -40.879  53.058 -54.321  1.00  0.00     0.039 A 
HETATM   31  C   UNL     1     -41.771  54.037 -53.859  1.00  0.00     0.032 A 
BRANCH  29  32
HETATM   32  O   UNL     1     -39.264  51.297 -53.718  1.00  0.00    -0.255 OA
BRANCH  32  33
HETATM   33  C   UNL     1     -39.785  50.003 -53.978  1.00  0.00     0.530 C 
HETATM   34  F   UNL     1     -41.033  50.075 -54.488  1.00  0.00    -0.144 F 
HETATM   35  F   UNL     1     -38.988  49.332 -54.837  1.00  0.00    -0.144 F 
HETATM   36  F   UNL     1     -39.838  49.313 -52.819  1.00  0.00    -0.144 F 
ENDBRANCH  32  33
ENDBRANCH  29  32
ENDBRANCH  23  26
ENDBRANCH  21  22
ENDBRANCH   1  21
TORSDOF 9
ENDMDL
