MODEL 1
REMARK VINA RESULT:      -7.3      0.000      0.000
REMARK  4 active torsions:
REMARK  status: ('A' for Active; 'I' for Inactive)
REMARK    1  A    between atoms: C_5  and  N_6 
REMARK    2  A    between atoms: N_9  and  C_11 
REMARK    3  A    between atoms: C_11  and  C_12 
REMARK    4  A    between atoms: C_13  and  O_14 
ROOT
HETATM    1  N   UNL     1     -42.388  55.717 -50.628  1.00  0.00    -0.363 N 
HETATM    2  C   UNL     1     -43.783  56.059 -50.932  1.00  0.00     0.152 C 
HETATM    3  C   UNL     1     -43.956  57.266 -51.876  1.00  0.00     0.255 C 
HETATM    4  N   UNL     1     -43.525  58.538 -51.154  1.00  0.00    -0.066 N 
HETATM    5  H   UNL     1     -43.613  58.335 -50.152  1.00  0.00     0.280 HD
HETATM    6  C   UNL     1     -42.081  58.912 -51.362  1.00  0.00     0.237 C 
HETATM    7  C   UNL     1     -41.095  57.763 -51.168  1.00  0.00     0.047 C 
HETATM    8  C   UNL     1     -41.473  56.736 -50.104  1.00  0.00     0.126 C 
ENDROOT
BRANCH   4   9
HETATM    9  C   UNL     1     -44.476  59.709 -51.331  1.00  0.00     0.276 C 
BRANCH   9  10
HETATM   10  C   UNL     1     -44.549  60.715 -50.215  1.00  0.00     0.002 A 
HETATM   11  C   UNL     1     -45.270  60.441 -49.043  1.00  0.00     0.091 A 
HETATM   12  C   UNL     1     -45.379  61.392 -48.023  1.00  0.00     0.044 A 
HETATM   13 BR   UNL     1     -46.360  61.013 -46.449  1.00  0.00    -0.048 Br
HETATM   14  C   UNL     1     -44.766  62.634 -48.160  1.00  0.00     0.022 A 
HETATM   15  C   UNL     1     -44.043  62.921 -49.316  1.00  0.00     0.002 A 
HETATM   16  C   UNL     1     -43.934  61.971 -50.337  1.00  0.00     0.012 A 
BRANCH  11  17
HETATM   17  O   UNL     1     -45.865  59.211 -48.928  1.00  0.00    -0.359 OA
HETATM   18  H   UNL     1     -45.338  58.695 -48.283  1.00  0.00     0.218 HD
ENDBRANCH  11  17
ENDBRANCH   9  10
ENDBRANCH   4   9
BRANCH   1  19
HETATM   19  C   UNL     1     -41.829  54.780 -51.517  1.00  0.00     0.147 A 
HETATM   20  N   UNL     1     -42.425  54.539 -52.704  1.00  0.00    -0.132 NA
HETATM   21  N   UNL     1     -41.921  53.606 -53.581  1.00  0.00    -0.153 NA
HETATM   22  C   UNL     1     -40.820  52.901 -53.256  1.00  0.00     0.053 A 
HETATM   23  C   UNL     1     -40.339  51.861 -54.218  1.00  0.00     0.072 C 
HETATM   24  C   UNL     1     -40.172  53.116 -52.053  1.00  0.00     0.032 A 
HETATM   25  C   UNL     1     -40.684  54.070 -51.177  1.00  0.00     0.054 A 
ENDBRANCH   1  19
TORSDOF 4
ENDMDL
MODEL 2
REMARK VINA RESULT:      -7.1      5.573      7.129
REMARK  4 active torsions:
REMARK  status: ('A' for Active; 'I' for Inactive)
REMARK    1  A    between atoms: C_5  and  N_6 
REMARK    2  A    between atoms: N_9  and  C_11 
REMARK    3  A    between atoms: C_11  and  C_12 
REMARK    4  A    between atoms: C_13  and  O_14 
ROOT
HETATM    1  N   UNL     1     -43.019  54.907 -53.797  1.00  0.00    -0.363 N 
HETATM    2  C   UNL     1     -43.058  55.056 -55.258  1.00  0.00     0.152 C 
HETATM    3  C   UNL     1     -42.130  56.154 -55.816  1.00  0.00     0.255 C 
HETATM    4  N   UNL     1     -42.660  57.522 -55.399  1.00  0.00    -0.066 N 
HETATM    5  H   UNL     1     -43.660  57.390 -55.213  1.00  0.00     0.280 HD
HETATM    6  C   UNL     1     -42.079  58.048 -54.113  1.00  0.00     0.237 C 
HETATM    7  C   UNL     1     -42.075  57.044 -52.963  1.00  0.00     0.047 C 
HETATM    8  C   UNL     1     -43.248  56.067 -52.930  1.00  0.00     0.126 C 
ENDROOT
BRANCH   4   9
HETATM    9  C   UNL     1     -42.671  58.553 -56.515  1.00  0.00     0.276 C 
BRANCH   9  10
HETATM   10  C   UNL     1     -43.021  58.073 -57.896  1.00  0.00     0.002 A 
HETATM   11  C   UNL     1     -44.313  57.616 -58.194  1.00  0.00     0.091 A 
HETATM   12  C   UNL     1     -44.630  57.125 -59.465  1.00  0.00     0.044 A 
HETATM   13 BR   UNL     1     -46.377  56.505 -59.854  1.00  0.00    -0.048 Br
HETATM   14  C   UNL     1     -43.658  57.087 -60.460  1.00  0.00     0.022 A 
HETATM   15  C   UNL     1     -42.369  57.540 -60.182  1.00  0.00     0.002 A 
HETATM   16  C   UNL     1     -42.052  58.030 -58.911  1.00  0.00     0.012 A 
BRANCH  11  17
HETATM   17  O   UNL     1     -45.257  57.664 -57.200  1.00  0.00    -0.359 OA
HETATM   18  H   UNL     1     -46.129  57.522 -57.625  1.00  0.00     0.218 HD
ENDBRANCH  11  17
ENDBRANCH   9  10
ENDBRANCH   4   9
BRANCH   1  19
HETATM   19  C   UNL     1     -42.065  53.976 -53.348  1.00  0.00     0.147 A 
HETATM   20  N   UNL     1     -41.813  53.852 -52.028  1.00  0.00    -0.132 NA
HETATM   21  N   UNL     1     -40.864  52.973 -51.559  1.00  0.00    -0.153 NA
HETATM   22  C   UNL     1     -40.154  52.223 -52.425  1.00  0.00     0.053 A 
HETATM   23  C   UNL     1     -39.097  51.319 -51.875  1.00  0.00     0.072 C 
HETATM   24  C   UNL     1     -40.380  52.311 -53.787  1.00  0.00     0.032 A 
HETATM   25  C   UNL     1     -41.351  53.197 -54.250  1.00  0.00     0.054 A 
ENDBRANCH   1  19
TORSDOF 4
ENDMDL
MODEL 3
REMARK VINA RESULT:      -7.1      3.794      8.296
REMARK  4 active torsions:
REMARK  status: ('A' for Active; 'I' for Inactive)
REMARK    1  A    between atoms: C_5  and  N_6 
REMARK    2  A    between atoms: N_9  and  C_11 
REMARK    3  A    between atoms: C_11  and  C_12 
REMARK    4  A    between atoms: C_13  and  O_14 
ROOT
HETATM    1  N   UNL     1     -43.228  59.324 -51.857  1.00  0.00    -0.363 N 
HETATM    2  C   UNL     1     -43.737  57.956 -52.025  1.00  0.00     0.152 C 
HETATM    3  C   UNL     1     -43.191  56.939 -51.003  1.00  0.00     0.255 C 
HETATM    4  N   UNL     1     -41.709  56.702 -51.269  1.00  0.00    -0.066 N 
HETATM    5  H   UNL     1     -41.558  56.950 -52.252  1.00  0.00     0.280 HD
HETATM    6  C   UNL     1     -40.786  57.594 -50.483  1.00  0.00     0.237 C 
HETATM    7  C   UNL     1     -41.159  59.074 -50.514  1.00  0.00     0.047 C 
HETATM    8  C   UNL     1     -41.785  59.575 -51.813  1.00  0.00     0.126 C 
ENDROOT
BRANCH   4   9
HETATM    9  C   UNL     1     -41.296  55.240 -51.237  1.00  0.00     0.276 C 
BRANCH   9  10
HETATM   10  C   UNL     1     -40.949  54.591 -52.548  1.00  0.00     0.002 A 
HETATM   11  C   UNL     1     -40.586  53.237 -52.608  1.00  0.00     0.091 A 
HETATM   12  C   UNL     1     -40.217  52.642 -53.819  1.00  0.00     0.044 A 
HETATM   13 BR   UNL     1     -39.722  50.815 -53.887  1.00  0.00    -0.048 Br
HETATM   14  C   UNL     1     -40.209  53.392 -54.991  1.00  0.00     0.022 A 
HETATM   15  C   UNL     1     -40.571  54.738 -54.950  1.00  0.00     0.002 A 
HETATM   16  C   UNL     1     -40.939  55.334 -53.739  1.00  0.00     0.012 A 
BRANCH  11  17
HETATM   17  O   UNL     1     -40.602  52.515 -51.443  1.00  0.00    -0.359 OA
HETATM   18  H   UNL     1     -41.219  52.969 -50.832  1.00  0.00     0.218 HD
ENDBRANCH  11  17
ENDBRANCH   9  10
ENDBRANCH   4   9
BRANCH   1  19
HETATM   19  C   UNL     1     -44.023  60.124 -51.017  1.00  0.00     0.147 A 
HETATM   20  N   UNL     1     -45.163  59.625 -50.493  1.00  0.00    -0.132 NA
HETATM   21  N   UNL     1     -45.979  60.392 -49.694  1.00  0.00    -0.153 NA
HETATM   22  C   UNL     1     -45.654  61.673 -49.430  1.00  0.00     0.053 A 
HETATM   23  C   UNL     1     -46.596  62.485 -48.599  1.00  0.00     0.072 C 
HETATM   24  C   UNL     1     -44.493  62.227 -49.940  1.00  0.00     0.032 A 
HETATM   25  C   UNL     1     -43.669  61.438 -50.740  1.00  0.00     0.054 A 
ENDBRANCH   1  19
TORSDOF 4
ENDMDL
MODEL 4
REMARK VINA RESULT:      -6.9      5.865      7.945
REMARK  4 active torsions:
REMARK  status: ('A' for Active; 'I' for Inactive)
REMARK    1  A    between atoms: C_5  and  N_6 
REMARK    2  A    between atoms: N_9  and  C_11 
REMARK    3  A    between atoms: C_11  and  C_12 
REMARK    4  A    between atoms: C_13  and  O_14 
ROOT
HETATM    1  N   UNL     1     -43.450  54.974 -53.825  1.00  0.00    -0.363 N 
HETATM    2  C   UNL     1     -43.120  54.280 -55.077  1.00  0.00     0.152 C 
HETATM    3  C   UNL     1     -42.148  55.047 -55.997  1.00  0.00     0.255 C 
HETATM    4  N   UNL     1     -42.850  56.279 -56.558  1.00  0.00    -0.066 N 
HETATM    5  H   UNL     1     -43.854  56.076 -56.509  1.00  0.00     0.280 HD
HETATM    6  C   UNL     1     -42.654  57.530 -55.743  1.00  0.00     0.237 C 
HETATM    7  C   UNL     1     -42.886  57.352 -54.244  1.00  0.00     0.047 C 
HETATM    8  C   UNL     1     -43.966  56.345 -53.854  1.00  0.00     0.126 C 
ENDROOT
BRANCH   4   9
HETATM    9  C   UNL     1     -42.635  56.497 -58.046  1.00  0.00     0.276 C 
BRANCH   9  10
HETATM   10  C   UNL     1     -43.808  56.258 -58.956  1.00  0.00     0.002 A 
HETATM   11  C   UNL     1     -44.777  57.252 -59.158  1.00  0.00     0.091 A 
HETATM   12  C   UNL     1     -45.894  57.017 -59.967  1.00  0.00     0.044 A 
HETATM   13 BR   UNL     1     -47.200  58.364 -60.228  1.00  0.00    -0.048 Br
HETATM   14  C   UNL     1     -46.057  55.783 -60.589  1.00  0.00     0.022 A 
HETATM   15  C   UNL     1     -45.101  54.786 -60.402  1.00  0.00     0.002 A 
HETATM   16  C   UNL     1     -43.985  55.020 -59.592  1.00  0.00     0.012 A 
BRANCH  11  17
HETATM   17  O   UNL     1     -44.597  58.462 -58.538  1.00  0.00    -0.359 OA
HETATM   18  H   UNL     1     -44.618  59.149 -59.236  1.00  0.00     0.218 HD
ENDBRANCH  11  17
ENDBRANCH   9  10
ENDBRANCH   4   9
BRANCH   1  19
HETATM   19  C   UNL     1     -42.590  54.656 -52.759  1.00  0.00     0.147 A 
HETATM   20  N   UNL     1     -42.792  55.206 -51.543  1.00  0.00    -0.132 NA
HETATM   21  N   UNL     1     -41.950  54.941 -50.488  1.00  0.00    -0.153 NA
HETATM   22  C   UNL     1     -40.890  54.127 -50.660  1.00  0.00     0.053 A 
HETATM   23  C   UNL     1     -39.972  53.908 -49.499  1.00  0.00     0.072 C 
HETATM   24  C   UNL     1     -40.644  53.536 -51.886  1.00  0.00     0.032 A 
HETATM   25  C   UNL     1     -41.509  53.803 -52.945  1.00  0.00     0.054 A 
ENDBRANCH   1  19
TORSDOF 4
ENDMDL
MODEL 5
REMARK VINA RESULT:      -6.9     18.729     20.617
REMARK  4 active torsions:
REMARK  status: ('A' for Active; 'I' for Inactive)
REMARK    1  A    between atoms: C_5  and  N_6 
REMARK    2  A    between atoms: N_9  and  C_11 
REMARK    3  A    between atoms: C_11  and  C_12 
REMARK    4  A    between atoms: C_13  and  O_14 
ROOT
HETATM    1  N   UNL     1     -34.734  39.427 -52.951  1.00  0.00    -0.363 N 
HETATM    2  C   UNL     1     -33.990  39.339 -54.214  1.00  0.00     0.152 C 
HETATM    3  C   UNL     1     -33.677  40.700 -54.868  1.00  0.00     0.255 C 
HETATM    4  N   UNL     1     -34.972  41.330 -55.370  1.00  0.00    -0.066 N 
HETATM    5  H   UNL     1     -35.627  40.553 -55.503  1.00  0.00     0.280 HD
HETATM    6  C   UNL     1     -35.637  42.251 -54.383  1.00  0.00     0.237 C 
HETATM    7  C   UNL     1     -35.769  41.680 -52.973  1.00  0.00     0.047 C 
HETATM    8  C   UNL     1     -35.994  40.173 -52.885  1.00  0.00     0.126 C 
ENDROOT
BRANCH   4   9
HETATM    9  C   UNL     1     -34.879  41.919 -56.767  1.00  0.00     0.276 C 
BRANCH   9  10
HETATM   10  C   UNL     1     -35.797  41.356 -57.817  1.00  0.00     0.002 A 
HETATM   11  C   UNL     1     -35.702  40.013 -58.211  1.00  0.00     0.091 A 
HETATM   12  C   UNL     1     -36.522  39.498 -59.221  1.00  0.00     0.044 A 
HETATM   13 BR   UNL     1     -36.380  37.685 -59.750  1.00  0.00    -0.048 Br
HETATM   14  C   UNL     1     -37.453  40.319 -59.850  1.00  0.00     0.022 A 
HETATM   15  C   UNL     1     -37.563  41.654 -59.467  1.00  0.00     0.002 A 
HETATM   16  C   UNL     1     -36.742  42.171 -58.458  1.00  0.00     0.012 A 
BRANCH  11  17
HETATM   17  O   UNL     1     -34.779  39.221 -57.578  1.00  0.00    -0.359 OA
HETATM   18  H   UNL     1     -35.100  38.297 -57.643  1.00  0.00     0.218 HD
ENDBRANCH  11  17
ENDBRANCH   9  10
ENDBRANCH   4   9
BRANCH   1  19
HETATM   19  C   UNL     1     -33.910  39.498 -51.813  1.00  0.00     0.147 A 
HETATM   20  N   UNL     1     -34.423  39.237 -50.592  1.00  0.00    -0.132 NA
HETATM   21  N   UNL     1     -33.652  39.329 -49.456  1.00  0.00    -0.153 NA
HETATM   22  C   UNL     1     -32.359  39.699 -49.548  1.00  0.00     0.053 A 
HETATM   23  C   UNL     1     -31.573  39.837 -48.283  1.00  0.00     0.072 C 
HETATM   24  C   UNL     1     -31.788  39.972 -50.777  1.00  0.00     0.032 A 
HETATM   25  C   UNL     1     -32.575  39.866 -51.921  1.00  0.00     0.054 A 
ENDBRANCH   1  19
TORSDOF 4
ENDMDL
MODEL 6
REMARK VINA RESULT:      -6.6      3.365      8.219
REMARK  4 active torsions:
REMARK  status: ('A' for Active; 'I' for Inactive)
REMARK    1  A    between atoms: C_5  and  N_6 
REMARK    2  A    between atoms: N_9  and  C_11 
REMARK    3  A    between atoms: C_11  and  C_12 
REMARK    4  A    between atoms: C_13  and  O_14 
ROOT
HETATM    1  N   UNL     1     -43.505  58.396 -51.331  1.00  0.00    -0.363 N 
HETATM    2  C   UNL     1     -42.055  58.409 -51.560  1.00  0.00     0.152 C 
HETATM    3  C   UNL     1     -41.635  58.168 -53.024  1.00  0.00     0.255 C 
HETATM    4  N   UNL     1     -41.947  56.726 -53.408  1.00  0.00    -0.066 N 
HETATM    5  H   UNL     1     -41.976  56.202 -52.527  1.00  0.00     0.280 HD
HETATM    6  C   UNL     1     -43.301  56.530 -54.037  1.00  0.00     0.237 C 
HETATM    7  C   UNL     1     -44.450  57.200 -53.288  1.00  0.00     0.047 C 
HETATM    8  C   UNL     1     -44.312  57.252 -51.768  1.00  0.00     0.126 C 
ENDROOT
BRANCH   4   9
HETATM    9  C   UNL     1     -40.831  56.026 -54.164  1.00  0.00     0.276 C 
BRANCH   9  10
HETATM   10  C   UNL     1     -40.582  54.578 -53.846  1.00  0.00     0.002 A 
HETATM   11  C   UNL     1     -40.598  54.119 -52.520  1.00  0.00     0.091 A 
HETATM   12  C   UNL     1     -40.321  52.782 -52.216  1.00  0.00     0.044 A 
HETATM   13 BR   UNL     1     -40.339  52.175 -50.422  1.00  0.00    -0.048 Br
HETATM   14  C   UNL     1     -40.026  51.882 -53.235  1.00  0.00     0.022 A 
HETATM   15  C   UNL     1     -40.009  52.320 -54.558  1.00  0.00     0.002 A 
HETATM   16  C   UNL     1     -40.285  53.657 -54.863  1.00  0.00     0.012 A 
BRANCH  11  17
HETATM   17  O   UNL     1     -40.893  55.021 -51.531  1.00  0.00    -0.359 OA
HETATM   18  H   UNL     1     -41.858  55.188 -51.572  1.00  0.00     0.218 HD
ENDBRANCH  11  17
ENDBRANCH   9  10
ENDBRANCH   4   9
BRANCH   1  19
HETATM   19  C   UNL     1     -44.108  59.661 -51.447  1.00  0.00     0.147 A 
HETATM   20  N   UNL     1     -43.376  60.722 -51.848  1.00  0.00    -0.132 NA
HETATM   21  N   UNL     1     -43.928  61.979 -51.941  1.00  0.00    -0.153 NA
HETATM   22  C   UNL     1     -45.222  62.173 -51.615  1.00  0.00     0.053 A 
HETATM   23  C   UNL     1     -45.765  63.565 -51.681  1.00  0.00     0.072 C 
HETATM   24  C   UNL     1     -46.013  61.116 -51.203  1.00  0.00     0.032 A 
HETATM   25  C   UNL     1     -45.446  59.845 -51.123  1.00  0.00     0.054 A 
ENDBRANCH   1  19
TORSDOF 4
ENDMDL
MODEL 7
REMARK VINA RESULT:      -6.6      6.191      7.857
REMARK  4 active torsions:
REMARK  status: ('A' for Active; 'I' for Inactive)
REMARK    1  A    between atoms: C_5  and  N_6 
REMARK    2  A    between atoms: N_9  and  C_11 
REMARK    3  A    between atoms: C_11  and  C_12 
REMARK    4  A    between atoms: C_13  and  O_14 
ROOT
HETATM    1  N   UNL     1     -43.546  55.346 -53.614  1.00  0.00    -0.363 N 
HETATM    2  C   UNL     1     -43.612  54.354 -54.695  1.00  0.00     0.152 C 
HETATM    3  C   UNL     1     -42.680  54.645 -55.888  1.00  0.00     0.255 C 
HETATM    4  N   UNL     1     -43.181  55.877 -56.633  1.00  0.00    -0.066 N 
HETATM    5  H   UNL     1     -44.179  55.953 -56.409  1.00  0.00     0.280 HD
HETATM    6  C   UNL     1     -42.568  57.173 -56.173  1.00  0.00     0.237 C 
HETATM    7  C   UNL     1     -42.556  57.365 -54.659  1.00  0.00     0.047 C 
HETATM    8  C   UNL     1     -43.742  56.770 -53.904  1.00  0.00     0.126 C 
ENDROOT
BRANCH   4   9
HETATM    9  C   UNL     1     -43.199  55.729 -58.145  1.00  0.00     0.276 C 
BRANCH   9  10
HETATM   10  C   UNL     1     -43.691  56.901 -58.949  1.00  0.00     0.002 A 
HETATM   11  C   UNL     1     -42.793  57.734 -59.631  1.00  0.00     0.091 A 
HETATM   12  C   UNL     1     -43.243  58.853 -60.341  1.00  0.00     0.044 A 
HETATM   13 BR   UNL     1     -42.020  59.975 -61.253  1.00  0.00    -0.048 Br
HETATM   14  C   UNL     1     -44.601  59.152 -60.382  1.00  0.00     0.022 A 
HETATM   15  C   UNL     1     -45.508  58.332 -59.713  1.00  0.00     0.002 A 
HETATM   16  C   UNL     1     -45.058  57.214 -59.001  1.00  0.00     0.012 A 
BRANCH  11  17
HETATM   17  O   UNL     1     -41.459  57.421 -59.580  1.00  0.00    -0.359 OA
HETATM   18  H   UNL     1     -41.303  56.717 -60.243  1.00  0.00     0.218 HD
ENDBRANCH  11  17
ENDBRANCH   9  10
ENDBRANCH   4   9
BRANCH   1  19
HETATM   19  C   UNL     1     -42.598  55.039 -52.622  1.00  0.00     0.147 A 
HETATM   20  N   UNL     1     -42.448  55.856 -51.557  1.00  0.00    -0.132 NA
HETATM   21  N   UNL     1     -41.508  55.601 -50.586  1.00  0.00    -0.153 NA
HETATM   22  C   UNL     1     -40.703  54.525 -50.692  1.00  0.00     0.053 A 
HETATM   23  C   UNL     1     -39.660  54.316 -49.640  1.00  0.00     0.072 C 
HETATM   24  C   UNL     1     -40.822  53.657 -51.762  1.00  0.00     0.032 A 
HETATM   25  C   UNL     1     -41.785  53.919 -52.735  1.00  0.00     0.054 A 
ENDBRANCH   1  19
TORSDOF 4
ENDMDL
MODEL 8
REMARK VINA RESULT:      -6.6     18.472     20.633
REMARK  4 active torsions:
REMARK  status: ('A' for Active; 'I' for Inactive)
REMARK    1  A    between atoms: C_5  and  N_6 
REMARK    2  A    between atoms: N_9  and  C_11 
REMARK    3  A    between atoms: C_11  and  C_12 
REMARK    4  A    between atoms: C_13  and  O_14 
ROOT
HETATM    1  N   UNL     1     -33.342  38.855 -50.684  1.00  0.00    -0.363 N 
HETATM    2  C   UNL     1     -32.987  39.844 -51.711  1.00  0.00     0.152 C 
HETATM    3  C   UNL     1     -33.793  41.157 -51.640  1.00  0.00     0.255 C 
HETATM    4  N   UNL     1     -35.242  40.882 -52.031  1.00  0.00    -0.066 N 
HETATM    5  H   UNL     1     -35.221  40.030 -52.600  1.00  0.00     0.280 HD
HETATM    6  C   UNL     1     -36.149  40.567 -50.871  1.00  0.00     0.237 C 
HETATM    7  C   UNL     1     -35.595  39.529 -49.898  1.00  0.00     0.047 C 
HETATM    8  C   UNL     1     -34.734  38.430 -50.517  1.00  0.00     0.126 C 
ENDROOT
BRANCH   4   9
HETATM    9  C   UNL     1     -35.833  41.899 -52.991  1.00  0.00     0.276 C 
BRANCH   9  10
HETATM   10  C   UNL     1     -35.774  41.579 -54.460  1.00  0.00     0.002 A 
HETATM   11  C   UNL     1     -36.287  40.371 -54.954  1.00  0.00     0.091 A 
HETATM   12  C   UNL     1     -36.192  40.048 -56.313  1.00  0.00     0.044 A 
HETATM   13 BR   UNL     1     -36.882  38.411 -56.968  1.00  0.00    -0.048 Br
HETATM   14  C   UNL     1     -35.585  40.934 -57.198  1.00  0.00     0.022 A 
HETATM   15  C   UNL     1     -35.074  42.140 -56.724  1.00  0.00     0.002 A 
HETATM   16  C   UNL     1     -35.167  42.462 -55.366  1.00  0.00     0.012 A 
BRANCH  11  17
HETATM   17  O   UNL     1     -36.883  39.513 -54.066  1.00  0.00    -0.359 OA
HETATM   18  H   UNL     1     -37.569  40.025 -53.588  1.00  0.00     0.218 HD
ENDBRANCH  11  17
ENDBRANCH   9  10
ENDBRANCH   4   9
BRANCH   1  19
HETATM   19  C   UNL     1     -32.580  38.964 -49.507  1.00  0.00     0.147 A 
HETATM   20  N   UNL     1     -31.444  39.694 -49.504  1.00  0.00    -0.132 NA
HETATM   21  N   UNL     1     -30.660  39.794 -48.378  1.00  0.00    -0.153 NA
HETATM   22  C   UNL     1     -31.013  39.145 -47.251  1.00  0.00     0.053 A 
HETATM   23  C   UNL     1     -30.104  39.240 -46.067  1.00  0.00     0.072 C 
HETATM   24  C   UNL     1     -32.171  38.390 -47.204  1.00  0.00     0.032 A 
HETATM   25  C   UNL     1     -32.962  38.303 -48.347  1.00  0.00     0.054 A 
ENDBRANCH   1  19
TORSDOF 4
ENDMDL
MODEL 9
REMARK VINA RESULT:      -6.5      3.517      8.175
REMARK  4 active torsions:
REMARK  status: ('A' for Active; 'I' for Inactive)
REMARK    1  A    between atoms: C_5  and  N_6 
REMARK    2  A    between atoms: N_9  and  C_11 
REMARK    3  A    between atoms: C_11  and  C_12 
REMARK    4  A    between atoms: C_13  and  O_14 
ROOT
HETATM    1  N   UNL     1     -44.425  59.758 -51.351  1.00  0.00    -0.363 N 
HETATM    2  C   UNL     1     -45.128  58.472 -51.449  1.00  0.00     0.152 C 
HETATM    3  C   UNL     1     -44.391  57.288 -50.791  1.00  0.00     0.255 C 
HETATM    4  N   UNL     1     -43.137  56.964 -51.595  1.00  0.00    -0.066 N 
HETATM    5  H   UNL     1     -43.308  57.325 -52.539  1.00  0.00     0.280 HD
HETATM    6  C   UNL     1     -41.894  57.666 -51.116  1.00  0.00     0.237 C 
HETATM    7  C   UNL     1     -42.066  59.163 -50.874  1.00  0.00     0.047 C 
HETATM    8  C   UNL     1     -43.038  59.880 -51.807  1.00  0.00     0.126 C 
ENDROOT
BRANCH   4   9
HETATM    9  C   UNL     1     -42.924  55.481 -51.849  1.00  0.00     0.276 C 
BRANCH   9  10
HETATM   10  C   UNL     1     -42.239  55.091 -53.130  1.00  0.00     0.002 A 
HETATM   11  C   UNL     1     -42.763  55.473 -54.373  1.00  0.00     0.091 A 
HETATM   12  C   UNL     1     -42.155  55.072 -55.567  1.00  0.00     0.044 A 
HETATM   13 BR   UNL     1     -42.876  55.590 -57.241  1.00  0.00    -0.048 Br
HETATM   14  C   UNL     1     -41.009  54.284 -55.535  1.00  0.00     0.022 A 
HETATM   15  C   UNL     1     -40.473  53.898 -54.308  1.00  0.00     0.002 A 
HETATM   16  C   UNL     1     -41.081  54.297 -53.114  1.00  0.00     0.012 A 
BRANCH  11  17
HETATM   17  O   UNL     1     -43.892  56.252 -54.383  1.00  0.00    -0.359 OA
HETATM   18  H   UNL     1     -43.754  56.950 -55.056  1.00  0.00     0.218 HD
ENDBRANCH  11  17
ENDBRANCH   9  10
ENDBRANCH   4   9
BRANCH   1  19
HETATM   19  C   UNL     1     -44.771  60.506 -50.210  1.00  0.00     0.147 A 
HETATM   20  N   UNL     1     -45.757  60.074 -49.395  1.00  0.00    -0.132 NA
HETATM   21  N   UNL     1     -46.140  60.797 -48.289  1.00  0.00    -0.153 NA
HETATM   22  C   UNL     1     -45.538  61.970 -48.009  1.00  0.00     0.053 A 
HETATM   23  C   UNL     1     -46.022  62.748 -46.827  1.00  0.00     0.072 C 
HETATM   24  C   UNL     1     -44.519  62.451 -48.812  1.00  0.00     0.032 A 
HETATM   25  C   UNL     1     -44.132  61.705 -49.923  1.00  0.00     0.054 A 
ENDBRANCH   1  19
TORSDOF 4
ENDMDL
MODEL 10
REMARK VINA RESULT:      -6.5      2.455      3.087
REMARK  4 active torsions:
REMARK  status: ('A' for Active; 'I' for Inactive)
REMARK    1  A    between atoms: C_5  and  N_6 
REMARK    2  A    between atoms: N_9  and  C_11 
REMARK    3  A    between atoms: C_11  and  C_12 
REMARK    4  A    between atoms: C_13  and  O_14 
ROOT
HETATM    1  N   UNL     1     -42.258  54.696 -51.936  1.00  0.00    -0.363 N 
HETATM    2  C   UNL     1     -42.421  55.823 -52.864  1.00  0.00     0.152 C 
HETATM    3  C   UNL     1     -41.338  56.915 -52.743  1.00  0.00     0.255 C 
HETATM    4  N   UNL     1     -41.503  57.644 -51.413  1.00  0.00    -0.066 N 
HETATM    5  H   UNL     1     -42.482  57.506 -51.138  1.00  0.00     0.280 HD
HETATM    6  C   UNL     1     -40.685  57.073 -50.286  1.00  0.00     0.237 C 
HETATM    7  C   UNL     1     -40.780  55.556 -50.140  1.00  0.00     0.047 C 
HETATM    8  C   UNL     1     -42.130  54.937 -50.496  1.00  0.00     0.126 C 
ENDROOT
BRANCH   4   9
HETATM    9  C   UNL     1     -41.405  59.157 -51.515  1.00  0.00     0.276 C 
BRANCH   9  10
HETATM   10  C   UNL     1     -42.483  59.869 -52.284  1.00  0.00     0.002 A 
HETATM   11  C   UNL     1     -43.801  59.915 -51.804  1.00  0.00     0.091 A 
HETATM   12  C   UNL     1     -44.816  60.536 -52.540  1.00  0.00     0.044 A 
HETATM   13 BR   UNL     1     -46.592  60.586 -51.885  1.00  0.00    -0.048 Br
HETATM   14  C   UNL     1     -44.527  61.124 -53.767  1.00  0.00     0.022 A 
HETATM   15  C   UNL     1     -43.223  61.091 -54.257  1.00  0.00     0.002 A 
HETATM   16  C   UNL     1     -42.207  60.469 -53.523  1.00  0.00     0.012 A 
BRANCH  11  17
HETATM   17  O   UNL     1     -44.064  59.331 -50.592  1.00  0.00    -0.359 OA
HETATM   18  H   UNL     1     -44.961  59.618 -50.323  1.00  0.00     0.218 HD
ENDBRANCH  11  17
ENDBRANCH   9  10
ENDBRANCH   4   9
BRANCH   1  19
HETATM   19  C   UNL     1     -41.492  53.639 -52.459  1.00  0.00     0.147 A 
HETATM   20  N   UNL     1     -41.710  53.209 -53.720  1.00  0.00    -0.132 NA
HETATM   21  N   UNL     1     -41.000  52.157 -54.251  1.00  0.00    -0.153 NA
HETATM   22  C   UNL     1     -40.074  51.524 -53.504  1.00  0.00     0.053 A 
HETATM   23  C   UNL     1     -39.364  50.352 -54.103  1.00  0.00     0.072 C 
HETATM   24  C   UNL     1     -39.812  51.931 -52.208  1.00  0.00     0.032 A 
HETATM   25  C   UNL     1     -40.530  53.004 -51.685  1.00  0.00     0.054 A 
ENDBRANCH   1  19
TORSDOF 4
ENDMDL
