MODEL 1
REMARK VINA RESULT:      -7.5      0.000      0.000
REMARK  9 active torsions:
REMARK  status: ('A' for Active; 'I' for Inactive)
REMARK    1  A    between atoms: C_2  and  O_3 
REMARK    2  A    between atoms: O_3  and  C_4 
REMARK    3  A    between atoms: C_5  and  O_6 
REMARK    4  A    between atoms: O_6  and  C_7 
REMARK    5  A    between atoms: C_7  and  C_8 
REMARK       I    between atoms: C_8  and  N_9 
REMARK    6  A    between atoms: N_9  and  C_10 
REMARK    7  A    between atoms: C_19  and  C_20 
REMARK    8  A    between atoms: C_21  and  C_22 
REMARK    9  A    between atoms: C_27  and  C_28 
ROOT
HETATM    1  C   UNL     1     -41.199  57.657 -51.313  1.00  0.00     0.102 A 
HETATM    2  C   UNL     1     -41.200  57.729 -52.720  1.00  0.00     0.102 A 
HETATM    3  C   UNL     1     -41.663  58.883 -53.355  1.00  0.00     0.040 A 
HETATM    4  C   UNL     1     -42.088  59.977 -52.598  1.00  0.00     0.014 A 
HETATM    5  C   UNL     1     -42.059  59.929 -51.202  1.00  0.00    -0.033 A 
HETATM    6  C   UNL     1     -41.636  58.756 -50.565  1.00  0.00     0.051 A 
ENDROOT
BRANCH   2   7
HETATM    7  O   UNL     1     -40.716  56.622 -53.376  1.00  0.00    -0.339 OA
BRANCH   7   8
HETATM    8  C   UNL     1     -41.653  55.712 -53.935  1.00  0.00     0.278 C 
BRANCH   8   9
HETATM    9  C   UNL     1     -41.663  54.300 -53.330  1.00  0.00     0.246 C 
HETATM   10  N   UNL     1     -40.498  53.600 -53.594  1.00  0.00    -0.325 N 
HETATM   11  H   UNL     1     -39.829  54.083 -54.188  1.00  0.00     0.169 HD
HETATM   12  O   UNL     1     -42.618  53.915 -52.661  1.00  0.00    -0.271 OA
BRANCH  10  13
HETATM   13  C   UNL     1     -40.174  52.282 -53.225  1.00  0.00     0.034 A 
HETATM   14  C   UNL     1     -39.831  51.895 -51.929  1.00  0.00     0.029 A 
HETATM   15  C   UNL     1     -39.530  50.559 -51.644  1.00  0.00     0.002 A 
HETATM   16  C   UNL     1     -39.566  49.600 -52.654  1.00  0.00     0.000 A 
HETATM   17  C   UNL     1     -39.906  49.976 -53.951  1.00  0.00     0.002 A 
HETATM   18  C   UNL     1     -40.208  51.311 -54.234  1.00  0.00     0.029 A 
ENDBRANCH  10  13
ENDBRANCH   8   9
ENDBRANCH   7   8
ENDBRANCH   2   7
BRANCH   1  19
HETATM   19  O   UNL     1     -40.708  56.494 -50.773  1.00  0.00    -0.349 OA
BRANCH  19  20
HETATM   20  C   UNL     1     -41.553  55.776 -49.876  1.00  0.00     0.171 C 
HETATM   21  C   UNL     1     -40.739  54.646 -49.270  1.00  0.00     0.034 C 
ENDBRANCH  19  20
ENDBRANCH   1  19
BRANCH   5  22
HETATM   22  C   UNL     1     -42.460  61.079 -50.386  1.00  0.00     0.014 C 
HETATM   23  C   UNL     1     -43.684  61.181 -49.840  1.00  0.00     0.035 C 
BRANCH  23  24
HETATM   24  C   UNL     1     -44.154  62.303 -49.078  1.00  0.00     0.091 A 
HETATM   25  N   UNL     1     -43.943  63.580 -49.440  1.00  0.00    -0.175 NA
HETATM   26  N   UNL     1     -44.544  64.306 -48.491  1.00  0.00    -0.288 N 
HETATM   27  H   UNL     1     -44.508  65.318 -48.570  1.00  0.00     0.188 HD
HETATM   28  C   UNL     1     -45.140  63.554 -47.527  1.00  0.00     0.126 A 
HETATM   29  C   UNL     1     -44.907  62.235 -47.868  1.00  0.00     0.049 A 
BRANCH  29  30
HETATM   30  C   UNL     1     -45.367  61.095 -47.103  1.00  0.00     0.273 C 
HETATM   31  O   UNL     1     -46.091  60.207 -47.540  1.00  0.00    -0.301 OA
ENDBRANCH  29  30
ENDBRANCH  23  24
ENDBRANCH   5  22
TORSDOF 9
ENDMDL
MODEL 2
REMARK VINA RESULT:      -7.3      4.170      9.053
REMARK  9 active torsions:
REMARK  status: ('A' for Active; 'I' for Inactive)
REMARK    1  A    between atoms: C_2  and  O_3 
REMARK    2  A    between atoms: O_3  and  C_4 
REMARK    3  A    between atoms: C_5  and  O_6 
REMARK    4  A    between atoms: O_6  and  C_7 
REMARK    5  A    between atoms: C_7  and  C_8 
REMARK       I    between atoms: C_8  and  N_9 
REMARK    6  A    between atoms: N_9  and  C_10 
REMARK    7  A    between atoms: C_19  and  C_20 
REMARK    8  A    between atoms: C_21  and  C_22 
REMARK    9  A    between atoms: C_27  and  C_28 
ROOT
HETATM    1  C   UNL     1     -43.335  56.990 -52.866  1.00  0.00     0.102 A 
HETATM    2  C   UNL     1     -42.496  57.557 -53.847  1.00  0.00     0.102 A 
HETATM    3  C   UNL     1     -41.316  56.905 -54.211  1.00  0.00     0.040 A 
HETATM    4  C   UNL     1     -40.988  55.676 -53.634  1.00  0.00     0.014 A 
HETATM    5  C   UNL     1     -41.830  55.088 -52.687  1.00  0.00    -0.033 A 
HETATM    6  C   UNL     1     -42.991  55.763 -52.289  1.00  0.00     0.051 A 
ENDROOT
BRANCH   2   7
HETATM    7  O   UNL     1     -42.929  58.742 -54.391  1.00  0.00    -0.339 OA
BRANCH   7   8
HETATM    8  C   UNL     1     -42.904  58.879 -55.805  1.00  0.00     0.278 C 
BRANCH   8   9
HETATM    9  C   UNL     1     -43.943  58.054 -56.579  1.00  0.00     0.246 C 
HETATM   10  N   UNL     1     -43.433  57.525 -57.753  1.00  0.00    -0.325 N 
HETATM   11  H   UNL     1     -42.477  57.794 -57.969  1.00  0.00     0.169 HD
HETATM   12  O   UNL     1     -45.072  57.889 -56.126  1.00  0.00    -0.271 OA
BRANCH  10  13
HETATM   13  C   UNL     1     -44.101  56.749 -58.718  1.00  0.00     0.034 A 
HETATM   14  C   UNL     1     -43.718  55.459 -59.085  1.00  0.00     0.029 A 
HETATM   15  C   UNL     1     -44.442  54.751 -60.051  1.00  0.00     0.002 A 
HETATM   16  C   UNL     1     -45.555  55.330 -60.657  1.00  0.00     0.000 A 
HETATM   17  C   UNL     1     -45.945  56.617 -60.298  1.00  0.00     0.002 A 
HETATM   18  C   UNL     1     -45.221  57.323 -59.334  1.00  0.00     0.029 A 
ENDBRANCH  10  13
ENDBRANCH   8   9
ENDBRANCH   7   8
ENDBRANCH   2   7
BRANCH   1  19
HETATM   19  O   UNL     1     -44.483  57.688 -52.584  1.00  0.00    -0.349 OA
BRANCH  19  20
HETATM   20  C   UNL     1     -44.990  57.612 -51.253  1.00  0.00     0.171 C 
HETATM   21  C   UNL     1     -45.293  59.025 -50.787  1.00  0.00     0.034 C 
ENDBRANCH  19  20
ENDBRANCH   1  19
BRANCH   5  22
HETATM   22  C   UNL     1     -41.528  53.780 -52.099  1.00  0.00     0.014 C 
HETATM   23  C   UNL     1     -40.415  53.092 -52.407  1.00  0.00     0.035 C 
BRANCH  23  24
HETATM   24  C   UNL     1     -40.090  51.786 -51.908  1.00  0.00     0.091 A 
HETATM   25  N   UNL     1     -40.072  51.481 -50.600  1.00  0.00    -0.175 NA
HETATM   26  N   UNL     1     -39.745  50.186 -50.557  1.00  0.00    -0.288 N 
HETATM   27  H   UNL     1     -39.675  49.740 -49.647  1.00  0.00     0.188 HD
HETATM   28  C   UNL     1     -39.551  49.634 -51.785  1.00  0.00     0.126 A 
HETATM   29  C   UNL     1     -39.762  50.646 -52.701  1.00  0.00     0.049 A 
BRANCH  29  30
HETATM   30  C   UNL     1     -39.653  50.492 -54.136  1.00  0.00     0.273 C 
HETATM   31  O   UNL     1     -39.720  49.421 -54.731  1.00  0.00    -0.301 OA
ENDBRANCH  29  30
ENDBRANCH  23  24
ENDBRANCH   5  22
TORSDOF 9
ENDMDL
MODEL 3
REMARK VINA RESULT:      -7.2      4.464      6.434
REMARK  9 active torsions:
REMARK  status: ('A' for Active; 'I' for Inactive)
REMARK    1  A    between atoms: C_2  and  O_3 
REMARK    2  A    between atoms: O_3  and  C_4 
REMARK    3  A    between atoms: C_5  and  O_6 
REMARK    4  A    between atoms: O_6  and  C_7 
REMARK    5  A    between atoms: C_7  and  C_8 
REMARK       I    between atoms: C_8  and  N_9 
REMARK    6  A    between atoms: N_9  and  C_10 
REMARK    7  A    between atoms: C_19  and  C_20 
REMARK    8  A    between atoms: C_21  and  C_22 
REMARK    9  A    between atoms: C_27  and  C_28 
ROOT
HETATM    1  C   UNL     1     -41.617  56.338 -51.135  1.00  0.00     0.102 A 
HETATM    2  C   UNL     1     -41.991  55.193 -50.403  1.00  0.00     0.102 A 
HETATM    3  C   UNL     1     -42.910  54.293 -50.947  1.00  0.00     0.040 A 
HETATM    4  C   UNL     1     -43.428  54.507 -52.227  1.00  0.00     0.014 A 
HETATM    5  C   UNL     1     -43.037  55.621 -52.974  1.00  0.00    -0.033 A 
HETATM    6  C   UNL     1     -42.149  56.547 -52.412  1.00  0.00     0.051 A 
ENDROOT
BRANCH   2   7
HETATM    7  O   UNL     1     -41.391  55.044 -49.176  1.00  0.00    -0.339 OA
BRANCH   7   8
HETATM    8  C   UNL     1     -40.228  54.232 -49.093  1.00  0.00     0.278 C 
BRANCH   8   9
HETATM    9  C   UNL     1     -40.307  52.869 -49.796  1.00  0.00     0.246 C 
HETATM   10  N   UNL     1     -39.868  52.922 -51.108  1.00  0.00    -0.325 N 
HETATM   11  H   UNL     1     -39.610  53.847 -51.441  1.00  0.00     0.169 HD
HETATM   12  O   UNL     1     -40.691  51.874 -49.187  1.00  0.00    -0.271 OA
BRANCH  10  13
HETATM   13  C   UNL     1     -39.829  51.880 -52.053  1.00  0.00     0.034 A 
HETATM   14  C   UNL     1     -39.489  50.562 -51.749  1.00  0.00     0.029 A 
HETATM   15  C   UNL     1     -39.482  49.583 -52.748  1.00  0.00     0.002 A 
HETATM   16  C   UNL     1     -39.813  49.916 -54.060  1.00  0.00     0.000 A 
HETATM   17  C   UNL     1     -40.153  51.229 -54.374  1.00  0.00     0.002 A 
HETATM   18  C   UNL     1     -40.160  52.206 -53.375  1.00  0.00     0.029 A 
ENDBRANCH  10  13
ENDBRANCH   8   9
ENDBRANCH   7   8
ENDBRANCH   2   7
BRANCH   1  19
HETATM   19  O   UNL     1     -40.694  57.158 -50.533  1.00  0.00    -0.349 OA
BRANCH  19  20
HETATM   20  C   UNL     1     -40.911  58.565 -50.613  1.00  0.00     0.171 C 
HETATM   21  C   UNL     1     -39.745  59.174 -51.371  1.00  0.00     0.034 C 
ENDBRANCH  19  20
ENDBRANCH   1  19
BRANCH   5  22
HETATM   22  C   UNL     1     -43.533  55.845 -54.335  1.00  0.00     0.014 C 
HETATM   23  C   UNL     1     -42.714  56.138 -55.360  1.00  0.00     0.035 C 
BRANCH  23  24
HETATM   24  C   UNL     1     -43.142  56.420 -56.700  1.00  0.00     0.091 A 
HETATM   25  N   UNL     1     -43.110  55.511 -57.690  1.00  0.00    -0.175 NA
HETATM   26  N   UNL     1     -43.599  56.152 -58.757  1.00  0.00    -0.288 N 
HETATM   27  H   UNL     1     -43.667  55.642 -59.632  1.00  0.00     0.188 HD
HETATM   28  C   UNL     1     -43.951  57.441 -58.501  1.00  0.00     0.126 A 
HETATM   29  C   UNL     1     -43.665  57.663 -57.167  1.00  0.00     0.049 A 
BRANCH  29  30
HETATM   30  C   UNL     1     -43.884  58.916 -56.477  1.00  0.00     0.273 C 
HETATM   31  O   UNL     1     -43.288  59.960 -56.720  1.00  0.00    -0.301 OA
ENDBRANCH  29  30
ENDBRANCH  23  24
ENDBRANCH   5  22
TORSDOF 9
ENDMDL
MODEL 4
REMARK VINA RESULT:      -7.2      2.281      3.152
REMARK  9 active torsions:
REMARK  status: ('A' for Active; 'I' for Inactive)
REMARK    1  A    between atoms: C_2  and  O_3 
REMARK    2  A    between atoms: O_3  and  C_4 
REMARK    3  A    between atoms: C_5  and  O_6 
REMARK    4  A    between atoms: O_6  and  C_7 
REMARK    5  A    between atoms: C_7  and  C_8 
REMARK       I    between atoms: C_8  and  N_9 
REMARK    6  A    between atoms: N_9  and  C_10 
REMARK    7  A    between atoms: C_19  and  C_20 
REMARK    8  A    between atoms: C_21  and  C_22 
REMARK    9  A    between atoms: C_27  and  C_28 
ROOT
HETATM    1  C   UNL     1     -42.250  59.570 -51.785  1.00  0.00     0.102 A 
HETATM    2  C   UNL     1     -42.124  60.239 -53.019  1.00  0.00     0.102 A 
HETATM    3  C   UNL     1     -42.781  61.455 -53.219  1.00  0.00     0.040 A 
HETATM    4  C   UNL     1     -43.529  62.026 -52.187  1.00  0.00     0.014 A 
HETATM    5  C   UNL     1     -43.632  61.388 -50.948  1.00  0.00    -0.033 A 
HETATM    6  C   UNL     1     -43.010  60.147 -50.761  1.00  0.00     0.051 A 
ENDROOT
BRANCH   2   7
HETATM    7  O   UNL     1     -41.327  59.623 -53.954  1.00  0.00    -0.339 OA
BRANCH   7   8
HETATM    8  C   UNL     1     -41.955  59.017 -55.076  1.00  0.00     0.278 C 
BRANCH   8   9
HETATM    9  C   UNL     1     -42.087  57.488 -55.029  1.00  0.00     0.246 C 
HETATM   10  N   UNL     1     -41.109  56.894 -54.250  1.00  0.00    -0.325 N 
HETATM   11  H   UNL     1     -40.416  57.531 -53.866  1.00  0.00     0.169 HD
HETATM   12  O   UNL     1     -43.009  56.923 -55.612  1.00  0.00    -0.271 OA
BRANCH  10  13
HETATM   13  C   UNL     1     -40.905  55.523 -54.007  1.00  0.00     0.034 A 
HETATM   14  C   UNL     1     -40.366  54.637 -54.941  1.00  0.00     0.029 A 
HETATM   15  C   UNL     1     -40.188  53.288 -54.617  1.00  0.00     0.002 A 
HETATM   16  C   UNL     1     -40.549  52.814 -53.357  1.00  0.00     0.000 A 
HETATM   17  C   UNL     1     -41.088  53.691 -52.419  1.00  0.00     0.002 A 
HETATM   18  C   UNL     1     -41.265  55.038 -52.743  1.00  0.00     0.029 A 
ENDBRANCH  10  13
ENDBRANCH   8   9
ENDBRANCH   7   8
ENDBRANCH   2   7
BRANCH   1  19
HETATM   19  O   UNL     1     -41.555  58.391 -51.668  1.00  0.00    -0.349 OA
BRANCH  19  20
HETATM   20  C   UNL     1     -40.657  58.262 -50.568  1.00  0.00     0.171 C 
HETATM   21  C   UNL     1     -39.488  59.200 -50.807  1.00  0.00     0.034 C 
ENDBRANCH  19  20
ENDBRANCH   1  19
BRANCH   5  22
HETATM   22  C   UNL     1     -44.376  61.987 -49.836  1.00  0.00     0.014 C 
HETATM   23  C   UNL     1     -45.333  61.320 -49.168  1.00  0.00     0.035 C 
BRANCH  23  24
HETATM   24  C   UNL     1     -46.131  61.867 -48.109  1.00  0.00     0.091 A 
HETATM   25  N   UNL     1     -47.281  62.530 -48.320  1.00  0.00    -0.175 NA
HETATM   26  N   UNL     1     -47.716  62.854 -47.098  1.00  0.00    -0.288 N 
HETATM   27  H   UNL     1     -48.588  63.369 -47.023  1.00  0.00     0.188 HD
HETATM   28  C   UNL     1     -46.898  62.427 -46.099  1.00  0.00     0.126 A 
HETATM   29  C   UNL     1     -45.844  61.779 -46.714  1.00  0.00     0.049 A 
BRANCH  29  30
HETATM   30  C   UNL     1     -44.732  61.170 -46.014  1.00  0.00     0.273 C 
HETATM   31  O   UNL     1     -44.833  60.507 -44.987  1.00  0.00    -0.301 OA
ENDBRANCH  29  30
ENDBRANCH  23  24
ENDBRANCH   5  22
TORSDOF 9
ENDMDL
MODEL 5
REMARK VINA RESULT:      -7.2      4.244      9.074
REMARK  9 active torsions:
REMARK  status: ('A' for Active; 'I' for Inactive)
REMARK    1  A    between atoms: C_2  and  O_3 
REMARK    2  A    between atoms: O_3  and  C_4 
REMARK    3  A    between atoms: C_5  and  O_6 
REMARK    4  A    between atoms: O_6  and  C_7 
REMARK    5  A    between atoms: C_7  and  C_8 
REMARK       I    between atoms: C_8  and  N_9 
REMARK    6  A    between atoms: N_9  and  C_10 
REMARK    7  A    between atoms: C_19  and  C_20 
REMARK    8  A    between atoms: C_21  and  C_22 
REMARK    9  A    between atoms: C_27  and  C_28 
ROOT
HETATM    1  C   UNL     1     -43.471  56.667 -53.183  1.00  0.00     0.102 A 
HETATM    2  C   UNL     1     -42.710  57.467 -54.059  1.00  0.00     0.102 A 
HETATM    3  C   UNL     1     -41.572  56.938 -54.671  1.00  0.00     0.040 A 
HETATM    4  C   UNL     1     -41.210  55.607 -54.446  1.00  0.00     0.014 A 
HETATM    5  C   UNL     1     -41.977  54.795 -53.607  1.00  0.00    -0.033 A 
HETATM    6  C   UNL     1     -43.093  55.338 -52.959  1.00  0.00     0.051 A 
ENDROOT
BRANCH   2   7
HETATM    7  O   UNL     1     -43.174  58.746 -54.254  1.00  0.00    -0.339 OA
BRANCH   7   8
HETATM    8  C   UNL     1     -43.468  59.157 -55.582  1.00  0.00     0.278 C 
BRANCH   8   9
HETATM    9  C   UNL     1     -44.383  58.222 -56.388  1.00  0.00     0.246 C 
HETATM   10  N   UNL     1     -43.779  57.754 -57.543  1.00  0.00    -0.325 N 
HETATM   11  H   UNL     1     -42.852  58.127 -57.728  1.00  0.00     0.169 HD
HETATM   12  O   UNL     1     -45.502  57.934 -55.973  1.00  0.00    -0.271 OA
BRANCH  10  13
HETATM   13  C   UNL     1     -44.325  56.910 -58.528  1.00  0.00     0.034 A 
HETATM   14  C   UNL     1     -45.472  57.210 -59.264  1.00  0.00     0.029 A 
HETATM   15  C   UNL     1     -45.946  56.318 -60.232  1.00  0.00     0.002 A 
HETATM   16  C   UNL     1     -45.276  55.119 -60.471  1.00  0.00     0.000 A 
HETATM   17  C   UNL     1     -44.132  54.812 -59.741  1.00  0.00     0.002 A 
HETATM   18  C   UNL     1     -43.659  55.703 -58.774  1.00  0.00     0.029 A 
ENDBRANCH  10  13
ENDBRANCH   8   9
ENDBRANCH   7   8
ENDBRANCH   2   7
BRANCH   1  19
HETATM   19  O   UNL     1     -44.584  57.262 -52.642  1.00  0.00    -0.349 OA
BRANCH  19  20
HETATM   20  C   UNL     1     -44.626  57.415 -51.225  1.00  0.00     0.171 C 
HETATM   21  C   UNL     1     -45.436  58.660 -50.913  1.00  0.00     0.034 C 
ENDBRANCH  19  20
ENDBRANCH   1  19
BRANCH   5  22
HETATM   22  C   UNL     1     -41.642  53.385 -53.389  1.00  0.00     0.014 C 
HETATM   23  C   UNL     1     -40.418  52.889 -53.638  1.00  0.00     0.035 C 
BRANCH  23  24
HETATM   24  C   UNL     1     -40.043  51.511 -53.496  1.00  0.00     0.091 A 
HETATM   25  N   UNL     1     -39.847  50.690 -54.542  1.00  0.00    -0.175 NA
HETATM   26  N   UNL     1     -39.500  49.520 -53.995  1.00  0.00    -0.288 N 
HETATM   27  H   UNL     1     -39.301  48.742 -54.617  1.00  0.00     0.188 HD
HETATM   28  C   UNL     1     -39.460  49.547 -52.635  1.00  0.00     0.126 A 
HETATM   29  C   UNL     1     -39.812  50.830 -52.264  1.00  0.00     0.049 A 
BRANCH  29  30
HETATM   30  C   UNL     1     -39.901  51.294 -50.895  1.00  0.00     0.273 C 
HETATM   31  O   UNL     1     -40.345  50.634 -49.962  1.00  0.00    -0.301 OA
ENDBRANCH  29  30
ENDBRANCH  23  24
ENDBRANCH   5  22
TORSDOF 9
ENDMDL
MODEL 6
REMARK VINA RESULT:      -7.2      1.932      2.391
REMARK  9 active torsions:
REMARK  status: ('A' for Active; 'I' for Inactive)
REMARK    1  A    between atoms: C_2  and  O_3 
REMARK    2  A    between atoms: O_3  and  C_4 
REMARK    3  A    between atoms: C_5  and  O_6 
REMARK    4  A    between atoms: O_6  and  C_7 
REMARK    5  A    between atoms: C_7  and  C_8 
REMARK       I    between atoms: C_8  and  N_9 
REMARK    6  A    between atoms: N_9  and  C_10 
REMARK    7  A    between atoms: C_19  and  C_20 
REMARK    8  A    between atoms: C_21  and  C_22 
REMARK    9  A    between atoms: C_27  and  C_28 
ROOT
HETATM    1  C   UNL     1     -42.367  58.970 -51.794  1.00  0.00     0.102 A 
HETATM    2  C   UNL     1     -42.872  58.210 -52.868  1.00  0.00     0.102 A 
HETATM    3  C   UNL     1     -44.251  58.063 -53.027  1.00  0.00     0.040 A 
HETATM    4  C   UNL     1     -45.129  58.700 -52.147  1.00  0.00     0.014 A 
HETATM    5  C   UNL     1     -44.640  59.484 -51.098  1.00  0.00    -0.033 A 
HETATM    6  C   UNL     1     -43.257  59.595 -50.913  1.00  0.00     0.051 A 
ENDROOT
BRANCH   2   7
HETATM    7  O   UNL     1     -41.930  57.665 -53.709  1.00  0.00    -0.339 OA
BRANCH   7   8
HETATM    8  C   UNL     1     -42.312  56.560 -54.516  1.00  0.00     0.278 C 
BRANCH   8   9
HETATM    9  C   UNL     1     -42.220  55.178 -53.853  1.00  0.00     0.246 C 
HETATM   10  N   UNL     1     -40.927  54.681 -53.838  1.00  0.00    -0.325 N 
HETATM   11  H   UNL     1     -40.236  55.260 -54.307  1.00  0.00     0.169 HD
HETATM   12  O   UNL     1     -43.218  54.647 -53.374  1.00  0.00    -0.271 OA
BRANCH  10  13
HETATM   13  C   UNL     1     -40.478  53.443 -53.343  1.00  0.00     0.034 A 
HETATM   14  C   UNL     1     -40.237  53.183 -51.993  1.00  0.00     0.029 A 
HETATM   15  C   UNL     1     -39.798  51.919 -51.582  1.00  0.00     0.002 A 
HETATM   16  C   UNL     1     -39.596  50.907 -52.518  1.00  0.00     0.000 A 
HETATM   17  C   UNL     1     -39.833  51.157 -53.867  1.00  0.00     0.002 A 
HETATM   18  C   UNL     1     -40.272  52.419 -54.277  1.00  0.00     0.029 A 
ENDBRANCH  10  13
ENDBRANCH   8   9
ENDBRANCH   7   8
ENDBRANCH   2   7
BRANCH   1  19
HETATM   19  O   UNL     1     -41.000  59.077 -51.725  1.00  0.00    -0.349 OA
BRANCH  19  20
HETATM   20  C   UNL     1     -40.413  59.204 -50.432  1.00  0.00     0.171 C 
HETATM   21  C   UNL     1     -38.944  59.539 -50.617  1.00  0.00     0.034 C 
ENDBRANCH  19  20
ENDBRANCH   1  19
BRANCH   5  22
HETATM   22  C   UNL     1     -45.541  60.195 -50.188  1.00  0.00     0.014 C 
HETATM   23  C   UNL     1     -45.094  60.864 -49.110  1.00  0.00     0.035 C 
BRANCH  23  24
HETATM   24  C   UNL     1     -45.928  61.534 -48.154  1.00  0.00     0.091 A 
HETATM   25  N   UNL     1     -47.039  62.212 -48.490  1.00  0.00    -0.175 NA
HETATM   26  N   UNL     1     -47.527  62.663 -47.331  1.00  0.00    -0.288 N 
HETATM   27  H   UNL     1     -48.382  63.211 -47.353  1.00  0.00     0.188 HD
HETATM   28  C   UNL     1     -46.780  62.306 -46.251  1.00  0.00     0.126 A 
HETATM   29  C   UNL     1     -45.720  61.569 -46.742  1.00  0.00     0.049 A 
BRANCH  29  30
HETATM   30  C   UNL     1     -44.671  60.993 -45.927  1.00  0.00     0.273 C 
HETATM   31  O   UNL     1     -44.798  60.673 -44.750  1.00  0.00    -0.301 OA
ENDBRANCH  29  30
ENDBRANCH  23  24
ENDBRANCH   5  22
TORSDOF 9
ENDMDL
MODEL 7
REMARK VINA RESULT:      -7.1      1.609      2.046
REMARK  9 active torsions:
REMARK  status: ('A' for Active; 'I' for Inactive)
REMARK    1  A    between atoms: C_2  and  O_3 
REMARK    2  A    between atoms: O_3  and  C_4 
REMARK    3  A    between atoms: C_5  and  O_6 
REMARK    4  A    between atoms: O_6  and  C_7 
REMARK    5  A    between atoms: C_7  and  C_8 
REMARK       I    between atoms: C_8  and  N_9 
REMARK    6  A    between atoms: N_9  and  C_10 
REMARK    7  A    between atoms: C_19  and  C_20 
REMARK    8  A    between atoms: C_21  and  C_22 
REMARK    9  A    between atoms: C_27  and  C_28 
ROOT
HETATM    1  C   UNL     1     -41.317  57.222 -51.847  1.00  0.00     0.102 A 
HETATM    2  C   UNL     1     -41.059  57.533 -53.197  1.00  0.00     0.102 A 
HETATM    3  C   UNL     1     -41.259  58.836 -53.659  1.00  0.00     0.040 A 
HETATM    4  C   UNL     1     -41.676  59.836 -52.777  1.00  0.00     0.014 A 
HETATM    5  C   UNL     1     -41.902  59.545 -51.429  1.00  0.00    -0.033 A 
HETATM    6  C   UNL     1     -41.744  58.230 -50.975  1.00  0.00     0.051 A 
ENDROOT
BRANCH   2   7
HETATM    7  O   UNL     1     -40.605  56.494 -53.974  1.00  0.00    -0.339 OA
BRANCH   7   8
HETATM    8  C   UNL     1     -41.549  55.786 -54.765  1.00  0.00     0.278 C 
BRANCH   8   9
HETATM    9  C   UNL     1     -41.601  54.266 -54.551  1.00  0.00     0.246 C 
HETATM   10  N   UNL     1     -40.519  53.794 -53.828  1.00  0.00    -0.325 N 
HETATM   11  H   UNL     1     -39.820  54.493 -53.589  1.00  0.00     0.169 HD
HETATM   12  O   UNL     1     -42.550  53.610 -54.970  1.00  0.00    -0.271 OA
BRANCH  10  13
HETATM   13  C   UNL     1     -40.224  52.465 -53.474  1.00  0.00     0.034 A 
HETATM   14  C   UNL     1     -40.235  51.397 -54.372  1.00  0.00     0.029 A 
HETATM   15  C   UNL     1     -39.922  50.104 -53.939  1.00  0.00     0.002 A 
HETATM   16  C   UNL     1     -39.597  49.869 -52.604  1.00  0.00     0.000 A 
HETATM   17  C   UNL     1     -39.584  50.928 -51.701  1.00  0.00     0.002 A 
HETATM   18  C   UNL     1     -39.896  52.219 -52.134  1.00  0.00     0.029 A 
ENDBRANCH  10  13
ENDBRANCH   8   9
ENDBRANCH   7   8
ENDBRANCH   2   7
BRANCH   1  19
HETATM   19  O   UNL     1     -41.075  55.922 -51.475  1.00  0.00    -0.349 OA
BRANCH  19  20
HETATM   20  C   UNL     1     -41.378  55.554 -50.131  1.00  0.00     0.171 C 
HETATM   21  C   UNL     1     -42.282  54.335 -50.174  1.00  0.00     0.034 C 
ENDBRANCH  19  20
ENDBRANCH   1  19
BRANCH   5  22
HETATM   22  C   UNL     1     -42.299  60.585 -50.476  1.00  0.00     0.014 C 
HETATM   23  C   UNL     1     -43.584  60.928 -50.279  1.00  0.00     0.035 C 
BRANCH  23  24
HETATM   24  C   UNL     1     -44.032  61.972 -49.402  1.00  0.00     0.091 A 
HETATM   25  N   UNL     1     -44.797  61.747 -48.320  1.00  0.00    -0.175 NA
HETATM   26  N   UNL     1     -44.978  62.954 -47.774  1.00  0.00    -0.288 N 
HETATM   27  H   UNL     1     -45.536  63.017 -46.928  1.00  0.00     0.188 HD
HETATM   28  C   UNL     1     -44.359  63.956 -48.455  1.00  0.00     0.126 A 
HETATM   29  C   UNL     1     -43.731  63.360 -49.532  1.00  0.00     0.049 A 
BRANCH  29  30
HETATM   30  C   UNL     1     -42.954  64.070 -50.527  1.00  0.00     0.273 C 
HETATM   31  O   UNL     1     -43.301  64.243 -51.691  1.00  0.00    -0.301 OA
ENDBRANCH  29  30
ENDBRANCH  23  24
ENDBRANCH   5  22
TORSDOF 9
ENDMDL
MODEL 8
REMARK VINA RESULT:      -7.0      4.250      6.993
REMARK  9 active torsions:
REMARK  status: ('A' for Active; 'I' for Inactive)
REMARK    1  A    between atoms: C_2  and  O_3 
REMARK    2  A    between atoms: O_3  and  C_4 
REMARK    3  A    between atoms: C_5  and  O_6 
REMARK    4  A    between atoms: O_6  and  C_7 
REMARK    5  A    between atoms: C_7  and  C_8 
REMARK       I    between atoms: C_8  and  N_9 
REMARK    6  A    between atoms: N_9  and  C_10 
REMARK    7  A    between atoms: C_19  and  C_20 
REMARK    8  A    between atoms: C_21  and  C_22 
REMARK    9  A    between atoms: C_27  and  C_28 
ROOT
HETATM    1  C   UNL     1     -42.643  57.438 -52.367  1.00  0.00     0.102 A 
HETATM    2  C   UNL     1     -42.644  56.111 -51.892  1.00  0.00     0.102 A 
HETATM    3  C   UNL     1     -43.119  55.083 -52.709  1.00  0.00     0.040 A 
HETATM    4  C   UNL     1     -43.555  55.363 -54.006  1.00  0.00     0.014 A 
HETATM    5  C   UNL     1     -43.526  56.671 -54.499  1.00  0.00    -0.033 A 
HETATM    6  C   UNL     1     -43.091  57.708 -53.664  1.00  0.00     0.051 A 
ENDROOT
BRANCH   2   7
HETATM    7  O   UNL     1     -42.149  55.930 -50.623  1.00  0.00    -0.339 OA
BRANCH   7   8
HETATM    8  C   UNL     1     -40.823  55.440 -50.484  1.00  0.00     0.278 C 
BRANCH   8   9
HETATM    9  C   UNL     1     -40.653  53.917 -50.592  1.00  0.00     0.246 C 
HETATM   10  N   UNL     1     -40.245  53.517 -51.853  1.00  0.00    -0.325 N 
HETATM   11  H   UNL     1     -40.168  54.263 -52.540  1.00  0.00     0.169 HD
HETATM   12  O   UNL     1     -40.837  53.198 -49.615  1.00  0.00    -0.271 OA
BRANCH  10  13
HETATM   13  C   UNL     1     -40.021  52.208 -52.319  1.00  0.00     0.034 A 
HETATM   14  C   UNL     1     -39.618  51.149 -51.506  1.00  0.00     0.029 A 
HETATM   15  C   UNL     1     -39.424  49.873 -52.048  1.00  0.00     0.002 A 
HETATM   16  C   UNL     1     -39.630  49.649 -53.407  1.00  0.00     0.000 A 
HETATM   17  C   UNL     1     -40.031  50.700 -54.227  1.00  0.00     0.002 A 
HETATM   18  C   UNL     1     -40.225  51.973 -53.685  1.00  0.00     0.029 A 
ENDBRANCH  10  13
ENDBRANCH   8   9
ENDBRANCH   7   8
ENDBRANCH   2   7
BRANCH   1  19
HETATM   19  O   UNL     1     -42.140  58.382 -51.505  1.00  0.00    -0.349 OA
BRANCH  19  20
HETATM   20  C   UNL     1     -41.034  59.162 -51.954  1.00  0.00     0.171 C 
HETATM   21  C   UNL     1     -39.947  59.081 -50.897  1.00  0.00     0.034 C 
ENDBRANCH  19  20
ENDBRANCH   1  19
BRANCH   5  22
HETATM   22  C   UNL     1     -43.938  56.984 -55.870  1.00  0.00     0.014 C 
HETATM   23  C   UNL     1     -43.054  57.123 -56.873  1.00  0.00     0.035 C 
BRANCH  23  24
HETATM   24  C   UNL     1     -43.389  57.481 -58.221  1.00  0.00     0.091 A 
HETATM   25  N   UNL     1     -43.347  58.743 -58.681  1.00  0.00    -0.175 NA
HETATM   26  N   UNL     1     -43.707  58.650 -59.965  1.00  0.00    -0.288 N 
HETATM   27  H   UNL     1     -43.742  59.503 -60.515  1.00  0.00     0.188 HD
HETATM   28  C   UNL     1     -43.980  57.377 -60.362  1.00  0.00     0.126 A 
HETATM   29  C   UNL     1     -43.789  56.578 -59.251  1.00  0.00     0.049 A 
BRANCH  29  30
HETATM   30  C   UNL     1     -43.977  55.142 -59.229  1.00  0.00     0.273 C 
HETATM   31  O   UNL     1     -44.828  54.540 -59.875  1.00  0.00    -0.301 OA
ENDBRANCH  29  30
ENDBRANCH  23  24
ENDBRANCH   5  22
TORSDOF 9
ENDMDL
MODEL 9
REMARK VINA RESULT:      -7.0      4.109      7.039
REMARK  9 active torsions:
REMARK  status: ('A' for Active; 'I' for Inactive)
REMARK    1  A    between atoms: C_2  and  O_3 
REMARK    2  A    between atoms: O_3  and  C_4 
REMARK    3  A    between atoms: C_5  and  O_6 
REMARK    4  A    between atoms: O_6  and  C_7 
REMARK    5  A    between atoms: C_7  and  C_8 
REMARK       I    between atoms: C_8  and  N_9 
REMARK    6  A    between atoms: N_9  and  C_10 
REMARK    7  A    between atoms: C_19  and  C_20 
REMARK    8  A    between atoms: C_21  and  C_22 
REMARK    9  A    between atoms: C_27  and  C_28 
ROOT
HETATM    1  C   UNL     1     -42.151  58.064 -53.182  1.00  0.00     0.102 A 
HETATM    2  C   UNL     1     -42.857  56.917 -52.765  1.00  0.00     0.102 A 
HETATM    3  C   UNL     1     -43.681  56.244 -53.669  1.00  0.00     0.040 A 
HETATM    4  C   UNL     1     -43.777  56.682 -54.991  1.00  0.00     0.014 A 
HETATM    5  C   UNL     1     -43.054  57.798 -55.424  1.00  0.00    -0.033 A 
HETATM    6  C   UNL     1     -42.262  58.499 -54.507  1.00  0.00     0.051 A 
ENDROOT
BRANCH   2   7
HETATM    7  O   UNL     1     -42.659  56.536 -51.459  1.00  0.00    -0.339 OA
BRANCH   7   8
HETATM    8  C   UNL     1     -41.537  55.716 -51.163  1.00  0.00     0.278 C 
BRANCH   8   9
HETATM    9  C   UNL     1     -41.652  54.242 -51.579  1.00  0.00     0.246 C 
HETATM   10  N   UNL     1     -40.461  53.734 -52.069  1.00  0.00    -0.325 N 
HETATM   11  H   UNL     1     -39.700  54.405 -52.138  1.00  0.00     0.169 HD
HETATM   12  O   UNL     1     -42.707  53.631 -51.428  1.00  0.00    -0.271 OA
BRANCH  10  13
HETATM   13  C   UNL     1     -40.206  52.442 -52.566  1.00  0.00     0.034 A 
HETATM   14  C   UNL     1     -40.359  52.078 -53.904  1.00  0.00     0.029 A 
HETATM   15  C   UNL     1     -40.077  50.771 -54.319  1.00  0.00     0.002 A 
HETATM   16  C   UNL     1     -39.642  49.820 -53.399  1.00  0.00     0.000 A 
HETATM   17  C   UNL     1     -39.487  50.175 -52.062  1.00  0.00     0.002 A 
HETATM   18  C   UNL     1     -39.769  51.479 -51.648  1.00  0.00     0.029 A 
ENDBRANCH  10  13
ENDBRANCH   8   9
ENDBRANCH   7   8
ENDBRANCH   2   7
BRANCH   1  19
HETATM   19  O   UNL     1     -41.349  58.651 -52.234  1.00  0.00    -0.349 OA
BRANCH  19  20
HETATM   20  C   UNL     1     -41.689  59.969 -51.808  1.00  0.00     0.171 C 
HETATM   21  C   UNL     1     -41.480  60.043 -50.306  1.00  0.00     0.034 C 
ENDBRANCH  19  20
ENDBRANCH   1  19
BRANCH   5  22
HETATM   22  C   UNL     1     -43.105  58.252 -56.816  1.00  0.00     0.014 C 
HETATM   23  C   UNL     1     -42.049  58.817 -57.428  1.00  0.00     0.035 C 
BRANCH  23  24
HETATM   24  C   UNL     1     -42.051  59.329 -58.768  1.00  0.00     0.091 A 
HETATM   25  N   UNL     1     -42.033  60.642 -59.055  1.00  0.00    -0.175 NA
HETATM   26  N   UNL     1     -42.025  60.698 -60.391  1.00  0.00    -0.288 N 
HETATM   27  H   UNL     1     -42.010  61.613 -60.831  1.00  0.00     0.188 HD
HETATM   28  C   UNL     1     -42.034  59.475 -60.986  1.00  0.00     0.126 A 
HETATM   29  C   UNL     1     -42.056  58.547 -59.962  1.00  0.00     0.049 A 
BRANCH  29  30
HETATM   30  C   UNL     1     -42.076  57.112 -60.153  1.00  0.00     0.273 C 
HETATM   31  O   UNL     1     -43.035  56.479 -60.581  1.00  0.00    -0.301 OA
ENDBRANCH  29  30
ENDBRANCH  23  24
ENDBRANCH   5  22
TORSDOF 9
ENDMDL
MODEL 10
REMARK VINA RESULT:      -7.0      2.265      9.926
REMARK  9 active torsions:
REMARK  status: ('A' for Active; 'I' for Inactive)
REMARK    1  A    between atoms: C_2  and  O_3 
REMARK    2  A    between atoms: O_3  and  C_4 
REMARK    3  A    between atoms: C_5  and  O_6 
REMARK    4  A    between atoms: O_6  and  C_7 
REMARK    5  A    between atoms: C_7  and  C_8 
REMARK       I    between atoms: C_8  and  N_9 
REMARK    6  A    between atoms: N_9  and  C_10 
REMARK    7  A    between atoms: C_19  and  C_20 
REMARK    8  A    between atoms: C_21  and  C_22 
REMARK    9  A    between atoms: C_27  and  C_28 
ROOT
HETATM    1  C   UNL     1     -41.641  57.811 -51.354  1.00  0.00     0.102 A 
HETATM    2  C   UNL     1     -43.014  58.132 -51.330  1.00  0.00     0.102 A 
HETATM    3  C   UNL     1     -43.958  57.122 -51.137  1.00  0.00     0.040 A 
HETATM    4  C   UNL     1     -43.543  55.804 -50.929  1.00  0.00     0.014 A 
HETATM    5  C   UNL     1     -42.183  55.481 -50.916  1.00  0.00    -0.033 A 
HETATM    6  C   UNL     1     -41.238  56.487 -51.154  1.00  0.00     0.051 A 
ENDROOT
BRANCH   2   7
HETATM    7  O   UNL     1     -43.320  59.461 -51.494  1.00  0.00    -0.339 OA
BRANCH   7   8
HETATM    8  C   UNL     1     -44.677  59.813 -51.728  1.00  0.00     0.278 C 
BRANCH   8   9
HETATM    9  C   UNL     1     -45.387  60.550 -50.583  1.00  0.00     0.246 C 
HETATM   10  N   UNL     1     -44.528  60.877 -49.547  1.00  0.00    -0.325 N 
HETATM   11  H   UNL     1     -43.574  60.544 -49.656  1.00  0.00     0.169 HD
HETATM   12  O   UNL     1     -46.582  60.822 -50.662  1.00  0.00    -0.271 OA
BRANCH  10  13
HETATM   13  C   UNL     1     -44.835  61.522 -48.335  1.00  0.00     0.034 A 
HETATM   14  C   UNL     1     -44.660  62.888 -48.112  1.00  0.00     0.029 A 
HETATM   15  C   UNL     1     -44.998  63.454 -46.877  1.00  0.00     0.002 A 
HETATM   16  C   UNL     1     -45.510  62.656 -45.856  1.00  0.00     0.000 A 
HETATM   17  C   UNL     1     -45.687  61.292 -46.069  1.00  0.00     0.002 A 
HETATM   18  C   UNL     1     -45.350  60.728 -47.303  1.00  0.00     0.029 A 
ENDBRANCH  10  13
ENDBRANCH   8   9
ENDBRANCH   7   8
ENDBRANCH   2   7
BRANCH   1  19
HETATM   19  O   UNL     1     -40.782  58.868 -51.529  1.00  0.00    -0.349 OA
BRANCH  19  20
HETATM   20  C   UNL     1     -40.190  59.437 -50.363  1.00  0.00     0.171 C 
HETATM   21  C   UNL     1     -38.688  59.486 -50.579  1.00  0.00     0.034 C 
ENDBRANCH  19  20
ENDBRANCH   1  19
BRANCH   5  22
HETATM   22  C   UNL     1     -41.722  54.115 -50.658  1.00  0.00     0.014 C 
HETATM   23  C   UNL     1     -40.765  53.527 -51.397  1.00  0.00     0.035 C 
BRANCH  23  24
HETATM   24  C   UNL     1     -40.308  52.177 -51.229  1.00  0.00     0.091 A 
HETATM   25  N   UNL     1     -40.378  51.515 -50.062  1.00  0.00    -0.175 NA
HETATM   26  N   UNL     1     -39.875  50.305 -50.325  1.00  0.00    -0.288 N 
HETATM   27  H   UNL     1     -39.834  49.629 -49.569  1.00  0.00     0.188 HD
HETATM   28  C   UNL     1     -39.483  50.150 -51.619  1.00  0.00     0.126 A 
HETATM   29  C   UNL     1     -39.744  51.352 -52.248  1.00  0.00     0.049 A 
BRANCH  29  30
HETATM   30  C   UNL     1     -39.471  51.626 -53.643  1.00  0.00     0.273 C 
HETATM   31  O   UNL     1     -40.314  51.974 -54.464  1.00  0.00    -0.301 OA
ENDBRANCH  29  30
ENDBRANCH  23  24
ENDBRANCH   5  22
TORSDOF 9
ENDMDL
