MODEL 1
REMARK VINA RESULT:      -8.8      0.000      0.000
REMARK  5 active torsions:
REMARK  status: ('A' for Active; 'I' for Inactive)
REMARK    1  A    between atoms: C_12  and  C_13 
REMARK    2  A    between atoms: C_13  and  N_14 
REMARK    3  A    between atoms: N_14  and  C_15 
REMARK    4  A    between atoms: C_16  and  O_17 
REMARK    5  A    between atoms: C_19  and  O_20 
ROOT
HETATM    1  C   UNL     1     -39.471  49.965 -54.338  1.00  0.00     0.049 C 
HETATM    2  C   UNL     1     -39.829  51.215 -53.580  1.00  0.00    -0.055 A 
HETATM    3  C   UNL     1     -39.820  51.251 -52.169  1.00  0.00    -0.054 A 
HETATM    4  C   UNL     1     -39.415  50.052 -51.354  1.00  0.00     0.049 C 
HETATM    5  C   UNL     1     -40.159  52.443 -51.508  1.00  0.00     0.037 A 
HETATM    6  C   UNL     1     -40.531  53.570 -52.238  1.00  0.00     0.045 A 
HETATM    7  C   UNL     1     -40.568  53.536 -53.633  1.00  0.00    -0.008 A 
HETATM    8  C   UNL     1     -40.218  52.359 -54.298  1.00  0.00     0.021 A 
HETATM    9  N   UNL     1     -40.873  54.755 -51.574  1.00  0.00    -0.322 N 
HETATM   10  C   UNL     1     -41.247  55.904 -52.217  1.00  0.00     0.253 A 
HETATM   11  O   UNL     1     -41.525  56.925 -51.592  1.00  0.00    -0.268 OA
HETATM   12  C   UNL     1     -41.299  55.865 -53.708  1.00  0.00     0.024 A 
HETATM   13  C   UNL     1     -40.979  54.735 -54.363  1.00  0.00     0.027 A 
HETATM   14  H   UNL     1     -40.843  54.799 -50.564  1.00  0.00     0.169 HD
ENDROOT
BRANCH  12  15
HETATM   15  C   UNL     1     -41.767  57.114 -54.391  1.00  0.00     0.136 C 
BRANCH  15  16
HETATM   16  N   UNL     1     -42.929  56.781 -55.217  1.00  0.00    -0.286 NA
HETATM   17  H   UNL     1     -43.155  55.791 -55.054  1.00  0.00     0.128 HD
BRANCH  16  18
HETATM   18  C   UNL     1     -42.789  56.949 -56.613  1.00  0.00     0.042 A 
HETATM   19  C   UNL     1     -43.057  55.831 -57.423  1.00  0.00     0.089 A 
HETATM   20  C   UNL     1     -42.875  55.838 -58.799  1.00  0.00     0.074 A 
HETATM   21  C   UNL     1     -42.396  56.999 -59.390  1.00  0.00     0.068 A 
HETATM   22  C   UNL     1     -42.095  58.120 -58.621  1.00  0.00     0.038 A 
HETATM   23  C   UNL     1     -42.277  58.092 -57.233  1.00  0.00     0.029 A 
BRANCH  19  24
HETATM   24  O   UNL     1     -43.544  54.695 -56.827  1.00  0.00    -0.359 OA
HETATM   25  H   UNL     1     -43.723  54.104 -57.589  1.00  0.00     0.218 HD
ENDBRANCH  19  24
BRANCH  21  26
HETATM   26  O   UNL     1     -42.195  57.081 -60.737  1.00  0.00    -0.361 OA
HETATM   27  H   UNL     1     -41.703  56.293 -61.020  1.00  0.00     0.217 HD
ENDBRANCH  21  26
ENDBRANCH  16  18
ENDBRANCH  15  16
ENDBRANCH  12  15
TORSDOF 5
ENDMDL
MODEL 2
REMARK VINA RESULT:      -8.5      3.539      4.634
REMARK  5 active torsions:
REMARK  status: ('A' for Active; 'I' for Inactive)
REMARK    1  A    between atoms: C_12  and  C_13 
REMARK    2  A    between atoms: C_13  and  N_14 
REMARK    3  A    between atoms: N_14  and  C_15 
REMARK    4  A    between atoms: C_16  and  O_17 
REMARK    5  A    between atoms: C_19  and  O_20 
ROOT
HETATM    1  C   UNL     1     -39.479  49.956 -54.301  1.00  0.00     0.049 C 
HETATM    2  C   UNL     1     -39.870  51.104 -53.409  1.00  0.00    -0.055 A 
HETATM    3  C   UNL     1     -39.663  51.059 -52.014  1.00  0.00    -0.054 A 
HETATM    4  C   UNL     1     -39.004  49.878 -51.354  1.00  0.00     0.049 C 
HETATM    5  C   UNL     1     -40.042  52.158 -51.226  1.00  0.00     0.037 A 
HETATM    6  C   UNL     1     -40.646  53.269 -51.812  1.00  0.00     0.045 A 
HETATM    7  C   UNL     1     -40.879  53.310 -53.188  1.00  0.00    -0.008 A 
HETATM    8  C   UNL     1     -40.492  52.228 -53.981  1.00  0.00     0.021 A 
HETATM    9  N   UNL     1     -41.028  54.359 -51.020  1.00  0.00    -0.322 N 
HETATM   10  C   UNL     1     -41.624  55.486 -51.519  1.00  0.00     0.253 A 
HETATM   11  O   UNL     1     -41.929  56.425 -50.787  1.00  0.00    -0.268 OA
HETATM   12  C   UNL     1     -41.885  55.527 -52.987  1.00  0.00     0.024 A 
HETATM   13  C   UNL     1     -41.531  54.487 -53.763  1.00  0.00     0.027 A 
HETATM   14  H   UNL     1     -40.858  54.349 -50.024  1.00  0.00     0.169 HD
ENDROOT
BRANCH  12  15
HETATM   15  C   UNL     1     -42.592  56.743 -53.505  1.00  0.00     0.136 C 
BRANCH  15  16
HETATM   16  N   UNL     1     -44.003  56.654 -53.124  1.00  0.00    -0.286 NA
HETATM   17  H   UNL     1     -44.536  56.380 -53.959  1.00  0.00     0.128 HD
BRANCH  16  18
HETATM   18  C   UNL     1     -44.602  57.830 -52.617  1.00  0.00     0.042 A 
HETATM   19  C   UNL     1     -45.083  57.784 -51.296  1.00  0.00     0.089 A 
HETATM   20  C   UNL     1     -45.767  58.840 -50.708  1.00  0.00     0.074 A 
HETATM   21  C   UNL     1     -45.991  59.979 -51.468  1.00  0.00     0.068 A 
HETATM   22  C   UNL     1     -45.551  60.055 -52.787  1.00  0.00     0.038 A 
HETATM   23  C   UNL     1     -44.870  58.977 -53.366  1.00  0.00     0.029 A 
BRANCH  19  24
HETATM   24  O   UNL     1     -44.842  56.657 -50.552  1.00  0.00    -0.359 OA
HETATM   25  H   UNL     1     -45.128  56.921 -49.651  1.00  0.00     0.218 HD
ENDBRANCH  19  24
BRANCH  21  26
HETATM   26  O   UNL     1     -46.652  61.057 -50.957  1.00  0.00    -0.361 OA
HETATM   27  H   UNL     1     -46.102  61.448 -50.258  1.00  0.00     0.217 HD
ENDBRANCH  21  26
ENDBRANCH  16  18
ENDBRANCH  15  16
ENDBRANCH  12  15
TORSDOF 5
ENDMDL
MODEL 3
REMARK VINA RESULT:      -8.2      3.191      4.844
REMARK  5 active torsions:
REMARK  status: ('A' for Active; 'I' for Inactive)
REMARK    1  A    between atoms: C_12  and  C_13 
REMARK    2  A    between atoms: C_13  and  N_14 
REMARK    3  A    between atoms: N_14  and  C_15 
REMARK    4  A    between atoms: C_16  and  O_17 
REMARK    5  A    between atoms: C_19  and  O_20 
ROOT
HETATM    1  C   UNL     1     -39.122  50.804 -51.407  1.00  0.00     0.049 C 
HETATM    2  C   UNL     1     -40.031  51.707 -52.198  1.00  0.00    -0.055 A 
HETATM    3  C   UNL     1     -40.183  51.562 -53.594  1.00  0.00    -0.054 A 
HETATM    4  C   UNL     1     -39.473  50.475 -54.354  1.00  0.00     0.049 C 
HETATM    5  C   UNL     1     -41.046  52.428 -54.286  1.00  0.00     0.037 A 
HETATM    6  C   UNL     1     -41.721  53.439 -53.606  1.00  0.00     0.045 A 
HETATM    7  C   UNL     1     -41.557  53.606 -52.230  1.00  0.00    -0.008 A 
HETATM    8  C   UNL     1     -40.712  52.740 -51.532  1.00  0.00     0.021 A 
HETATM    9  N   UNL     1     -42.576  54.303 -54.302  1.00  0.00    -0.322 N 
HETATM   10  C   UNL     1     -43.277  55.319 -53.708  1.00  0.00     0.253 A 
HETATM   11  O   UNL     1     -44.027  56.043 -54.357  1.00  0.00    -0.268 OA
HETATM   12  C   UNL     1     -43.092  55.505 -52.239  1.00  0.00     0.024 A 
HETATM   13  C   UNL     1     -42.271  54.689 -51.555  1.00  0.00     0.027 A 
HETATM   14  H   UNL     1     -42.713  54.190 -55.297  1.00  0.00     0.169 HD
ENDROOT
BRANCH  12  15
HETATM   15  C   UNL     1     -43.820  56.658 -51.617  1.00  0.00     0.136 C 
BRANCH  15  16
HETATM   16  N   UNL     1     -43.418  57.885 -52.308  1.00  0.00    -0.286 NA
HETATM   17  H   UNL     1     -43.439  57.695 -53.319  1.00  0.00     0.128 HD
BRANCH  16  18
HETATM   18  C   UNL     1     -42.134  58.395 -52.008  1.00  0.00     0.042 A 
HETATM   19  C   UNL     1     -41.215  58.477 -53.069  1.00  0.00     0.089 A 
HETATM   20  C   UNL     1     -39.897  58.879 -52.893  1.00  0.00     0.074 A 
HETATM   21  C   UNL     1     -39.476  59.197 -51.609  1.00  0.00     0.068 A 
HETATM   22  C   UNL     1     -40.349  59.105 -50.528  1.00  0.00     0.038 A 
HETATM   23  C   UNL     1     -41.672  58.691 -50.724  1.00  0.00     0.029 A 
BRANCH  19  24
HETATM   24  O   UNL     1     -41.649  58.173 -54.335  1.00  0.00    -0.359 OA
HETATM   25  H   UNL     1     -41.027  58.670 -54.908  1.00  0.00     0.218 HD
ENDBRANCH  19  24
BRANCH  21  26
HETATM   26  O   UNL     1     -38.198  59.603 -51.360  1.00  0.00    -0.361 OA
HETATM   27  H   UNL     1     -37.800  58.983 -50.726  1.00  0.00     0.217 HD
ENDBRANCH  21  26
ENDBRANCH  16  18
ENDBRANCH  15  16
ENDBRANCH  12  15
TORSDOF 5
ENDMDL
MODEL 4
REMARK VINA RESULT:      -8.2      3.332      4.482
REMARK  5 active torsions:
REMARK  status: ('A' for Active; 'I' for Inactive)
REMARK    1  A    between atoms: C_12  and  C_13 
REMARK    2  A    between atoms: C_13  and  N_14 
REMARK    3  A    between atoms: N_14  and  C_15 
REMARK    4  A    between atoms: C_16  and  O_17 
REMARK    5  A    between atoms: C_19  and  O_20 
ROOT
HETATM    1  C   UNL     1     -39.368  49.911 -51.271  1.00  0.00     0.049 C 
HETATM    2  C   UNL     1     -39.780  51.158 -52.006  1.00  0.00    -0.055 A 
HETATM    3  C   UNL     1     -39.794  51.213 -53.416  1.00  0.00    -0.054 A 
HETATM    4  C   UNL     1     -39.435  50.016 -54.254  1.00  0.00     0.049 C 
HETATM    5  C   UNL     1     -40.190  52.400 -54.055  1.00  0.00     0.037 A 
HETATM    6  C   UNL     1     -40.536  53.521 -53.304  1.00  0.00     0.045 A 
HETATM    7  C   UNL     1     -40.499  53.484 -51.909  1.00  0.00    -0.008 A 
HETATM    8  C   UNL     1     -40.120  52.304 -51.266  1.00  0.00     0.021 A 
HETATM    9  N   UNL     1     -40.924  54.704 -53.946  1.00  0.00    -0.322 N 
HETATM   10  C   UNL     1     -41.280  55.847 -53.282  1.00  0.00     0.253 A 
HETATM   11  O   UNL     1     -41.628  56.857 -53.888  1.00  0.00    -0.268 OA
HETATM   12  C   UNL     1     -41.229  55.812 -51.791  1.00  0.00     0.024 A 
HETATM   13  C   UNL     1     -40.853  54.687 -51.156  1.00  0.00     0.027 A 
HETATM   14  H   UNL     1     -40.964  54.745 -54.956  1.00  0.00     0.169 HD
ENDROOT
BRANCH  12  15
HETATM   15  C   UNL     1     -41.564  57.090 -51.083  1.00  0.00     0.136 C 
BRANCH  15  16
HETATM   16  N   UNL     1     -43.018  57.166 -50.932  1.00  0.00    -0.286 NA
HETATM   17  H   UNL     1     -43.424  56.335 -51.380  1.00  0.00     0.128 HD
BRANCH  16  18
HETATM   18  C   UNL     1     -43.659  58.294 -51.494  1.00  0.00     0.042 A 
HETATM   19  C   UNL     1     -44.459  58.074 -52.630  1.00  0.00     0.089 A 
HETATM   20  C   UNL     1     -45.073  59.106 -53.328  1.00  0.00     0.074 A 
HETATM   21  C   UNL     1     -44.873  60.406 -52.885  1.00  0.00     0.068 A 
HETATM   22  C   UNL     1     -44.069  60.667 -51.779  1.00  0.00     0.038 A 
HETATM   23  C   UNL     1     -43.451  59.615 -51.092  1.00  0.00     0.029 A 
BRANCH  19  24
HETATM   24  O   UNL     1     -44.659  56.783 -53.048  1.00  0.00    -0.359 OA
HETATM   25  H   UNL     1     -45.195  56.895 -53.863  1.00  0.00     0.218 HD
ENDBRANCH  19  24
BRANCH  21  26
HETATM   26  O   UNL     1     -45.447  61.469 -53.517  1.00  0.00    -0.361 OA
HETATM   27  H   UNL     1     -46.321  61.196 -53.841  1.00  0.00     0.217 HD
ENDBRANCH  21  26
ENDBRANCH  16  18
ENDBRANCH  15  16
ENDBRANCH  12  15
TORSDOF 5
ENDMDL
MODEL 5
REMARK VINA RESULT:      -8.0      2.763      2.917
REMARK  5 active torsions:
REMARK  status: ('A' for Active; 'I' for Inactive)
REMARK    1  A    between atoms: C_12  and  C_13 
REMARK    2  A    between atoms: C_13  and  N_14 
REMARK    3  A    between atoms: N_14  and  C_15 
REMARK    4  A    between atoms: C_16  and  O_17 
REMARK    5  A    between atoms: C_19  and  O_20 
ROOT
HETATM    1  C   UNL     1     -39.584  50.169 -54.330  1.00  0.00     0.049 C 
HETATM    2  C   UNL     1     -39.868  51.246 -53.317  1.00  0.00    -0.055 A 
HETATM    3  C   UNL     1     -39.754  51.005 -51.932  1.00  0.00    -0.054 A 
HETATM    4  C   UNL     1     -39.304  49.671 -51.400  1.00  0.00     0.049 C 
HETATM    5  C   UNL     1     -40.027  52.044 -51.027  1.00  0.00     0.037 A 
HETATM    6  C   UNL     1     -40.438  53.291 -51.492  1.00  0.00     0.045 A 
HETATM    7  C   UNL     1     -40.579  53.531 -52.860  1.00  0.00    -0.008 A 
HETATM    8  C   UNL     1     -40.295  52.508 -53.767  1.00  0.00     0.021 A 
HETATM    9  N   UNL     1     -40.715  54.322 -50.586  1.00  0.00    -0.322 N 
HETATM   10  C   UNL     1     -41.120  55.575 -50.962  1.00  0.00     0.253 A 
HETATM   11  O   UNL     1     -41.337  56.452 -50.130  1.00  0.00    -0.268 OA
HETATM   12  C   UNL     1     -41.283  55.828 -52.423  1.00  0.00     0.024 A 
HETATM   13  C   UNL     1     -41.028  54.849 -53.308  1.00  0.00     0.027 A 
HETATM   14  H   UNL     1     -40.608  54.168 -49.592  1.00  0.00     0.169 HD
ENDROOT
BRANCH  12  15
HETATM   15  C   UNL     1     -41.785  57.186 -52.812  1.00  0.00     0.136 C 
BRANCH  15  16
HETATM   16  N   UNL     1     -43.225  57.237 -52.552  1.00  0.00    -0.286 NA
HETATM   17  H   UNL     1     -43.580  56.273 -52.566  1.00  0.00     0.128 HD
BRANCH  16  18
HETATM   18  C   UNL     1     -44.011  57.981 -53.462  1.00  0.00     0.042 A 
HETATM   19  C   UNL     1     -44.737  57.254 -54.423  1.00  0.00     0.089 A 
HETATM   20  C   UNL     1     -45.478  57.865 -55.425  1.00  0.00     0.074 A 
HETATM   21  C   UNL     1     -45.487  59.252 -55.481  1.00  0.00     0.068 A 
HETATM   22  C   UNL     1     -44.762  60.007 -54.563  1.00  0.00     0.038 A 
HETATM   23  C   UNL     1     -44.014  59.374 -53.563  1.00  0.00     0.029 A 
BRANCH  19  24
HETATM   24  O   UNL     1     -44.730  55.884 -54.348  1.00  0.00    -0.359 OA
HETATM   25  H   UNL     1     -43.776  55.664 -54.397  1.00  0.00     0.218 HD
ENDBRANCH  19  24
BRANCH  21  26
HETATM   26  O   UNL     1     -46.195  59.921 -56.435  1.00  0.00    -0.361 OA
HETATM   27  H   UNL     1     -46.125  60.873 -56.253  1.00  0.00     0.217 HD
ENDBRANCH  21  26
ENDBRANCH  16  18
ENDBRANCH  15  16
ENDBRANCH  12  15
TORSDOF 5
ENDMDL
MODEL 6
REMARK VINA RESULT:      -7.9      3.590      7.600
REMARK  5 active torsions:
REMARK  status: ('A' for Active; 'I' for Inactive)
REMARK    1  A    between atoms: C_12  and  C_13 
REMARK    2  A    between atoms: C_13  and  N_14 
REMARK    3  A    between atoms: N_14  and  C_15 
REMARK    4  A    between atoms: C_16  and  O_17 
REMARK    5  A    between atoms: C_19  and  O_20 
ROOT
HETATM    1  C   UNL     1     -45.459  60.837 -53.626  1.00  0.00     0.049 C 
HETATM    2  C   UNL     1     -45.072  59.526 -52.994  1.00  0.00    -0.055 A 
HETATM    3  C   UNL     1     -45.315  59.265 -51.629  1.00  0.00    -0.054 A 
HETATM    4  C   UNL     1     -46.008  60.268 -50.746  1.00  0.00     0.049 C 
HETATM    5  C   UNL     1     -44.939  58.024 -51.087  1.00  0.00     0.037 A 
HETATM    6  C   UNL     1     -44.303  57.074 -51.883  1.00  0.00     0.045 A 
HETATM    7  C   UNL     1     -44.035  57.335 -53.228  1.00  0.00    -0.008 A 
HETATM    8  C   UNL     1     -44.419  58.559 -53.778  1.00  0.00     0.021 A 
HETATM    9  N   UNL     1     -43.923  55.841 -51.337  1.00  0.00    -0.322 N 
HETATM   10  C   UNL     1     -43.298  54.855 -52.051  1.00  0.00     0.253 A 
HETATM   11  O   UNL     1     -42.997  53.783 -51.532  1.00  0.00    -0.268 OA
HETATM   12  C   UNL     1     -43.000  55.137 -53.486  1.00  0.00     0.024 A 
HETATM   13  C   UNL     1     -43.351  56.317 -54.027  1.00  0.00     0.027 A 
HETATM   14  H   UNL     1     -44.118  55.633 -50.367  1.00  0.00     0.169 HD
ENDROOT
BRANCH  12  15
HETATM   15  C   UNL     1     -42.262  54.070 -54.235  1.00  0.00     0.136 C 
BRANCH  15  16
HETATM   16  N   UNL     1     -40.967  53.861 -53.585  1.00  0.00    -0.286 NA
HETATM   17  H   UNL     1     -40.246  54.296 -54.175  1.00  0.00     0.128 HD
BRANCH  16  18
HETATM   18  C   UNL     1     -40.571  52.521 -53.368  1.00  0.00     0.042 A 
HETATM   19  C   UNL     1     -40.015  52.213 -52.113  1.00  0.00     0.089 A 
HETATM   20  C   UNL     1     -39.509  50.958 -51.803  1.00  0.00     0.074 A 
HETATM   21  C   UNL     1     -39.547  49.976 -52.783  1.00  0.00     0.068 A 
HETATM   22  C   UNL     1     -40.067  50.247 -54.045  1.00  0.00     0.038 A 
HETATM   23  C   UNL     1     -40.566  51.521 -54.343  1.00  0.00     0.029 A 
BRANCH  19  24
HETATM   24  O   UNL     1     -39.996  53.190 -51.150  1.00  0.00    -0.359 OA
HETATM   25  H   UNL     1     -39.040  53.300 -50.964  1.00  0.00     0.218 HD
ENDBRANCH  19  24
BRANCH  21  26
HETATM   26  O   UNL     1     -39.072  48.719 -52.549  1.00  0.00    -0.361 OA
HETATM   27  H   UNL     1     -39.795  48.183 -52.184  1.00  0.00     0.217 HD
ENDBRANCH  21  26
ENDBRANCH  16  18
ENDBRANCH  15  16
ENDBRANCH  12  15
TORSDOF 5
ENDMDL
MODEL 7
REMARK VINA RESULT:      -7.7     14.459     17.040
REMARK  5 active torsions:
REMARK  status: ('A' for Active; 'I' for Inactive)
REMARK    1  A    between atoms: C_12  and  C_13 
REMARK    2  A    between atoms: C_13  and  N_14 
REMARK    3  A    between atoms: N_14  and  C_15 
REMARK    4  A    between atoms: C_16  and  O_17 
REMARK    5  A    between atoms: C_19  and  O_20 
ROOT
HETATM    1  C   UNL     1     -37.376  42.672 -60.330  1.00  0.00     0.049 C 
HETATM    2  C   UNL     1     -37.215  41.746 -59.154  1.00  0.00    -0.055 A 
HETATM    3  C   UNL     1     -37.375  40.350 -59.287  1.00  0.00    -0.054 A 
HETATM    4  C   UNL     1     -37.677  39.715 -60.617  1.00  0.00     0.049 C 
HETATM    5  C   UNL     1     -37.210  39.528 -58.160  1.00  0.00     0.037 A 
HETATM    6  C   UNL     1     -36.923  40.087 -56.917  1.00  0.00     0.045 A 
HETATM    7  C   UNL     1     -36.788  41.470 -56.772  1.00  0.00    -0.008 A 
HETATM    8  C   UNL     1     -36.936  42.293 -57.889  1.00  0.00     0.021 A 
HETATM    9  N   UNL     1     -36.766  39.264 -55.795  1.00  0.00    -0.322 N 
HETATM   10  C   UNL     1     -36.481  39.735 -54.542  1.00  0.00     0.253 A 
HETATM   11  O   UNL     1     -36.337  38.972 -53.590  1.00  0.00    -0.268 OA
HETATM   12  C   UNL     1     -36.349  41.213 -54.383  1.00  0.00     0.024 A 
HETATM   13  C   UNL     1     -36.502  42.020 -55.447  1.00  0.00     0.027 A 
HETATM   14  H   UNL     1     -36.851  38.260 -55.885  1.00  0.00     0.169 HD
ENDROOT
BRANCH  12  15
HETATM   15  C   UNL     1     -36.096  41.713 -52.993  1.00  0.00     0.136 C 
BRANCH  15  16
HETATM   16  N   UNL     1     -34.657  41.930 -52.835  1.00  0.00    -0.286 NA
HETATM   17  H   UNL     1     -34.222  41.830 -53.761  1.00  0.00     0.128 HD
BRANCH  16  18
HETATM   18  C   UNL     1     -33.972  41.057 -51.959  1.00  0.00     0.042 A 
HETATM   19  C   UNL     1     -32.765  40.505 -52.421  1.00  0.00     0.089 A 
HETATM   20  C   UNL     1     -32.040  39.568 -51.696  1.00  0.00     0.074 A 
HETATM   21  C   UNL     1     -32.543  39.158 -50.470  1.00  0.00     0.068 A 
HETATM   22  C   UNL     1     -33.748  39.663 -49.987  1.00  0.00     0.038 A 
HETATM   23  C   UNL     1     -34.469  40.600 -50.736  1.00  0.00     0.029 A 
BRANCH  19  24
HETATM   24  O   UNL     1     -32.272  40.930 -53.629  1.00  0.00    -0.359 OA
HETATM   25  H   UNL     1     -32.875  41.665 -53.868  1.00  0.00     0.218 HD
ENDBRANCH  19  24
BRANCH  21  26
HETATM   26  O   UNL     1     -31.885  38.245 -49.700  1.00  0.00    -0.361 OA
HETATM   27  H   UNL     1     -32.297  37.376 -49.838  1.00  0.00     0.217 HD
ENDBRANCH  21  26
ENDBRANCH  16  18
ENDBRANCH  15  16
ENDBRANCH  12  15
TORSDOF 5
ENDMDL
MODEL 8
REMARK VINA RESULT:      -7.6     13.880     17.012
REMARK  5 active torsions:
REMARK  status: ('A' for Active; 'I' for Inactive)
REMARK    1  A    between atoms: C_12  and  C_13 
REMARK    2  A    between atoms: C_13  and  N_14 
REMARK    3  A    between atoms: N_14  and  C_15 
REMARK    4  A    between atoms: C_16  and  O_17 
REMARK    5  A    between atoms: C_19  and  O_20 
ROOT
HETATM    1  C   UNL     1     -38.433  39.502 -59.296  1.00  0.00     0.049 C 
HETATM    2  C   UNL     1     -37.825  40.354 -58.214  1.00  0.00    -0.055 A 
HETATM    3  C   UNL     1     -37.314  41.640 -58.487  1.00  0.00    -0.054 A 
HETATM    4  C   UNL     1     -37.385  42.239 -59.866  1.00  0.00     0.049 C 
HETATM    5  C   UNL     1     -36.760  42.398 -57.441  1.00  0.00     0.037 A 
HETATM    6  C   UNL     1     -36.688  41.871 -56.154  1.00  0.00     0.045 A 
HETATM    7  C   UNL     1     -37.168  40.589 -55.880  1.00  0.00    -0.008 A 
HETATM    8  C   UNL     1     -37.733  39.835 -56.910  1.00  0.00     0.021 A 
HETATM    9  N   UNL     1     -36.129  42.628 -55.116  1.00  0.00    -0.322 N 
HETATM   10  C   UNL     1     -36.024  42.184 -53.825  1.00  0.00     0.253 A 
HETATM   11  O   UNL     1     -35.540  42.890 -52.944  1.00  0.00    -0.268 OA
HETATM   12  C   UNL     1     -36.526  40.809 -53.534  1.00  0.00     0.024 A 
HETATM   13  C   UNL     1     -37.060  40.065 -54.518  1.00  0.00     0.027 A 
HETATM   14  H   UNL     1     -35.785  43.561 -55.295  1.00  0.00     0.169 HD
ENDROOT
BRANCH  12  15
HETATM   15  C   UNL     1     -36.347  40.318 -52.129  1.00  0.00     0.136 C 
BRANCH  15  16
HETATM   16  N   UNL     1     -35.311  39.284 -52.129  1.00  0.00    -0.286 NA
HETATM   17  H   UNL     1     -35.765  38.387 -51.913  1.00  0.00     0.128 HD
BRANCH  16  18
HETATM   18  C   UNL     1     -34.250  39.444 -51.208  1.00  0.00     0.042 A 
HETATM   19  C   UNL     1     -33.107  40.125 -51.663  1.00  0.00     0.089 A 
HETATM   20  C   UNL     1     -31.964  40.275 -50.888  1.00  0.00     0.074 A 
HETATM   21  C   UNL     1     -31.955  39.714 -49.619  1.00  0.00     0.068 A 
HETATM   22  C   UNL     1     -33.058  39.011 -49.142  1.00  0.00     0.038 A 
HETATM   23  C   UNL     1     -34.199  38.864 -49.939  1.00  0.00     0.029 A 
BRANCH  19  24
HETATM   24  O   UNL     1     -33.135  40.686 -52.915  1.00  0.00    -0.359 OA
HETATM   25  H   UNL     1     -33.870  40.209 -53.355  1.00  0.00     0.218 HD
ENDBRANCH  19  24
BRANCH  21  26
HETATM   26  O   UNL     1     -30.870  39.824 -48.800  1.00  0.00    -0.361 OA
HETATM   27  H   UNL     1     -30.690  38.950 -48.415  1.00  0.00     0.217 HD
ENDBRANCH  21  26
ENDBRANCH  16  18
ENDBRANCH  15  16
ENDBRANCH  12  15
TORSDOF 5
ENDMDL
MODEL 9
REMARK VINA RESULT:      -7.5      3.110      5.608
REMARK  5 active torsions:
REMARK  status: ('A' for Active; 'I' for Inactive)
REMARK    1  A    between atoms: C_12  and  C_13 
REMARK    2  A    between atoms: C_13  and  N_14 
REMARK    3  A    between atoms: N_14  and  C_15 
REMARK    4  A    between atoms: C_16  and  O_17 
REMARK    5  A    between atoms: C_19  and  O_20 
ROOT
HETATM    1  C   UNL     1     -39.496  50.604 -51.311  1.00  0.00     0.049 C 
HETATM    2  C   UNL     1     -39.905  51.575 -52.386  1.00  0.00    -0.055 A 
HETATM    3  C   UNL     1     -39.890  51.215 -53.750  1.00  0.00    -0.054 A 
HETATM    4  C   UNL     1     -39.501  49.831 -54.195  1.00  0.00     0.049 C 
HETATM    5  C   UNL     1     -40.284  52.157 -54.715  1.00  0.00     0.037 A 
HETATM    6  C   UNL     1     -40.657  53.443 -54.332  1.00  0.00     0.045 A 
HETATM    7  C   UNL     1     -40.650  53.816 -52.986  1.00  0.00    -0.008 A 
HETATM    8  C   UNL     1     -40.274  52.882 -52.019  1.00  0.00     0.021 A 
HETATM    9  N   UNL     1     -41.043  54.380 -55.298  1.00  0.00    -0.322 N 
HETATM   10  C   UNL     1     -41.425  55.662 -55.003  1.00  0.00     0.253 A 
HETATM   11  O   UNL     1     -41.771  56.444 -55.884  1.00  0.00    -0.268 OA
HETATM   12  C   UNL     1     -41.406  56.064 -53.567  1.00  0.00     0.024 A 
HETATM   13  C   UNL     1     -41.033  55.180 -52.624  1.00  0.00     0.027 A 
HETATM   14  H   UNL     1     -41.063  54.124 -56.276  1.00  0.00     0.169 HD
ENDROOT
BRANCH  12  15
HETATM   15  C   UNL     1     -41.770  57.488 -53.269  1.00  0.00     0.136 C 
BRANCH  15  16
HETATM   16  N   UNL     1     -41.929  57.630 -51.821  1.00  0.00    -0.286 NA
HETATM   17  H   UNL     1     -42.285  56.737 -51.456  1.00  0.00     0.128 HD
BRANCH  16  18
HETATM   18  C   UNL     1     -42.811  58.641 -51.373  1.00  0.00     0.042 A 
HETATM   19  C   UNL     1     -42.234  59.767 -50.759  1.00  0.00     0.089 A 
HETATM   20  C   UNL     1     -42.990  60.789 -50.200  1.00  0.00     0.074 A 
HETATM   21  C   UNL     1     -44.373  60.678 -50.243  1.00  0.00     0.068 A 
HETATM   22  C   UNL     1     -44.983  59.567 -50.819  1.00  0.00     0.038 A 
HETATM   23  C   UNL     1     -44.204  58.543 -51.371  1.00  0.00     0.029 A 
BRANCH  19  24
HETATM   24  O   UNL     1     -40.866  59.870 -50.737  1.00  0.00    -0.359 OA
HETATM   25  H   UNL     1     -40.714  60.832 -50.851  1.00  0.00     0.218 HD
ENDBRANCH  19  24
BRANCH  21  26
HETATM   26  O   UNL     1     -45.180  61.643 -49.717  1.00  0.00    -0.361 OA
HETATM   27  H   UNL     1     -45.485  61.344 -48.845  1.00  0.00     0.217 HD
ENDBRANCH  21  26
ENDBRANCH  16  18
ENDBRANCH  15  16
ENDBRANCH  12  15
TORSDOF 5
ENDMDL
MODEL 10
REMARK VINA RESULT:      -7.5      1.980      2.860
REMARK  5 active torsions:
REMARK  status: ('A' for Active; 'I' for Inactive)
REMARK    1  A    between atoms: C_12  and  C_13 
REMARK    2  A    between atoms: C_13  and  N_14 
REMARK    3  A    between atoms: N_14  and  C_15 
REMARK    4  A    between atoms: C_16  and  O_17 
REMARK    5  A    between atoms: C_19  and  O_20 
ROOT
HETATM    1  C   UNL     1     -39.758  51.462 -50.871  1.00  0.00     0.049 C 
HETATM    2  C   UNL     1     -40.347  52.730 -51.427  1.00  0.00    -0.055 A 
HETATM    3  C   UNL     1     -40.486  53.889 -50.634  1.00  0.00    -0.054 A 
HETATM    4  C   UNL     1     -40.017  53.926 -49.205  1.00  0.00     0.049 C 
HETATM    5  C   UNL     1     -41.038  55.050 -51.202  1.00  0.00     0.037 A 
HETATM    6  C   UNL     1     -41.474  55.047 -52.525  1.00  0.00     0.045 A 
HETATM    7  C   UNL     1     -41.364  53.896 -53.309  1.00  0.00    -0.008 A 
HETATM    8  C   UNL     1     -40.802  52.743 -52.757  1.00  0.00     0.021 A 
HETATM    9  N   UNL     1     -42.030  56.204 -53.084  1.00  0.00    -0.322 N 
HETATM   10  C   UNL     1     -42.478  56.283 -54.376  1.00  0.00     0.253 A 
HETATM   11  O   UNL     1     -42.945  57.326 -54.827  1.00  0.00    -0.268 OA
HETATM   12  C   UNL     1     -42.372  55.051 -55.210  1.00  0.00     0.024 A 
HETATM   13  C   UNL     1     -41.847  53.928 -54.689  1.00  0.00     0.027 A 
HETATM   14  H   UNL     1     -42.108  57.048 -52.533  1.00  0.00     0.169 HD
ENDROOT
BRANCH  12  15
HETATM   15  C   UNL     1     -42.923  55.140 -56.601  1.00  0.00     0.136 C 
BRANCH  15  16
HETATM   16  N   UNL     1     -42.175  56.165 -57.330  1.00  0.00    -0.286 NA
HETATM   17  H   UNL     1     -41.890  56.885 -56.653  1.00  0.00     0.128 HD
BRANCH  16  18
HETATM   18  C   UNL     1     -42.856  56.828 -58.377  1.00  0.00     0.042 A 
HETATM   19  C   UNL     1     -42.986  58.225 -58.271  1.00  0.00     0.089 A 
HETATM   20  C   UNL     1     -43.704  58.984 -59.186  1.00  0.00     0.074 A 
HETATM   21  C   UNL     1     -44.326  58.326 -60.238  1.00  0.00     0.068 A 
HETATM   22  C   UNL     1     -44.241  56.942 -60.364  1.00  0.00     0.038 A 
HETATM   23  C   UNL     1     -43.519  56.192 -59.428  1.00  0.00     0.029 A 
BRANCH  19  24
HETATM   24  O   UNL     1     -42.355  58.863 -57.234  1.00  0.00    -0.359 OA
HETATM   25  H   UNL     1     -42.619  58.332 -56.453  1.00  0.00     0.218 HD
ENDBRANCH  19  24
BRANCH  21  26
HETATM   26  O   UNL     1     -45.045  59.005 -61.177  1.00  0.00    -0.361 OA
HETATM   27  H   UNL     1     -45.929  58.605 -61.231  1.00  0.00     0.217 HD
ENDBRANCH  21  26
ENDBRANCH  16  18
ENDBRANCH  15  16
ENDBRANCH  12  15
TORSDOF 5
ENDMDL
