MODEL 1
REMARK VINA RESULT:      -7.4      0.000      0.000
REMARK  3 active torsions:
REMARK  status: ('A' for Active; 'I' for Inactive)
REMARK    1  A    between atoms: O_2  and  C_3 
REMARK    2  A    between atoms: C_4  and  C_5 
REMARK    3  A    between atoms: C_16  and  N_17 
ROOT
HETATM    1  C   UNL     1     -42.583  57.676 -55.712  1.00  0.00     0.246 A 
HETATM    2  N   UNL     1     -42.715  56.503 -54.877  1.00  0.00    -0.151 N 
HETATM    3  C   UNL     1     -43.775  56.365 -54.018  1.00  0.00     0.734 A 
HETATM    4  N   UNL     1     -43.660  55.234 -53.357  1.00  0.00    -0.060 NA
HETATM    5  C   UNL     1     -42.486  54.657 -53.774  1.00  0.00     0.103 A 
HETATM    6  C   UNL     1     -41.855  55.448 -54.728  1.00  0.00     0.083 A 
HETATM    7  C   UNL     1     -41.890  53.453 -53.373  1.00  0.00     0.034 A 
HETATM    8  C   UNL     1     -40.669  53.084 -53.949  1.00  0.00     0.002 A 
HETATM    9  C   UNL     1     -40.054  53.897 -54.904  1.00  0.00     0.002 A 
HETATM   10  C   UNL     1     -40.633  55.103 -55.318  1.00  0.00     0.033 A 
HETATM   11  N   UNL     1     -44.753  57.292 -53.906  1.00  0.00    -0.033 NA
HETATM   12  C   UNL     1     -44.645  58.390 -54.564  1.00  0.00     0.193 A 
HETATM   13  N   UNL     1     -43.595  58.693 -55.434  1.00  0.00    -0.338 N 
HETATM   14  H   UNL     1     -43.582  59.539 -55.981  1.00  0.00     0.164 HD
ENDROOT
BRANCH   1  15
HETATM   15  C   UNL     1     -42.647  57.384 -57.204  1.00  0.00     0.020 A 
HETATM   16  C   UNL     1     -41.997  58.261 -58.100  1.00  0.00     0.078 A 
HETATM   17  C   UNL     1     -42.069  58.040 -59.479  1.00  0.00     0.039 A 
HETATM   18  C   UNL     1     -42.776  56.946 -59.981  1.00  0.00     0.022 A 
HETATM   19  C   UNL     1     -43.427  56.083 -59.108  1.00  0.00     0.011 A 
HETATM   20  C   UNL     1     -43.381  56.302 -57.732  1.00  0.00     0.033 A 
HETATM   21 BR   UNL     1     -44.389  54.606 -59.791  1.00  0.00    -0.051 Br
BRANCH  16  22
HETATM   22  O   UNL     1     -41.359  59.330 -57.523  1.00  0.00    -0.355 OA
HETATM   23  C   UNL     1     -41.565  60.604 -58.132  1.00  0.00     0.210 C 
ENDBRANCH  16  22
ENDBRANCH   1  15
BRANCH  12  24
HETATM   24  N   UNL     1     -45.557  59.381 -54.489  1.00  0.00    -0.272 NA
HETATM   25  H   UNL     1     -45.636  59.731 -53.536  1.00  0.00     0.127 HD
HETATM   26  H   UNL     1     -45.453  60.140 -55.149  1.00  0.00     0.127 HD
ENDBRANCH  12  24
TORSDOF 3
ENDMDL
MODEL 2
REMARK VINA RESULT:      -7.1      4.170      5.981
REMARK  3 active torsions:
REMARK  status: ('A' for Active; 'I' for Inactive)
REMARK    1  A    between atoms: O_2  and  C_3 
REMARK    2  A    between atoms: C_4  and  C_5 
REMARK    3  A    between atoms: C_16  and  N_17 
ROOT
HETATM    1  C   UNL     1     -43.510  56.372 -52.113  1.00  0.00     0.246 A 
HETATM    2  N   UNL     1     -42.555  55.289 -52.195  1.00  0.00    -0.151 N 
HETATM    3  C   UNL     1     -42.242  54.716 -53.401  1.00  0.00     0.734 A 
HETATM    4  N   UNL     1     -41.375  53.745 -53.214  1.00  0.00    -0.060 NA
HETATM    5  C   UNL     1     -41.158  53.673 -51.861  1.00  0.00     0.103 A 
HETATM    6  C   UNL     1     -41.906  54.631 -51.185  1.00  0.00     0.083 A 
HETATM    7  C   UNL     1     -40.334  52.802 -51.133  1.00  0.00     0.034 A 
HETATM    8  C   UNL     1     -40.292  52.927 -49.739  1.00  0.00     0.002 A 
HETATM    9  C   UNL     1     -41.055  53.896 -49.084  1.00  0.00     0.002 A 
HETATM   10  C   UNL     1     -41.884  54.774 -49.793  1.00  0.00     0.033 A 
HETATM   11  N   UNL     1     -42.786  55.125 -54.570  1.00  0.00    -0.033 NA
HETATM   12  C   UNL     1     -43.699  56.027 -54.547  1.00  0.00     0.193 A 
HETATM   13  N   UNL     1     -44.158  56.662 -53.390  1.00  0.00    -0.338 N 
HETATM   14  H   UNL     1     -44.830  57.412 -53.423  1.00  0.00     0.164 HD
ENDROOT
BRANCH   1  15
HETATM   15  C   UNL     1     -42.919  57.681 -51.609  1.00  0.00     0.020 A 
HETATM   16  C   UNL     1     -43.790  58.752 -51.310  1.00  0.00     0.078 A 
HETATM   17  C   UNL     1     -43.274  59.979 -50.880  1.00  0.00     0.039 A 
HETATM   18  C   UNL     1     -41.896  60.153 -50.734  1.00  0.00     0.022 A 
HETATM   19  C   UNL     1     -41.032  59.107 -51.035  1.00  0.00     0.011 A 
HETATM   20  C   UNL     1     -41.530  57.884 -51.484  1.00  0.00     0.033 A 
HETATM   21 BR   UNL     1     -39.167  59.346 -50.843  1.00  0.00    -0.051 Br
BRANCH  16  22
HETATM   22  O   UNL     1     -45.123  58.506 -51.518  1.00  0.00    -0.355 OA
HETATM   23  C   UNL     1     -46.046  59.327 -50.803  1.00  0.00     0.210 C 
ENDBRANCH  16  22
ENDBRANCH   1  15
BRANCH  12  24
HETATM   24  N   UNL     1     -44.317  56.473 -55.661  1.00  0.00    -0.272 NA
HETATM   25  H   UNL     1     -44.213  55.808 -56.425  1.00  0.00     0.127 HD
HETATM   26  H   UNL     1     -45.281  56.761 -55.557  1.00  0.00     0.127 HD
ENDBRANCH  12  24
TORSDOF 3
ENDMDL
MODEL 3
REMARK VINA RESULT:      -6.9      4.233      6.190
REMARK  3 active torsions:
REMARK  status: ('A' for Active; 'I' for Inactive)
REMARK    1  A    between atoms: O_2  and  C_3 
REMARK    2  A    between atoms: C_4  and  C_5 
REMARK    3  A    between atoms: C_16  and  N_17 
ROOT
HETATM    1  C   UNL     1     -41.093  56.549 -51.458  1.00  0.00     0.246 A 
HETATM    2  N   UNL     1     -41.800  55.639 -52.332  1.00  0.00    -0.151 N 
HETATM    3  C   UNL     1     -42.270  54.438 -51.866  1.00  0.00     0.734 A 
HETATM    4  N   UNL     1     -42.852  53.784 -52.848  1.00  0.00    -0.060 NA
HETATM    5  C   UNL     1     -42.718  54.565 -53.968  1.00  0.00     0.103 A 
HETATM    6  C   UNL     1     -42.040  55.743 -53.675  1.00  0.00     0.083 A 
HETATM    7  C   UNL     1     -43.149  54.326 -55.281  1.00  0.00     0.034 A 
HETATM    8  C   UNL     1     -42.880  55.289 -56.261  1.00  0.00     0.002 A 
HETATM    9  C   UNL     1     -42.195  56.463 -55.942  1.00  0.00     0.002 A 
HETATM   10  C   UNL     1     -41.756  56.720 -54.637  1.00  0.00     0.033 A 
HETATM   11  N   UNL     1     -42.117  54.039 -50.583  1.00  0.00    -0.033 NA
HETATM   12  C   UNL     1     -41.428  54.770 -49.783  1.00  0.00     0.193 A 
HETATM   13  N   UNL     1     -40.843  55.990 -50.131  1.00  0.00    -0.338 N 
HETATM   14  H   UNL     1     -40.365  56.565 -49.454  1.00  0.00     0.164 HD
ENDROOT
BRANCH   1  15
HETATM   15  C   UNL     1     -41.798  57.882 -51.251  1.00  0.00     0.020 A 
HETATM   16  C   UNL     1     -41.033  59.008 -50.874  1.00  0.00     0.078 A 
HETATM   17  C   UNL     1     -41.658  60.237 -50.641  1.00  0.00     0.039 A 
HETATM   18  C   UNL     1     -43.041  60.365 -50.788  1.00  0.00     0.022 A 
HETATM   19  C   UNL     1     -43.802  59.260 -51.150  1.00  0.00     0.011 A 
HETATM   20  C   UNL     1     -43.196  58.023 -51.366  1.00  0.00     0.033 A 
HETATM   21 BR   UNL     1     -45.674  59.433 -51.341  1.00  0.00    -0.051 Br
BRANCH  16  22
HETATM   22  O   UNL     1     -39.690  58.783 -50.715  1.00  0.00    -0.355 OA
HETATM   23  C   UNL     1     -38.902  59.889 -50.275  1.00  0.00     0.210 C 
ENDBRANCH  16  22
ENDBRANCH   1  15
BRANCH  12  24
HETATM   24  N   UNL     1     -41.199  54.434 -48.497  1.00  0.00    -0.272 NA
HETATM   25  H   UNL     1     -41.821  53.684 -48.201  1.00  0.00     0.127 HD
HETATM   26  H   UNL     1     -40.239  54.232 -48.248  1.00  0.00     0.127 HD
ENDBRANCH  12  24
TORSDOF 3
ENDMDL
MODEL 4
REMARK VINA RESULT:      -6.8      4.946      6.375
REMARK  3 active torsions:
REMARK  status: ('A' for Active; 'I' for Inactive)
REMARK    1  A    between atoms: O_2  and  C_3 
REMARK    2  A    between atoms: C_4  and  C_5 
REMARK    3  A    between atoms: C_16  and  N_17 
ROOT
HETATM    1  C   UNL     1     -40.031  54.177 -51.147  1.00  0.00     0.246 A 
HETATM    2  N   UNL     1     -40.066  52.731 -51.167  1.00  0.00    -0.151 N 
HETATM    3  C   UNL     1     -40.332  52.017 -50.026  1.00  0.00     0.734 A 
HETATM    4  N   UNL     1     -40.284  50.730 -50.293  1.00  0.00    -0.060 NA
HETATM    5  C   UNL     1     -39.945  50.620 -51.618  1.00  0.00     0.103 A 
HETATM    6  C   UNL     1     -39.784  51.874 -52.197  1.00  0.00     0.083 A 
HETATM    7  C   UNL     1     -39.750  49.471 -52.399  1.00  0.00     0.034 A 
HETATM    8  C   UNL     1     -39.395  49.626 -53.744  1.00  0.00     0.002 A 
HETATM    9  C   UNL     1     -39.237  50.897 -54.300  1.00  0.00     0.002 A 
HETATM   10  C   UNL     1     -39.428  52.056 -53.538  1.00  0.00     0.033 A 
HETATM   11  N   UNL     1     -40.586  52.606 -48.836  1.00  0.00    -0.033 NA
HETATM   12  C   UNL     1     -40.489  53.883 -48.742  1.00  0.00     0.193 A 
HETATM   13  N   UNL     1     -40.173  54.734 -49.803  1.00  0.00    -0.338 N 
HETATM   14  H   UNL     1     -40.172  55.737 -49.702  1.00  0.00     0.164 HD
ENDROOT
BRANCH   1  15
HETATM   15  C   UNL     1     -41.096  54.833 -52.014  1.00  0.00     0.020 A 
HETATM   16  C   UNL     1     -41.495  56.156 -51.721  1.00  0.00     0.078 A 
HETATM   17  C   UNL     1     -42.497  56.772 -52.476  1.00  0.00     0.039 A 
HETATM   18  C   UNL     1     -43.106  56.090 -53.531  1.00  0.00     0.022 A 
HETATM   19  C   UNL     1     -42.727  54.785 -53.821  1.00  0.00     0.011 A 
HETATM   20  C   UNL     1     -41.743  54.149 -53.063  1.00  0.00     0.033 A 
HETATM   21 BR   UNL     1     -43.556  53.860 -55.245  1.00  0.00    -0.051 Br
BRANCH  16  22
HETATM   22  O   UNL     1     -40.873  56.736 -50.645  1.00  0.00    -0.355 OA
HETATM   23  C   UNL     1     -40.752  58.158 -50.664  1.00  0.00     0.210 C 
ENDBRANCH  16  22
ENDBRANCH   1  15
BRANCH  12  24
HETATM   24  N   UNL     1     -40.695  54.550 -47.587  1.00  0.00    -0.272 NA
HETATM   25  H   UNL     1     -40.139  54.152 -46.833  1.00  0.00     0.127 HD
HETATM   26  H   UNL     1     -40.593  55.556 -47.624  1.00  0.00     0.127 HD
ENDBRANCH  12  24
TORSDOF 3
ENDMDL
MODEL 5
REMARK VINA RESULT:      -6.6      4.424      6.215
REMARK  3 active torsions:
REMARK  status: ('A' for Active; 'I' for Inactive)
REMARK    1  A    between atoms: O_2  and  C_3 
REMARK    2  A    between atoms: C_4  and  C_5 
REMARK    3  A    between atoms: C_16  and  N_17 
ROOT
HETATM    1  C   UNL     1     -40.393  54.308 -51.882  1.00  0.00     0.246 A 
HETATM    2  N   UNL     1     -40.264  52.890 -51.626  1.00  0.00    -0.151 N 
HETATM    3  C   UNL     1     -40.391  52.390 -50.356  1.00  0.00     0.734 A 
HETATM    4  N   UNL     1     -40.211  51.087 -50.378  1.00  0.00    -0.060 NA
HETATM    5  C   UNL     1     -39.927  50.755 -51.679  1.00  0.00     0.103 A 
HETATM    6  C   UNL     1     -39.938  51.883 -52.493  1.00  0.00     0.083 A 
HETATM    7  C   UNL     1     -39.642  49.502 -52.240  1.00  0.00     0.034 A 
HETATM    8  C   UNL     1     -39.373  49.427 -53.612  1.00  0.00     0.002 A 
HETATM    9  C   UNL     1     -39.388  50.574 -54.408  1.00  0.00     0.002 A 
HETATM   10  C   UNL     1     -39.671  51.835 -53.867  1.00  0.00     0.033 A 
HETATM   11  N   UNL     1     -40.651  53.171 -49.283  1.00  0.00    -0.033 NA
HETATM   12  C   UNL     1     -40.696  54.445 -49.439  1.00  0.00     0.193 A 
HETATM   13  N   UNL     1     -40.531  55.100 -50.662  1.00  0.00    -0.338 N 
HETATM   14  H   UNL     1     -40.639  56.098 -50.752  1.00  0.00     0.164 HD
ENDROOT
BRANCH   1  15
HETATM   15  C   UNL     1     -41.567  54.671 -52.780  1.00  0.00     0.020 A 
HETATM   16  C   UNL     1     -42.878  54.396 -52.333  1.00  0.00     0.078 A 
HETATM   17  C   UNL     1     -43.976  54.684 -53.152  1.00  0.00     0.039 A 
HETATM   18  C   UNL     1     -43.785  55.253 -54.412  1.00  0.00     0.022 A 
HETATM   19  C   UNL     1     -42.498  55.518 -54.864  1.00  0.00     0.011 A 
HETATM   20  C   UNL     1     -41.393  55.218 -54.068  1.00  0.00     0.033 A 
HETATM   21 BR   UNL     1     -42.242  56.282 -56.574  1.00  0.00    -0.051 Br
BRANCH  16  22
HETATM   22  O   UNL     1     -42.971  53.802 -51.101  1.00  0.00    -0.355 OA
HETATM   23  C   UNL     1     -44.143  54.086 -50.338  1.00  0.00     0.210 C 
ENDBRANCH  16  22
ENDBRANCH   1  15
BRANCH  12  24
HETATM   24  N   UNL     1     -40.919  55.300 -48.420  1.00  0.00    -0.272 NA
HETATM   25  H   UNL     1     -40.081  55.419 -47.855  1.00  0.00     0.127 HD
HETATM   26  H   UNL     1     -41.325  56.194 -48.663  1.00  0.00     0.127 HD
ENDBRANCH  12  24
TORSDOF 3
ENDMDL
MODEL 6
REMARK VINA RESULT:      -6.6      4.490      6.665
REMARK  3 active torsions:
REMARK  status: ('A' for Active; 'I' for Inactive)
REMARK    1  A    between atoms: O_2  and  C_3 
REMARK    2  A    between atoms: C_4  and  C_5 
REMARK    3  A    between atoms: C_16  and  N_17 
ROOT
HETATM    1  C   UNL     1     -41.545  56.181 -53.045  1.00  0.00     0.246 A 
HETATM    2  N   UNL     1     -41.935  57.360 -52.302  1.00  0.00    -0.151 N 
HETATM    3  C   UNL     1     -43.237  57.790 -52.297  1.00  0.00     0.734 A 
HETATM    4  N   UNL     1     -43.335  58.886 -51.575  1.00  0.00    -0.060 NA
HETATM    5  C   UNL     1     -42.066  59.181 -51.144  1.00  0.00     0.103 A 
HETATM    6  C   UNL     1     -41.152  58.238 -51.603  1.00  0.00     0.083 A 
HETATM    7  C   UNL     1     -41.616  60.250 -50.355  1.00  0.00     0.034 A 
HETATM    8  C   UNL     1     -40.251  60.334 -50.055  1.00  0.00     0.002 A 
HETATM    9  C   UNL     1     -39.353  59.376 -50.530  1.00  0.00     0.002 A 
HETATM   10  C   UNL     1     -39.783  58.301 -51.319  1.00  0.00     0.033 A 
HETATM   11  N   UNL     1     -44.224  57.147 -52.962  1.00  0.00    -0.033 NA
HETATM   12  C   UNL     1     -43.921  56.143 -53.703  1.00  0.00     0.193 A 
HETATM   13  N   UNL     1     -42.632  55.626 -53.849  1.00  0.00    -0.338 N 
HETATM   14  H   UNL     1     -42.447  54.795 -54.388  1.00  0.00     0.164 HD
ENDROOT
BRANCH   1  15
HETATM   15  C   UNL     1     -41.014  55.050 -52.176  1.00  0.00     0.020 A 
HETATM   16  C   UNL     1     -40.526  53.882 -52.800  1.00  0.00     0.078 A 
HETATM   17  C   UNL     1     -40.066  52.810 -52.028  1.00  0.00     0.039 A 
HETATM   18  C   UNL     1     -40.076  52.891 -50.634  1.00  0.00     0.022 A 
HETATM   19  C   UNL     1     -40.563  54.033 -50.011  1.00  0.00     0.011 A 
HETATM   20  C   UNL     1     -41.044  55.101 -50.768  1.00  0.00     0.033 A 
HETATM   21 BR   UNL     1     -40.583  54.137 -48.124  1.00  0.00    -0.051 Br
BRANCH  16  22
HETATM   22  O   UNL     1     -40.588  53.873 -54.171  1.00  0.00    -0.355 OA
HETATM   23  C   UNL     1     -40.199  52.665 -54.823  1.00  0.00     0.210 C 
ENDBRANCH  16  22
ENDBRANCH   1  15
BRANCH  12  24
HETATM   24  N   UNL     1     -44.836  55.462 -54.424  1.00  0.00    -0.272 NA
HETATM   25  H   UNL     1     -44.417  55.069 -55.264  1.00  0.00     0.127 HD
HETATM   26  H   UNL     1     -45.376  54.767 -53.925  1.00  0.00     0.127 HD
ENDBRANCH  12  24
TORSDOF 3
ENDMDL
MODEL 7
REMARK VINA RESULT:      -6.6      2.433      3.081
REMARK  3 active torsions:
REMARK  status: ('A' for Active; 'I' for Inactive)
REMARK    1  A    between atoms: O_2  and  C_3 
REMARK    2  A    between atoms: C_4  and  C_5 
REMARK    3  A    between atoms: C_16  and  N_17 
ROOT
HETATM    1  C   UNL     1     -42.289  57.665 -52.938  1.00  0.00     0.246 A 
HETATM    2  N   UNL     1     -42.354  56.221 -52.989  1.00  0.00    -0.151 N 
HETATM    3  C   UNL     1     -43.270  55.530 -52.237  1.00  0.00     0.734 A 
HETATM    4  N   UNL     1     -43.117  54.239 -52.437  1.00  0.00    -0.060 NA
HETATM    5  C   UNL     1     -42.060  54.102 -53.302  1.00  0.00     0.103 A 
HETATM    6  C   UNL     1     -41.544  55.343 -53.658  1.00  0.00     0.083 A 
HETATM    7  C   UNL     1     -41.479  52.938 -53.825  1.00  0.00     0.034 A 
HETATM    8  C   UNL     1     -40.389  53.065 -54.694  1.00  0.00     0.002 A 
HETATM    9  C   UNL     1     -39.888  54.323 -55.035  1.00  0.00     0.002 A 
HETATM   10  C   UNL     1     -40.455  55.497 -54.523  1.00  0.00     0.033 A 
HETATM   11  N   UNL     1     -44.162  56.141 -51.425  1.00  0.00    -0.033 NA
HETATM   12  C   UNL     1     -44.096  57.416 -51.279  1.00  0.00     0.193 A 
HETATM   13  N   UNL     1     -43.183  58.243 -51.936  1.00  0.00    -0.338 N 
HETATM   14  H   UNL     1     -43.208  59.246 -51.844  1.00  0.00     0.164 HD
ENDROOT
BRANCH   1  15
HETATM   15  C   UNL     1     -42.608  58.346 -54.261  1.00  0.00     0.020 A 
HETATM   16  C   UNL     1     -42.347  59.727 -54.398  1.00  0.00     0.078 A 
HETATM   17  C   UNL     1     -42.664  60.388 -55.589  1.00  0.00     0.039 A 
HETATM   18  C   UNL     1     -43.230  59.687 -56.656  1.00  0.00     0.022 A 
HETATM   19  C   UNL     1     -43.498  58.330 -56.527  1.00  0.00     0.011 A 
HETATM   20  C   UNL     1     -43.207  57.661 -55.338  1.00  0.00     0.033 A 
HETATM   21 BR   UNL     1     -44.271  57.384 -57.969  1.00  0.00    -0.051 Br
BRANCH  16  22
HETATM   22  O   UNL     1     -41.827  60.343 -53.289  1.00  0.00    -0.355 OA
HETATM   23  C   UNL     1     -42.571  61.438 -52.755  1.00  0.00     0.210 C 
ENDBRANCH  16  22
ENDBRANCH   1  15
BRANCH  12  24
HETATM   24  N   UNL     1     -44.926  58.103 -50.467  1.00  0.00    -0.272 NA
HETATM   25  H   UNL     1     -45.862  57.705 -50.482  1.00  0.00     0.127 HD
HETATM   26  H   UNL     1     -44.607  58.250 -49.518  1.00  0.00     0.127 HD
ENDBRANCH  12  24
TORSDOF 3
ENDMDL
MODEL 8
REMARK VINA RESULT:      -6.5      3.126      4.283
REMARK  3 active torsions:
REMARK  status: ('A' for Active; 'I' for Inactive)
REMARK    1  A    between atoms: O_2  and  C_3 
REMARK    2  A    between atoms: C_4  and  C_5 
REMARK    3  A    between atoms: C_16  and  N_17 
ROOT
HETATM    1  C   UNL     1     -41.189  57.330 -53.082  1.00  0.00     0.246 A 
HETATM    2  N   UNL     1     -41.016  55.982 -52.587  1.00  0.00    -0.151 N 
HETATM    3  C   UNL     1     -41.034  55.718 -51.242  1.00  0.00     0.734 A 
HETATM    4  N   UNL     1     -40.833  54.433 -51.044  1.00  0.00    -0.060 NA
HETATM    5  C   UNL     1     -40.646  53.874 -52.283  1.00  0.00     0.103 A 
HETATM    6  C   UNL     1     -40.741  54.836 -53.283  1.00  0.00     0.083 A 
HETATM    7  C   UNL     1     -40.383  52.541 -52.632  1.00  0.00     0.034 A 
HETATM    8  C   UNL     1     -40.223  52.221 -53.985  1.00  0.00     0.002 A 
HETATM    9  C   UNL     1     -40.320  53.206 -54.970  1.00  0.00     0.002 A 
HETATM   10  C   UNL     1     -40.582  54.542 -54.642  1.00  0.00     0.033 A 
HETATM   11  N   UNL     1     -41.223  56.679 -50.309  1.00  0.00    -0.033 NA
HETATM   12  C   UNL     1     -41.302  57.904 -50.687  1.00  0.00     0.193 A 
HETATM   13  N   UNL     1     -41.245  58.328 -52.016  1.00  0.00    -0.338 N 
HETATM   14  H   UNL     1     -41.378  59.294 -52.275  1.00  0.00     0.164 HD
ENDROOT
BRANCH   1  15
HETATM   15  C   UNL     1     -42.437  57.521 -53.933  1.00  0.00     0.020 A 
HETATM   16  C   UNL     1     -43.704  57.321 -53.342  1.00  0.00     0.078 A 
HETATM   17  C   UNL     1     -44.867  57.453 -54.108  1.00  0.00     0.039 A 
HETATM   18  C   UNL     1     -44.786  57.792 -55.460  1.00  0.00     0.022 A 
HETATM   19  C   UNL     1     -43.543  57.982 -56.052  1.00  0.00     0.011 A 
HETATM   20  C   UNL     1     -42.374  57.834 -55.306  1.00  0.00     0.033 A 
HETATM   21 BR   UNL     1     -43.436  58.435 -57.884  1.00  0.00    -0.051 Br
BRANCH  16  22
HETATM   22  O   UNL     1     -43.688  56.953 -52.021  1.00  0.00    -0.355 OA
HETATM   23  C   UNL     1     -44.789  57.384 -51.222  1.00  0.00     0.210 C 
ENDBRANCH  16  22
ENDBRANCH   1  15
BRANCH  12  24
HETATM   24  N   UNL     1     -41.460  58.928 -49.822  1.00  0.00    -0.272 NA
HETATM   25  H   UNL     1     -40.988  59.764 -50.160  1.00  0.00     0.127 HD
HETATM   26  H   UNL     1     -42.408  59.133 -49.537  1.00  0.00     0.127 HD
ENDBRANCH  12  24
TORSDOF 3
ENDMDL
MODEL 9
REMARK VINA RESULT:      -6.2      3.534      5.171
REMARK  3 active torsions:
REMARK  status: ('A' for Active; 'I' for Inactive)
REMARK    1  A    between atoms: O_2  and  C_3 
REMARK    2  A    between atoms: C_4  and  C_5 
REMARK    3  A    between atoms: C_16  and  N_17 
ROOT
HETATM    1  C   UNL     1     -43.659  55.504 -53.323  1.00  0.00     0.246 A 
HETATM    2  N   UNL     1     -42.455  54.877 -52.822  1.00  0.00    -0.151 N 
HETATM    3  C   UNL     1     -41.775  53.956 -53.576  1.00  0.00     0.734 A 
HETATM    4  N   UNL     1     -40.736  53.516 -52.899  1.00  0.00    -0.060 NA
HETATM    5  C   UNL     1     -40.776  54.139 -51.677  1.00  0.00     0.103 A 
HETATM    6  C   UNL     1     -41.867  54.998 -51.592  1.00  0.00     0.083 A 
HETATM    7  C   UNL     1     -39.911  54.013 -50.581  1.00  0.00     0.034 A 
HETATM    8  C   UNL     1     -40.176  54.761 -49.428  1.00  0.00     0.002 A 
HETATM    9  C   UNL     1     -41.279  55.615 -49.366  1.00  0.00     0.002 A 
HETATM   10  C   UNL     1     -42.154  55.755 -50.450  1.00  0.00     0.033 A 
HETATM   11  N   UNL     1     -42.168  53.590 -54.817  1.00  0.00    -0.033 NA
HETATM   12  C   UNL     1     -43.273  54.054 -55.280  1.00  0.00     0.193 A 
HETATM   13  N   UNL     1     -44.098  54.956 -54.605  1.00  0.00    -0.338 N 
HETATM   14  H   UNL     1     -44.924  55.347 -55.031  1.00  0.00     0.164 HD
ENDROOT
BRANCH   1  15
HETATM   15  C   UNL     1     -43.542  57.011 -53.502  1.00  0.00     0.020 A 
HETATM   16  C   UNL     1     -44.141  57.861 -52.546  1.00  0.00     0.078 A 
HETATM   17  C   UNL     1     -44.083  59.249 -52.704  1.00  0.00     0.039 A 
HETATM   18  C   UNL     1     -43.424  59.807 -53.801  1.00  0.00     0.022 A 
HETATM   19  C   UNL     1     -42.840  58.979 -54.751  1.00  0.00     0.011 A 
HETATM   20  C   UNL     1     -42.907  57.593 -54.619  1.00  0.00     0.033 A 
HETATM   21 BR   UNL     1     -41.955  59.737 -56.239  1.00  0.00    -0.051 Br
BRANCH  16  22
HETATM   22  O   UNL     1     -44.800  57.227 -51.523  1.00  0.00    -0.355 OA
HETATM   23  C   UNL     1     -45.542  58.055 -50.629  1.00  0.00     0.210 C 
ENDBRANCH  16  22
ENDBRANCH   1  15
BRANCH  12  24
HETATM   24  N   UNL     1     -43.756  53.720 -56.494  1.00  0.00    -0.272 NA
HETATM   25  H   UNL     1     -43.550  52.747 -56.712  1.00  0.00     0.127 HD
HETATM   26  H   UNL     1     -44.730  53.934 -56.666  1.00  0.00     0.127 HD
ENDBRANCH  12  24
TORSDOF 3
ENDMDL
MODEL 10
REMARK VINA RESULT:      -6.2      2.728      3.736
REMARK  3 active torsions:
REMARK  status: ('A' for Active; 'I' for Inactive)
REMARK    1  A    between atoms: O_2  and  C_3 
REMARK    2  A    between atoms: C_4  and  C_5 
REMARK    3  A    between atoms: C_16  and  N_17 
ROOT
HETATM    1  C   UNL     1     -42.694  58.090 -57.659  1.00  0.00     0.246 A 
HETATM    2  N   UNL     1     -42.516  57.719 -56.272  1.00  0.00    -0.151 N 
HETATM    3  C   UNL     1     -42.035  58.622 -55.358  1.00  0.00     0.734 A 
HETATM    4  N   UNL     1     -41.941  58.045 -54.180  1.00  0.00    -0.060 NA
HETATM    5  C   UNL     1     -42.333  56.741 -54.353  1.00  0.00     0.103 A 
HETATM    6  C   UNL     1     -42.689  56.500 -55.675  1.00  0.00     0.083 A 
HETATM    7  C   UNL     1     -42.404  55.698 -53.418  1.00  0.00     0.034 A 
HETATM    8  C   UNL     1     -42.834  54.438 -53.851  1.00  0.00     0.002 A 
HETATM    9  C   UNL     1     -43.184  54.220 -55.186  1.00  0.00     0.002 A 
HETATM   10  C   UNL     1     -43.119  55.249 -56.134  1.00  0.00     0.033 A 
HETATM   11  N   UNL     1     -41.714  59.894 -55.684  1.00  0.00    -0.033 NA
HETATM   12  C   UNL     1     -41.776  60.255 -56.915  1.00  0.00     0.193 A 
HETATM   13  N   UNL     1     -42.194  59.430 -57.962  1.00  0.00    -0.338 N 
HETATM   14  H   UNL     1     -42.292  59.772 -58.905  1.00  0.00     0.164 HD
ENDROOT
BRANCH   1  15
HETATM   15  C   UNL     1     -44.140  58.039 -58.132  1.00  0.00     0.020 A 
HETATM   16  C   UNL     1     -44.540  56.992 -58.991  1.00  0.00     0.078 A 
HETATM   17  C   UNL     1     -45.852  56.940 -59.472  1.00  0.00     0.039 A 
HETATM   18  C   UNL     1     -46.780  57.915 -59.100  1.00  0.00     0.022 A 
HETATM   19  C   UNL     1     -46.392  58.953 -58.262  1.00  0.00     0.011 A 
HETATM   20  C   UNL     1     -45.082  59.031 -57.791  1.00  0.00     0.033 A 
HETATM   21 BR   UNL     1     -47.647  60.276 -57.765  1.00  0.00    -0.051 Br
BRANCH  16  22
HETATM   22  O   UNL     1     -43.556  56.101 -59.336  1.00  0.00    -0.355 OA
HETATM   23  C   UNL     1     -43.983  54.819 -59.792  1.00  0.00     0.210 C 
ENDBRANCH  16  22
ENDBRANCH   1  15
BRANCH  12  24
HETATM   24  N   UNL     1     -41.446  61.494 -57.333  1.00  0.00    -0.272 NA
HETATM   25  H   UNL     1     -41.847  61.687 -58.248  1.00  0.00     0.127 HD
HETATM   26  H   UNL     1     -41.629  62.251 -56.687  1.00  0.00     0.127 HD
ENDBRANCH  12  24
TORSDOF 3
ENDMDL
