MODEL 1
REMARK VINA RESULT:      -7.6      0.000      0.000
REMARK  2 active torsions:
REMARK  status: ('A' for Active; 'I' for Inactive)
REMARK    1  A    between atoms: C_2  and  C_3 
REMARK    2  A    between atoms: C_6  and  C_7 
ROOT
HETATM    1  C   UNL     1     -43.028  56.521 -54.668  1.00  0.00     0.119 C 
HETATM    2  S   UNL     1     -43.372  57.451 -53.159  1.00  0.00    -0.141 SA
HETATM    3  C   UNL     1     -41.939  58.551 -52.993  1.00  0.00     0.136 C 
HETATM    4  C   UNL     1     -40.545  57.965 -53.127  1.00  0.00     0.031 C 
HETATM    5  C   UNL     1     -42.093  59.770 -53.858  1.00  0.00     0.236 C 
HETATM    6  O   UNL     1     -42.011  60.912 -53.423  1.00  0.00    -0.272 OA
HETATM    7  N   UNL     1     -42.235  59.718 -55.273  1.00  0.00    -0.311 N 
HETATM    8  C   UNL     1     -42.380  58.635 -56.118  1.00  0.00     0.134 A 
HETATM    9  C   UNL     1     -42.683  57.301 -55.896  1.00  0.00     0.032 A 
HETATM   10  N   UNL     1     -42.279  58.781 -57.479  1.00  0.00    -0.262 N 
HETATM   11  H   UNL     1     -42.078  59.624 -58.005  1.00  0.00     0.191 HD
HETATM   12  N   UNL     1     -42.464  57.658 -58.167  1.00  0.00    -0.178 NA
HETATM   13  C   UNL     1     -42.749  56.751 -57.232  1.00  0.00     0.062 A 
HETATM   14  C   UNL     1     -43.074  55.360 -57.659  1.00  0.00     0.073 C 
HETATM   15  H   UNL     1     -42.205  60.647 -55.682  1.00  0.00     0.170 HD
ENDROOT
BRANCH   1  16
HETATM   16  C   UNL     1     -42.089  55.334 -54.464  1.00  0.00    -0.040 A 
HETATM   17  C   UNL     1     -42.479  54.346 -53.536  1.00  0.00     0.009 A 
HETATM   18  C   UNL     1     -41.694  53.216 -53.295  1.00  0.00     0.007 A 
HETATM   19  C   UNL     1     -40.488  53.035 -53.973  1.00  0.00    -0.059 A 
HETATM   20  C   UNL     1     -40.087  54.001 -54.901  1.00  0.00     0.007 A 
HETATM   21  C   UNL     1     -40.874  55.134 -55.141  1.00  0.00     0.009 A 
BRANCH  19  22
HETATM   22  C   UNL     1     -39.652  51.803 -53.731  1.00  0.00     0.034 C 
HETATM   23  C   UNL     1     -40.259  50.569 -54.382  1.00  0.00     0.010 C 
ENDBRANCH  19  22
ENDBRANCH   1  16
TORSDOF 2
ENDMDL
MODEL 2
REMARK VINA RESULT:      -7.2      3.255      4.285
REMARK  2 active torsions:
REMARK  status: ('A' for Active; 'I' for Inactive)
REMARK    1  A    between atoms: C_2  and  C_3 
REMARK    2  A    between atoms: C_6  and  C_7 
ROOT
HETATM    1  C   UNL     1     -42.557  57.630 -53.051  1.00  0.00     0.119 C 
HETATM    2  S   UNL     1     -44.350  57.570 -53.262  1.00  0.00    -0.141 SA
HETATM    3  C   UNL     1     -44.975  57.321 -51.578  1.00  0.00     0.136 C 
HETATM    4  C   UNL     1     -44.356  56.234 -50.718  1.00  0.00     0.031 C 
HETATM    5  C   UNL     1     -45.041  58.622 -50.830  1.00  0.00     0.236 C 
HETATM    6  O   UNL     1     -46.062  59.032 -50.291  1.00  0.00    -0.272 OA
HETATM    7  N   UNL     1     -43.907  59.446 -50.581  1.00  0.00    -0.311 N 
HETATM    8  C   UNL     1     -42.606  59.333 -51.028  1.00  0.00     0.134 A 
HETATM    9  C   UNL     1     -42.014  58.576 -52.027  1.00  0.00     0.032 A 
HETATM   10  N   UNL     1     -41.605  60.107 -50.495  1.00  0.00    -0.262 N 
HETATM   11  H   UNL     1     -41.671  60.790 -49.748  1.00  0.00     0.191 HD
HETATM   12  N   UNL     1     -40.408  59.907 -51.037  1.00  0.00    -0.178 NA
HETATM   13  C   UNL     1     -40.635  59.009 -51.998  1.00  0.00     0.062 A 
HETATM   14  C   UNL     1     -39.499  58.586 -52.865  1.00  0.00     0.073 C 
HETATM   15  H   UNL     1     -44.139  60.217 -49.961  1.00  0.00     0.170 HD
ENDROOT
BRANCH   1  16
HETATM   16  C   UNL     1     -41.897  56.257 -52.964  1.00  0.00    -0.040 A 
HETATM   17  C   UNL     1     -41.751  55.527 -54.162  1.00  0.00     0.009 A 
HETATM   18  C   UNL     1     -41.143  54.269 -54.185  1.00  0.00     0.007 A 
HETATM   19  C   UNL     1     -40.662  53.694 -53.007  1.00  0.00    -0.059 A 
HETATM   20  C   UNL     1     -40.792  54.405 -51.811  1.00  0.00     0.007 A 
HETATM   21  C   UNL     1     -41.402  55.666 -51.789  1.00  0.00     0.009 A 
BRANCH  19  22
HETATM   22  C   UNL     1     -39.984  52.348 -53.036  1.00  0.00     0.034 C 
HETATM   23  C   UNL     1     -40.310  51.575 -54.306  1.00  0.00     0.010 C 
ENDBRANCH  19  22
ENDBRANCH   1  16
TORSDOF 2
ENDMDL
MODEL 3
REMARK VINA RESULT:      -7.1      1.398      1.849
REMARK  2 active torsions:
REMARK  status: ('A' for Active; 'I' for Inactive)
REMARK    1  A    between atoms: C_2  and  C_3 
REMARK    2  A    between atoms: C_6  and  C_7 
ROOT
HETATM    1  C   UNL     1     -43.159  57.247 -53.777  1.00  0.00     0.119 C 
HETATM    2  S   UNL     1     -43.750  57.493 -52.088  1.00  0.00    -0.141 SA
HETATM    3  C   UNL     1     -42.343  58.267 -51.247  1.00  0.00     0.136 C 
HETATM    4  C   UNL     1     -40.965  57.649 -51.400  1.00  0.00     0.031 C 
HETATM    5  C   UNL     1     -42.299  59.744 -51.516  1.00  0.00     0.236 C 
HETATM    6  O   UNL     1     -42.268  60.585 -50.627  1.00  0.00    -0.272 OA
HETATM    7  N   UNL     1     -42.178  60.303 -52.820  1.00  0.00    -0.311 N 
HETATM    8  C   UNL     1     -42.196  59.693 -54.059  1.00  0.00     0.134 A 
HETATM    9  C   UNL     1     -42.571  58.428 -54.482  1.00  0.00     0.032 A 
HETATM   10  N   UNL     1     -41.840  60.383 -55.192  1.00  0.00    -0.262 N 
HETATM   11  H   UNL     1     -41.521  61.342 -55.267  1.00  0.00     0.191 HD
HETATM   12  N   UNL     1     -41.926  59.675 -56.314  1.00  0.00    -0.178 NA
HETATM   13  C   UNL     1     -42.404  58.496 -55.916  1.00  0.00     0.062 A 
HETATM   14  C   UNL     1     -42.684  57.453 -56.944  1.00  0.00     0.073 C 
HETATM   15  H   UNL     1     -42.047  61.310 -52.780  1.00  0.00     0.170 HD
ENDROOT
BRANCH   1  16
HETATM   16  C   UNL     1     -42.308  55.993 -53.959  1.00  0.00    -0.040 A 
HETATM   17  C   UNL     1     -42.917  54.748 -53.699  1.00  0.00     0.009 A 
HETATM   18  C   UNL     1     -42.223  53.545 -53.855  1.00  0.00     0.007 A 
HETATM   19  C   UNL     1     -40.892  53.546 -54.274  1.00  0.00    -0.059 A 
HETATM   20  C   UNL     1     -40.273  54.770 -54.542  1.00  0.00     0.007 A 
HETATM   21  C   UNL     1     -40.969  55.975 -54.385  1.00  0.00     0.009 A 
BRANCH  19  22
HETATM   22  C   UNL     1     -40.151  52.246 -54.466  1.00  0.00     0.034 C 
HETATM   23  C   UNL     1     -39.706  51.646 -53.141  1.00  0.00     0.010 C 
ENDBRANCH  19  22
ENDBRANCH   1  16
TORSDOF 2
ENDMDL
MODEL 4
REMARK VINA RESULT:      -7.1      2.952      4.505
REMARK  2 active torsions:
REMARK  status: ('A' for Active; 'I' for Inactive)
REMARK    1  A    between atoms: C_2  and  C_3 
REMARK    2  A    between atoms: C_6  and  C_7 
ROOT
HETATM    1  C   UNL     1     -41.164  55.664 -53.367  1.00  0.00     0.119 C 
HETATM    2  S   UNL     1     -41.686  56.398 -54.932  1.00  0.00    -0.141 SA
HETATM    3  C   UNL     1     -43.412  55.869 -55.104  1.00  0.00     0.136 C 
HETATM    4  C   UNL     1     -43.755  54.405 -54.893  1.00  0.00     0.031 C 
HETATM    5  C   UNL     1     -44.329  56.753 -54.309  1.00  0.00     0.236 C 
HETATM    6  O   UNL     1     -45.293  57.328 -54.798  1.00  0.00    -0.272 OA
HETATM    7  N   UNL     1     -44.234  56.920 -52.898  1.00  0.00    -0.311 N 
HETATM    8  C   UNL     1     -43.289  56.456 -52.005  1.00  0.00     0.134 A 
HETATM    9  C   UNL     1     -42.025  55.910 -52.168  1.00  0.00     0.032 A 
HETATM   10  N   UNL     1     -43.495  56.537 -50.650  1.00  0.00    -0.262 N 
HETATM   11  H   UNL     1     -44.308  56.895 -50.161  1.00  0.00     0.191 HD
HETATM   12  N   UNL     1     -42.492  56.072 -49.913  1.00  0.00    -0.178 NA
HETATM   13  C   UNL     1     -41.569  55.720 -50.810  1.00  0.00     0.062 A 
HETATM   14  C   UNL     1     -40.261  55.198 -50.323  1.00  0.00     0.073 C 
HETATM   15  H   UNL     1     -45.014  57.461 -52.537  1.00  0.00     0.170 HD
ENDROOT
BRANCH   1  16
HETATM   16  C   UNL     1     -40.747  54.200 -53.478  1.00  0.00    -0.040 A 
HETATM   17  C   UNL     1     -40.308  53.741 -54.737  1.00  0.00     0.009 A 
HETATM   18  C   UNL     1     -39.889  52.422 -54.931  1.00  0.00     0.007 A 
HETATM   19  C   UNL     1     -39.898  51.514 -53.871  1.00  0.00    -0.059 A 
HETATM   20  C   UNL     1     -40.325  51.952 -52.615  1.00  0.00     0.007 A 
HETATM   21  C   UNL     1     -40.745  53.274 -52.421  1.00  0.00     0.009 A 
BRANCH  19  22
HETATM   22  C   UNL     1     -39.423  50.097 -54.076  1.00  0.00     0.034 C 
HETATM   23  C   UNL     1     -39.483  49.287 -52.790  1.00  0.00     0.010 C 
ENDBRANCH  19  22
ENDBRANCH   1  16
TORSDOF 2
ENDMDL
MODEL 5
REMARK VINA RESULT:      -7.1      2.665      3.856
REMARK  2 active torsions:
REMARK  status: ('A' for Active; 'I' for Inactive)
REMARK    1  A    between atoms: C_2  and  C_3 
REMARK    2  A    between atoms: C_6  and  C_7 
ROOT
HETATM    1  C   UNL     1     -41.655  56.776 -51.434  1.00  0.00     0.119 C 
HETATM    2  S   UNL     1     -40.436  58.075 -51.735  1.00  0.00    -0.141 SA
HETATM    3  C   UNL     1     -41.042  58.896 -53.234  1.00  0.00     0.136 C 
HETATM    4  C   UNL     1     -41.439  58.047 -54.428  1.00  0.00     0.031 C 
HETATM    5  C   UNL     1     -42.118  59.892 -52.905  1.00  0.00     0.236 C 
HETATM    6  O   UNL     1     -42.067  61.068 -53.245  1.00  0.00    -0.272 OA
HETATM    7  N   UNL     1     -43.344  59.546 -52.270  1.00  0.00    -0.311 N 
HETATM    8  C   UNL     1     -43.763  58.345 -51.732  1.00  0.00     0.134 A 
HETATM    9  C   UNL     1     -43.096  57.177 -51.398  1.00  0.00     0.032 A 
HETATM   10  N   UNL     1     -45.071  58.154 -51.360  1.00  0.00    -0.262 N 
HETATM   11  H   UNL     1     -45.847  58.802 -51.445  1.00  0.00     0.191 HD
HETATM   12  N   UNL     1     -45.325  56.958 -50.838  1.00  0.00    -0.178 NA
HETATM   13  C   UNL     1     -44.134  56.358 -50.813  1.00  0.00     0.062 A 
HETATM   14  C   UNL     1     -44.033  54.992 -50.225  1.00  0.00     0.073 C 
HETATM   15  H   UNL     1     -43.983  60.335 -52.244  1.00  0.00     0.170 HD
ENDROOT
BRANCH   1  16
HETATM   16  C   UNL     1     -41.434  55.515 -52.264  1.00  0.00    -0.040 A 
HETATM   17  C   UNL     1     -40.604  54.513 -51.721  1.00  0.00     0.009 A 
HETATM   18  C   UNL     1     -40.358  53.317 -52.399  1.00  0.00     0.007 A 
HETATM   19  C   UNL     1     -40.933  53.081 -53.649  1.00  0.00    -0.059 A 
HETATM   20  C   UNL     1     -41.763  54.060 -54.202  1.00  0.00     0.007 A 
HETATM   21  C   UNL     1     -42.009  55.259 -53.521  1.00  0.00     0.009 A 
BRANCH  19  22
HETATM   22  C   UNL     1     -40.686  51.779 -54.370  1.00  0.00     0.034 C 
HETATM   23  C   UNL     1     -39.651  50.923 -53.657  1.00  0.00     0.010 C 
ENDBRANCH  19  22
ENDBRANCH   1  16
TORSDOF 2
ENDMDL
MODEL 6
REMARK VINA RESULT:      -6.8      3.082      5.013
REMARK  2 active torsions:
REMARK  status: ('A' for Active; 'I' for Inactive)
REMARK    1  A    between atoms: C_2  and  C_3 
REMARK    2  A    between atoms: C_6  and  C_7 
ROOT
HETATM    1  C   UNL     1     -41.946  56.916 -54.395  1.00  0.00     0.119 C 
HETATM    2  S   UNL     1     -42.654  58.384 -53.617  1.00  0.00    -0.141 SA
HETATM    3  C   UNL     1     -44.355  57.889 -53.228  1.00  0.00     0.136 C 
HETATM    4  C   UNL     1     -45.190  57.223 -54.307  1.00  0.00     0.031 C 
HETATM    5  C   UNL     1     -44.409  57.105 -51.948  1.00  0.00     0.236 C 
HETATM    6  O   UNL     1     -45.131  57.410 -51.008  1.00  0.00    -0.272 OA
HETATM    7  N   UNL     1     -43.716  55.878 -51.747  1.00  0.00    -0.311 N 
HETATM    8  C   UNL     1     -42.805  55.223 -52.553  1.00  0.00     0.134 A 
HETATM    9  C   UNL     1     -42.077  55.616 -53.665  1.00  0.00     0.032 A 
HETATM   10  N   UNL     1     -42.415  53.936 -52.280  1.00  0.00    -0.262 N 
HETATM   11  H   UNL     1     -42.732  53.332 -51.529  1.00  0.00     0.191 HD
HETATM   12  N   UNL     1     -41.518  53.442 -53.127  1.00  0.00    -0.178 NA
HETATM   13  C   UNL     1     -41.266  54.456 -53.956  1.00  0.00     0.062 A 
HETATM   14  C   UNL     1     -40.242  54.271 -55.023  1.00  0.00     0.073 C 
HETATM   15  H   UNL     1     -43.975  55.447 -50.865  1.00  0.00     0.170 HD
ENDROOT
BRANCH   1  16
HETATM   16  C   UNL     1     -42.287  56.774 -55.876  1.00  0.00    -0.040 A 
HETATM   17  C   UNL     1     -42.863  55.558 -56.300  1.00  0.00     0.009 A 
HETATM   18  C   UNL     1     -43.225  55.343 -57.632  1.00  0.00     0.007 A 
HETATM   19  C   UNL     1     -43.021  56.337 -58.590  1.00  0.00    -0.059 A 
HETATM   20  C   UNL     1     -42.457  57.551 -58.189  1.00  0.00     0.007 A 
HETATM   21  C   UNL     1     -42.093  57.766 -56.853  1.00  0.00     0.009 A 
BRANCH  19  22
HETATM   22  C   UNL     1     -43.434  56.113 -60.023  1.00  0.00     0.034 C 
HETATM   23  C   UNL     1     -44.381  54.931 -60.163  1.00  0.00     0.010 C 
ENDBRANCH  19  22
ENDBRANCH   1  16
TORSDOF 2
ENDMDL
MODEL 7
REMARK VINA RESULT:      -6.8      1.516      2.057
REMARK  2 active torsions:
REMARK  status: ('A' for Active; 'I' for Inactive)
REMARK    1  A    between atoms: C_2  and  C_3 
REMARK    2  A    between atoms: C_6  and  C_7 
ROOT
HETATM    1  C   UNL     1     -43.458  56.239 -53.808  1.00  0.00     0.119 C 
HETATM    2  S   UNL     1     -43.779  57.780 -52.925  1.00  0.00    -0.141 SA
HETATM    3  C   UNL     1     -42.260  58.740 -53.163  1.00  0.00     0.136 C 
HETATM    4  C   UNL     1     -40.921  58.073 -52.900  1.00  0.00     0.031 C 
HETATM    5  C   UNL     1     -42.261  59.429 -54.498  1.00  0.00     0.236 C 
HETATM    6  O   UNL     1     -42.093  60.635 -54.627  1.00  0.00    -0.272 OA
HETATM    7  N   UNL     1     -42.344  58.739 -55.740  1.00  0.00    -0.311 N 
HETATM    8  C   UNL     1     -42.553  57.400 -56.006  1.00  0.00     0.134 A 
HETATM    9  C   UNL     1     -42.988  56.340 -55.225  1.00  0.00     0.032 A 
HETATM   10  N   UNL     1     -42.379  56.894 -57.270  1.00  0.00    -0.262 N 
HETATM   11  H   UNL     1     -42.077  57.384 -58.104  1.00  0.00     0.191 HD
HETATM   12  N   UNL     1     -42.637  55.594 -57.382  1.00  0.00    -0.178 NA
HETATM   13  C   UNL     1     -43.046  55.241 -56.162  1.00  0.00     0.062 A 
HETATM   14  C   UNL     1     -43.480  53.834 -55.933  1.00  0.00     0.073 C 
HETATM   15  H   UNL     1     -42.210  59.370 -56.524  1.00  0.00     0.170 HD
ENDROOT
BRANCH   1  16
HETATM   16  C   UNL     1     -42.643  55.225 -53.010  1.00  0.00    -0.040 A 
HETATM   17  C   UNL     1     -41.368  54.880 -53.502  1.00  0.00     0.009 A 
HETATM   18  C   UNL     1     -40.542  53.974 -52.830  1.00  0.00     0.007 A 
HETATM   19  C   UNL     1     -40.966  53.379 -51.641  1.00  0.00    -0.059 A 
HETATM   20  C   UNL     1     -42.225  53.712 -51.134  1.00  0.00     0.007 A 
HETATM   21  C   UNL     1     -43.052  54.619 -51.809  1.00  0.00     0.009 A 
BRANCH  19  22
HETATM   22  C   UNL     1     -40.065  52.420 -50.903  1.00  0.00     0.034 C 
HETATM   23  C   UNL     1     -39.389  51.437 -51.846  1.00  0.00     0.010 C 
ENDBRANCH  19  22
ENDBRANCH   1  16
TORSDOF 2
ENDMDL
MODEL 8
REMARK VINA RESULT:      -6.6     16.382     19.173
REMARK  2 active torsions:
REMARK  status: ('A' for Active; 'I' for Inactive)
REMARK    1  A    between atoms: C_2  and  C_3 
REMARK    2  A    between atoms: C_6  and  C_7 
ROOT
HETATM    1  C   UNL     1     -34.166  39.003 -51.964  1.00  0.00     0.119 C 
HETATM    2  S   UNL     1     -35.834  39.691 -51.887  1.00  0.00    -0.141 SA
HETATM    3  C   UNL     1     -35.572  41.478 -52.049  1.00  0.00     0.136 C 
HETATM    4  C   UNL     1     -34.520  42.147 -51.182  1.00  0.00     0.031 C 
HETATM    5  C   UNL     1     -35.406  41.870 -53.489  1.00  0.00     0.236 C 
HETATM    6  O   UNL     1     -36.090  42.730 -54.031  1.00  0.00    -0.272 OA
HETATM    7  N   UNL     1     -34.373  41.366 -54.329  1.00  0.00    -0.311 N 
HETATM    8  C   UNL     1     -33.428  40.387 -54.093  1.00  0.00     0.134 A 
HETATM    9  C   UNL     1     -33.302  39.414 -53.113  1.00  0.00     0.032 A 
HETATM   10  N   UNL     1     -32.374  40.199 -54.952  1.00  0.00    -0.262 N 
HETATM   11  H   UNL     1     -32.149  40.722 -55.791  1.00  0.00     0.191 HD
HETATM   12  N   UNL     1     -31.556  39.208 -54.610  1.00  0.00    -0.178 NA
HETATM   13  C   UNL     1     -32.119  38.689 -53.518  1.00  0.00     0.062 A 
HETATM   14  C   UNL     1     -31.485  37.498 -52.884  1.00  0.00     0.073 C 
HETATM   15  H   UNL     1     -34.361  41.841 -55.227  1.00  0.00     0.170 HD
ENDROOT
BRANCH   1  16
HETATM   16  C   UNL     1     -33.413  39.054 -50.638  1.00  0.00    -0.040 A 
HETATM   17  C   UNL     1     -33.841  38.187 -49.611  1.00  0.00     0.009 A 
HETATM   18  C   UNL     1     -33.202  38.149 -48.369  1.00  0.00     0.007 A 
HETATM   19  C   UNL     1     -32.112  38.982 -48.108  1.00  0.00    -0.059 A 
HETATM   20  C   UNL     1     -31.670  39.845 -49.115  1.00  0.00     0.007 A 
HETATM   21  C   UNL     1     -32.312  39.882 -50.360  1.00  0.00     0.009 A 
BRANCH  19  22
HETATM   22  C   UNL     1     -31.408  38.924 -46.776  1.00  0.00     0.034 C 
HETATM   23  C   UNL     1     -30.395  40.048 -46.620  1.00  0.00     0.010 C 
ENDBRANCH  19  22
ENDBRANCH   1  16
TORSDOF 2
ENDMDL
MODEL 9
REMARK VINA RESULT:      -6.6     16.437     18.403
REMARK  2 active torsions:
REMARK  status: ('A' for Active; 'I' for Inactive)
REMARK    1  A    between atoms: C_2  and  C_3 
REMARK    2  A    between atoms: C_6  and  C_7 
ROOT
HETATM    1  C   UNL     1     -35.268  39.449 -54.291  1.00  0.00     0.119 C 
HETATM    2  S   UNL     1     -34.510  37.852 -54.658  1.00  0.00    -0.141 SA
HETATM    3  C   UNL     1     -32.780  38.265 -55.009  1.00  0.00     0.136 C 
HETATM    4  C   UNL     1     -32.477  39.399 -55.973  1.00  0.00     0.031 C 
HETATM    5  C   UNL     1     -31.994  38.419 -53.739  1.00  0.00     0.236 C 
HETATM    6  O   UNL     1     -30.964  37.796 -53.510  1.00  0.00    -0.272 OA
HETATM    7  N   UNL     1     -32.304  39.376 -52.732  1.00  0.00    -0.311 N 
HETATM    8  C   UNL     1     -33.377  40.239 -52.619  1.00  0.00     0.134 A 
HETATM    9  C   UNL     1     -34.602  40.309 -53.264  1.00  0.00     0.032 A 
HETATM   10  N   UNL     1     -33.381  41.244 -51.684  1.00  0.00    -0.262 N 
HETATM   11  H   UNL     1     -32.653  41.487 -51.022  1.00  0.00     0.191 HD
HETATM   12  N   UNL     1     -34.488  41.982 -51.676  1.00  0.00    -0.178 NA
HETATM   13  C   UNL     1     -35.262  41.411 -52.600  1.00  0.00     0.062 A 
HETATM   14  C   UNL     1     -36.631  41.957 -52.823  1.00  0.00     0.073 C 
HETATM   15  H   UNL     1     -31.588  39.402 -52.012  1.00  0.00     0.170 HD
ENDROOT
BRANCH   1  16
HETATM   16  C   UNL     1     -35.667  40.246 -55.530  1.00  0.00    -0.040 A 
HETATM   17  C   UNL     1     -36.782  39.793 -56.266  1.00  0.00     0.009 A 
HETATM   18  C   UNL     1     -37.232  40.467 -57.404  1.00  0.00     0.007 A 
HETATM   19  C   UNL     1     -36.581  41.618 -57.848  1.00  0.00    -0.059 A 
HETATM   20  C   UNL     1     -35.477  42.086 -57.129  1.00  0.00     0.007 A 
HETATM   21  C   UNL     1     -35.026  41.410 -55.989  1.00  0.00     0.009 A 
BRANCH  19  22
HETATM   22  C   UNL     1     -37.082  42.359 -59.063  1.00  0.00     0.034 C 
HETATM   23  C   UNL     1     -37.464  41.411 -60.188  1.00  0.00     0.010 C 
ENDBRANCH  19  22
ENDBRANCH   1  16
TORSDOF 2
ENDMDL
MODEL 10
REMARK VINA RESULT:      -6.5      2.818      5.248
REMARK  2 active torsions:
REMARK  status: ('A' for Active; 'I' for Inactive)
REMARK    1  A    between atoms: C_2  and  C_3 
REMARK    2  A    between atoms: C_6  and  C_7 
ROOT
HETATM    1  C   UNL     1     -42.679  56.188 -53.529  1.00  0.00     0.119 C 
HETATM    2  S   UNL     1     -44.126  56.869 -54.367  1.00  0.00    -0.141 SA
HETATM    3  C   UNL     1     -43.442  57.621 -55.869  1.00  0.00     0.136 C 
HETATM    4  C   UNL     1     -42.235  58.534 -55.748  1.00  0.00     0.031 C 
HETATM    5  C   UNL     1     -43.227  56.589 -56.939  1.00  0.00     0.236 C 
HETATM    6  O   UNL     1     -43.698  56.687 -58.066  1.00  0.00    -0.272 OA
HETATM    7  N   UNL     1     -42.372  55.461 -56.785  1.00  0.00    -0.311 N 
HETATM    8  C   UNL     1     -41.687  55.005 -55.676  1.00  0.00     0.134 A 
HETATM    9  C   UNL     1     -41.774  55.302 -54.325  1.00  0.00     0.032 A 
HETATM   10  N   UNL     1     -40.735  54.022 -55.788  1.00  0.00    -0.262 N 
HETATM   11  H   UNL     1     -40.415  53.553 -56.628  1.00  0.00     0.191 HD
HETATM   12  N   UNL     1     -40.174  53.667 -54.636  1.00  0.00    -0.178 NA
HETATM   13  C   UNL     1     -40.814  54.403 -53.726  1.00  0.00     0.062 A 
HETATM   14  C   UNL     1     -40.471  54.218 -52.287  1.00  0.00     0.073 C 
HETATM   15  H   UNL     1     -42.271  54.952 -57.658  1.00  0.00     0.170 HD
ENDROOT
BRANCH   1  16
HETATM   16  C   UNL     1     -41.898  57.212 -52.710  1.00  0.00    -0.040 A 
HETATM   17  C   UNL     1     -42.297  57.419 -51.373  1.00  0.00     0.009 A 
HETATM   18  C   UNL     1     -41.632  58.323 -50.541  1.00  0.00     0.007 A 
HETATM   19  C   UNL     1     -40.544  59.055 -51.018  1.00  0.00    -0.059 A 
HETATM   20  C   UNL     1     -40.130  58.860 -52.339  1.00  0.00     0.007 A 
HETATM   21  C   UNL     1     -40.798  57.954 -53.173  1.00  0.00     0.009 A 
BRANCH  19  22
HETATM   22  C   UNL     1     -39.811  60.013 -50.112  1.00  0.00     0.034 C 
HETATM   23  C   UNL     1     -38.314  59.744 -50.095  1.00  0.00     0.010 C 
ENDBRANCH  19  22
ENDBRANCH   1  16
TORSDOF 2
ENDMDL
