MODEL 1
REMARK VINA RESULT:      -8.8      0.000      0.000
REMARK  7 active torsions:
REMARK  status: ('A' for Active; 'I' for Inactive)
REMARK    1  A    between atoms: C_2  and  O_3 
REMARK    2  A    between atoms: O_3  and  C_4 
REMARK    3  A    between atoms: C_4  and  C_5 
REMARK    4  A    between atoms: C_6  and  C_7 
REMARK    5  A    between atoms: C_18  and  S_19 
REMARK    6  A    between atoms: S_19  and  C_20 
REMARK    7  A    between atoms: C_20  and  C_21 
ROOT
HETATM    1  C   UNL     1     -42.846  57.055 -58.551  1.00  0.00     0.070 A 
HETATM    2  C   UNL     1     -42.423  57.716 -57.242  1.00  0.00     0.203 A 
HETATM    3  N   UNL     1     -42.714  56.856 -56.088  1.00  0.00    -0.082 N 
HETATM    4  C   UNL     1     -43.282  55.615 -56.177  1.00  0.00     0.726 A 
HETATM    5  N   UNL     1     -43.605  55.124 -57.386  1.00  0.00    -0.192 N 
HETATM    6  N   UNL     1     -42.395  57.157 -54.815  1.00  0.00    -0.128 NA
HETATM    7  C   UNL     1     -42.879  56.087 -54.173  1.00  0.00     0.226 A 
HETATM    8  N   UNL     1     -43.409  55.107 -54.977  1.00  0.00    -0.035 NA
HETATM    9  C   UNL     1     -43.400  55.817 -58.575  1.00  0.00     0.037 A 
HETATM   10  C   UNL     1     -43.803  55.083 -59.832  1.00  0.00     0.070 C 
HETATM   11  H   UNL     1     -44.032  54.204 -57.444  1.00  0.00     0.184 HD
ENDROOT
BRANCH   7  12
HETATM   12  S   UNL     1     -42.839  55.999 -52.437  1.00  0.00    -0.083 SA
BRANCH  12  13
HETATM   13  C   UNL     1     -41.061  55.782 -52.160  1.00  0.00     0.121 C 
BRANCH  13  14
HETATM   14  C   UNL     1     -40.683  54.320 -52.093  1.00  0.00    -0.048 A 
HETATM   15  C   UNL     1     -40.635  53.539 -53.260  1.00  0.00     0.020 A 
HETATM   16  C   UNL     1     -40.259  52.186 -53.216  1.00  0.00    -0.025 A 
HETATM   17  C   UNL     1     -39.935  51.597 -51.974  1.00  0.00    -0.026 A 
HETATM   18  C   UNL     1     -40.191  51.407 -54.383  1.00  0.00     0.012 A 
HETATM   19  C   UNL     1     -39.991  52.378 -50.810  1.00  0.00     0.013 A 
HETATM   20  C   UNL     1     -39.556  50.245 -51.931  1.00  0.00     0.012 A 
HETATM   21  C   UNL     1     -40.356  53.726 -50.869  1.00  0.00     0.009 A 
HETATM   22  C   UNL     1     -39.494  49.485 -53.100  1.00  0.00     0.001 A 
HETATM   23  C   UNL     1     -39.810  50.065 -54.325  1.00  0.00     0.001 A 
ENDBRANCH  13  14
ENDBRANCH  12  13
ENDBRANCH   7  12
BRANCH   2  24
HETATM   24  C   UNL     1     -43.036  59.099 -57.019  1.00  0.00    -0.028 A 
HETATM   25  C   UNL     1     -42.253  60.267 -57.024  1.00  0.00     0.012 A 
HETATM   26  C   UNL     1     -42.846  61.515 -56.813  1.00  0.00     0.043 A 
HETATM   27  C   UNL     1     -44.217  61.601 -56.607  1.00  0.00     0.116 A 
HETATM   28  F   UNL     1     -44.781  62.799 -56.404  1.00  0.00    -0.206 F 
HETATM   29  C   UNL     1     -45.012  60.463 -56.611  1.00  0.00     0.043 A 
HETATM   30  C   UNL     1     -44.425  59.215 -56.818  1.00  0.00     0.012 A 
ENDBRANCH   2  24
BRANCH   1  31
HETATM   31  C   UNL     1     -42.682  57.852 -59.788  1.00  0.00     0.293 C 
HETATM   32  O   UNL     1     -41.623  57.987 -60.381  1.00  0.00    -0.259 OA
BRANCH  31  33
HETATM   33  O   UNL     1     -43.876  58.371 -60.164  1.00  0.00    -0.318 OA
BRANCH  33  34
HETATM   34  C   UNL     1     -43.814  59.648 -60.821  1.00  0.00     0.174 C 
HETATM   35  C   UNL     1     -44.918  60.562 -60.319  1.00  0.00     0.034 C 
ENDBRANCH  33  34
ENDBRANCH  31  33
ENDBRANCH   1  31
TORSDOF 7
ENDMDL
MODEL 2
REMARK VINA RESULT:      -8.8      2.193      3.688
REMARK  7 active torsions:
REMARK  status: ('A' for Active; 'I' for Inactive)
REMARK    1  A    between atoms: C_2  and  O_3 
REMARK    2  A    between atoms: O_3  and  C_4 
REMARK    3  A    between atoms: C_4  and  C_5 
REMARK    4  A    between atoms: C_6  and  C_7 
REMARK    5  A    between atoms: C_18  and  S_19 
REMARK    6  A    between atoms: S_19  and  C_20 
REMARK    7  A    between atoms: C_20  and  C_21 
ROOT
HETATM    1  C   UNL     1     -43.367  59.776 -58.214  1.00  0.00     0.070 A 
HETATM    2  C   UNL     1     -44.157  58.613 -57.619  1.00  0.00     0.203 A 
HETATM    3  N   UNL     1     -43.531  58.113 -56.388  1.00  0.00    -0.082 N 
HETATM    4  C   UNL     1     -42.391  58.630 -55.840  1.00  0.00     0.726 A 
HETATM    5  N   UNL     1     -41.781  59.665 -56.443  1.00  0.00    -0.192 N 
HETATM    6  N   UNL     1     -44.041  57.132 -55.620  1.00  0.00    -0.128 NA
HETATM    7  C   UNL     1     -43.108  57.048 -54.664  1.00  0.00     0.226 A 
HETATM    8  N   UNL     1     -42.091  57.968 -54.751  1.00  0.00    -0.035 NA
HETATM    9  C   UNL     1     -42.243  60.250 -57.618  1.00  0.00     0.037 A 
HETATM   10  C   UNL     1     -41.435  61.422 -58.123  1.00  0.00     0.070 C 
HETATM   11  H   UNL     1     -40.930  60.041 -56.033  1.00  0.00     0.184 HD
ENDROOT
BRANCH   7  12
HETATM   12  S   UNL     1     -43.206  55.825 -53.432  1.00  0.00    -0.083 SA
BRANCH  12  13
HETATM   13  C   UNL     1     -41.503  55.848 -52.811  1.00  0.00     0.121 C 
BRANCH  13  14
HETATM   14  C   UNL     1     -40.987  54.451 -52.551  1.00  0.00    -0.048 A 
HETATM   15  C   UNL     1     -40.937  53.502 -53.586  1.00  0.00     0.020 A 
HETATM   16  C   UNL     1     -40.435  52.209 -53.366  1.00  0.00    -0.025 A 
HETATM   17  C   UNL     1     -39.984  51.852 -52.076  1.00  0.00    -0.026 A 
HETATM   18  C   UNL     1     -40.365  51.264 -54.403  1.00  0.00     0.012 A 
HETATM   19  C   UNL     1     -40.043  52.799 -51.043  1.00  0.00     0.013 A 
HETATM   20  C   UNL     1     -39.479  50.559 -51.857  1.00  0.00     0.012 A 
HETATM   21  C   UNL     1     -40.534  54.085 -51.278  1.00  0.00     0.009 A 
HETATM   22  C   UNL     1     -39.416  49.633 -52.899  1.00  0.00     0.001 A 
HETATM   23  C   UNL     1     -39.857  49.984 -54.171  1.00  0.00     0.001 A 
ENDBRANCH  13  14
ENDBRANCH  12  13
ENDBRANCH   7  12
BRANCH   2  24
HETATM   24  C   UNL     1     -44.381  57.454 -58.590  1.00  0.00    -0.028 A 
HETATM   25  C   UNL     1     -45.640  57.195 -59.159  1.00  0.00     0.012 A 
HETATM   26  C   UNL     1     -45.810  56.124 -60.040  1.00  0.00     0.043 A 
HETATM   27  C   UNL     1     -44.725  55.319 -60.363  1.00  0.00     0.116 A 
HETATM   28  F   UNL     1     -44.892  54.293 -61.208  1.00  0.00    -0.206 F 
HETATM   29  C   UNL     1     -43.469  55.563 -59.825  1.00  0.00     0.043 A 
HETATM   30  C   UNL     1     -43.295  56.629 -58.942  1.00  0.00     0.012 A 
ENDBRANCH   2  24
BRANCH   1  31
HETATM   31  C   UNL     1     -43.848  60.323 -59.502  1.00  0.00     0.293 C 
HETATM   32  O   UNL     1     -44.759  61.128 -59.608  1.00  0.00    -0.259 OA
BRANCH  31  33
HETATM   33  O   UNL     1     -43.107  59.821 -60.521  1.00  0.00    -0.318 OA
BRANCH  33  34
HETATM   34  C   UNL     1     -43.071  60.626 -61.711  1.00  0.00     0.174 C 
HETATM   35  C   UNL     1     -41.758  61.383 -61.806  1.00  0.00     0.034 C 
ENDBRANCH  33  34
ENDBRANCH  31  33
ENDBRANCH   1  31
TORSDOF 7
ENDMDL
MODEL 3
REMARK VINA RESULT:      -8.7      2.249      3.851
REMARK  7 active torsions:
REMARK  status: ('A' for Active; 'I' for Inactive)
REMARK    1  A    between atoms: C_2  and  O_3 
REMARK    2  A    between atoms: O_3  and  C_4 
REMARK    3  A    between atoms: C_4  and  C_5 
REMARK    4  A    between atoms: C_6  and  C_7 
REMARK    5  A    between atoms: C_18  and  S_19 
REMARK    6  A    between atoms: S_19  and  C_20 
REMARK    7  A    between atoms: C_20  and  C_21 
ROOT
HETATM    1  C   UNL     1     -43.290  59.921 -58.229  1.00  0.00     0.070 A 
HETATM    2  C   UNL     1     -44.071  58.761 -57.618  1.00  0.00     0.203 A 
HETATM    3  N   UNL     1     -43.477  58.324 -56.348  1.00  0.00    -0.082 N 
HETATM    4  C   UNL     1     -42.370  58.892 -55.781  1.00  0.00     0.726 A 
HETATM    5  N   UNL     1     -41.765  59.920 -56.402  1.00  0.00    -0.192 N 
HETATM    6  N   UNL     1     -43.988  57.359 -55.560  1.00  0.00    -0.128 NA
HETATM    7  C   UNL     1     -43.088  57.337 -54.570  1.00  0.00     0.226 A 
HETATM    8  N   UNL     1     -42.093  58.280 -54.657  1.00  0.00    -0.035 NA
HETATM    9  C   UNL     1     -42.200  60.447 -57.614  1.00  0.00     0.037 A 
HETATM   10  C   UNL     1     -41.405  61.620 -58.135  1.00  0.00     0.070 C 
HETATM   11  H   UNL     1     -40.940  60.333 -55.977  1.00  0.00     0.184 HD
ENDROOT
BRANCH   7  12
HETATM   12  S   UNL     1     -43.199  56.159 -53.295  1.00  0.00    -0.083 SA
BRANCH  12  13
HETATM   13  C   UNL     1     -41.446  55.964 -52.876  1.00  0.00     0.121 C 
BRANCH  13  14
HETATM   14  C   UNL     1     -40.971  54.549 -53.117  1.00  0.00    -0.048 A 
HETATM   15  C   UNL     1     -40.650  53.708 -52.039  1.00  0.00     0.020 A 
HETATM   16  C   UNL     1     -40.233  52.383 -52.247  1.00  0.00    -0.025 A 
HETATM   17  C   UNL     1     -40.123  51.890 -53.566  1.00  0.00    -0.026 A 
HETATM   18  C   UNL     1     -39.930  51.533 -51.170  1.00  0.00     0.012 A 
HETATM   19  C   UNL     1     -40.438  52.736 -54.641  1.00  0.00     0.013 A 
HETATM   20  C   UNL     1     -39.710  50.564 -53.773  1.00  0.00     0.012 A 
HETATM   21  C   UNL     1     -40.861  54.048 -54.419  1.00  0.00     0.009 A 
HETATM   22  C   UNL     1     -39.413  49.733 -52.692  1.00  0.00     0.001 A 
HETATM   23  C   UNL     1     -39.523  50.216 -51.392  1.00  0.00     0.001 A 
ENDBRANCH  13  14
ENDBRANCH  12  13
ENDBRANCH   7  12
BRANCH   2  24
HETATM   24  C   UNL     1     -44.230  57.560 -58.551  1.00  0.00    -0.028 A 
HETATM   25  C   UNL     1     -43.142  56.736 -58.891  1.00  0.00     0.012 A 
HETATM   26  C   UNL     1     -43.323  55.649 -59.750  1.00  0.00     0.043 A 
HETATM   27  C   UNL     1     -44.586  55.375 -60.261  1.00  0.00     0.116 A 
HETATM   28  F   UNL     1     -44.755  54.333 -61.084  1.00  0.00    -0.206 F 
HETATM   29  C   UNL     1     -45.677  56.167 -59.928  1.00  0.00     0.043 A 
HETATM   30  C   UNL     1     -45.502  57.255 -59.073  1.00  0.00     0.012 A 
ENDBRANCH   2  24
BRANCH   1  31
HETATM   31  C   UNL     1     -43.738  60.406 -59.554  1.00  0.00     0.293 C 
HETATM   32  O   UNL     1     -44.669  61.176 -59.723  1.00  0.00    -0.259 OA
BRANCH  31  33
HETATM   33  O   UNL     1     -42.943  59.893 -60.525  1.00  0.00    -0.318 OA
BRANCH  33  34
HETATM   34  C   UNL     1     -42.916  60.636 -61.755  1.00  0.00     0.174 C 
HETATM   35  C   UNL     1     -41.672  61.505 -61.827  1.00  0.00     0.034 C 
ENDBRANCH  33  34
ENDBRANCH  31  33
ENDBRANCH   1  31
TORSDOF 7
ENDMDL
MODEL 4
REMARK VINA RESULT:      -8.3      2.429      3.940
REMARK  7 active torsions:
REMARK  status: ('A' for Active; 'I' for Inactive)
REMARK    1  A    between atoms: C_2  and  O_3 
REMARK    2  A    between atoms: O_3  and  C_4 
REMARK    3  A    between atoms: C_4  and  C_5 
REMARK    4  A    between atoms: C_6  and  C_7 
REMARK    5  A    between atoms: C_18  and  S_19 
REMARK    6  A    between atoms: S_19  and  C_20 
REMARK    7  A    between atoms: C_20  and  C_21 
ROOT
HETATM    1  C   UNL     1     -45.975  59.394 -57.244  1.00  0.00     0.070 A 
HETATM    2  C   UNL     1     -45.270  58.079 -56.919  1.00  0.00     0.203 A 
HETATM    3  N   UNL     1     -44.824  58.042 -55.520  1.00  0.00    -0.082 N 
HETATM    4  C   UNL     1     -45.022  59.052 -54.621  1.00  0.00     0.726 A 
HETATM    5  N   UNL     1     -45.667  60.165 -55.014  1.00  0.00    -0.192 N 
HETATM    6  N   UNL     1     -44.226  56.983 -54.940  1.00  0.00    -0.128 NA
HETATM    7  C   UNL     1     -44.013  57.458 -53.707  1.00  0.00     0.226 A 
HETATM    8  N   UNL     1     -44.510  58.715 -53.465  1.00  0.00    -0.035 NA
HETATM    9  C   UNL     1     -46.147  60.359 -56.305  1.00  0.00     0.037 A 
HETATM   10  C   UNL     1     -46.870  61.663 -56.541  1.00  0.00     0.070 C 
HETATM   11  H   UNL     1     -45.806  60.915 -54.342  1.00  0.00     0.184 HD
ENDROOT
BRANCH   7  12
HETATM   12  S   UNL     1     -43.139  56.518 -52.533  1.00  0.00    -0.083 SA
BRANCH  12  13
HETATM   13  C   UNL     1     -41.510  56.436 -53.325  1.00  0.00     0.121 C 
BRANCH  13  14
HETATM   14  C   UNL     1     -41.063  55.007 -53.532  1.00  0.00    -0.048 A 
HETATM   15  C   UNL     1     -40.696  54.206 -52.438  1.00  0.00     0.020 A 
HETATM   16  C   UNL     1     -40.304  52.869 -52.612  1.00  0.00    -0.025 A 
HETATM   17  C   UNL     1     -40.267  52.322 -53.914  1.00  0.00    -0.026 A 
HETATM   18  C   UNL     1     -39.955  52.059 -51.518  1.00  0.00     0.012 A 
HETATM   19  C   UNL     1     -40.627  53.127 -55.005  1.00  0.00     0.013 A 
HETATM   20  C   UNL     1     -39.879  50.983 -54.087  1.00  0.00     0.012 A 
HETATM   21  C   UNL     1     -41.025  54.453 -54.816  1.00  0.00     0.009 A 
HETATM   22  C   UNL     1     -39.535  50.193 -52.989  1.00  0.00     0.001 A 
HETATM   23  C   UNL     1     -39.574  50.729 -51.706  1.00  0.00     0.001 A 
ENDBRANCH  13  14
ENDBRANCH  12  13
ENDBRANCH   7  12
BRANCH   2  24
HETATM   24  C   UNL     1     -44.095  57.760 -57.843  1.00  0.00    -0.028 A 
HETATM   25  C   UNL     1     -42.994  58.626 -57.969  1.00  0.00     0.012 A 
HETATM   26  C   UNL     1     -41.938  58.304 -58.826  1.00  0.00     0.043 A 
HETATM   27  C   UNL     1     -41.973  57.118 -59.548  1.00  0.00     0.116 A 
HETATM   28  F   UNL     1     -40.959  56.813 -60.368  1.00  0.00    -0.206 F 
HETATM   29  C   UNL     1     -43.042  56.240 -59.428  1.00  0.00     0.043 A 
HETATM   30  C   UNL     1     -44.101  56.558 -58.577  1.00  0.00     0.012 A 
ENDBRANCH   2  24
BRANCH   1  31
HETATM   31  C   UNL     1     -46.405  59.594 -58.646  1.00  0.00     0.293 C 
HETATM   32  O   UNL     1     -46.020  60.508 -59.357  1.00  0.00    -0.259 OA
BRANCH  31  33
HETATM   33  O   UNL     1     -47.252  58.601 -59.014  1.00  0.00    -0.318 OA
BRANCH  33  34
HETATM   34  C   UNL     1     -47.032  58.061 -60.328  1.00  0.00     0.174 C 
HETATM   35  C   UNL     1     -47.302  56.566 -60.343  1.00  0.00     0.034 C 
ENDBRANCH  33  34
ENDBRANCH  31  33
ENDBRANCH   1  31
TORSDOF 7
ENDMDL
MODEL 5
REMARK VINA RESULT:      -8.3      3.134      5.057
REMARK  7 active torsions:
REMARK  status: ('A' for Active; 'I' for Inactive)
REMARK    1  A    between atoms: C_2  and  O_3 
REMARK    2  A    between atoms: O_3  and  C_4 
REMARK    3  A    between atoms: C_4  and  C_5 
REMARK    4  A    between atoms: C_6  and  C_7 
REMARK    5  A    between atoms: C_18  and  S_19 
REMARK    6  A    between atoms: S_19  and  C_20 
REMARK    7  A    between atoms: C_20  and  C_21 
ROOT
HETATM    1  C   UNL     1     -42.933  57.428 -58.030  1.00  0.00     0.070 A 
HETATM    2  C   UNL     1     -43.303  57.339 -56.552  1.00  0.00     0.203 A 
HETATM    3  N   UNL     1     -43.042  58.605 -55.856  1.00  0.00    -0.082 N 
HETATM    4  C   UNL     1     -42.540  59.725 -56.458  1.00  0.00     0.726 A 
HETATM    5  N   UNL     1     -42.259  59.696 -57.773  1.00  0.00    -0.192 N 
HETATM    6  N   UNL     1     -43.327  58.834 -54.560  1.00  0.00    -0.128 NA
HETATM    7  C   UNL     1     -42.890  60.092 -54.423  1.00  0.00     0.226 A 
HETATM    8  N   UNL     1     -42.423  60.682 -55.572  1.00  0.00    -0.035 NA
HETATM    9  C   UNL     1     -42.444  58.573 -58.572  1.00  0.00     0.037 A 
HETATM   10  C   UNL     1     -42.097  58.749 -60.031  1.00  0.00     0.070 C 
HETATM   11  H   UNL     1     -41.881  60.530 -58.212  1.00  0.00     0.184 HD
ENDROOT
BRANCH   7  12
HETATM   12  S   UNL     1     -42.911  60.875 -52.870  1.00  0.00    -0.083 SA
BRANCH  12  13
HETATM   13  C   UNL     1     -43.865  59.670 -51.908  1.00  0.00     0.121 C 
BRANCH  13  14
HETATM   14  C   UNL     1     -43.020  58.482 -51.509  1.00  0.00    -0.048 A 
HETATM   15  C   UNL     1     -43.535  57.178 -51.590  1.00  0.00     0.020 A 
HETATM   16  C   UNL     1     -42.752  56.063 -51.249  1.00  0.00    -0.025 A 
HETATM   17  C   UNL     1     -41.426  56.258 -50.802  1.00  0.00    -0.026 A 
HETATM   18  C   UNL     1     -43.257  54.755 -51.347  1.00  0.00     0.012 A 
HETATM   19  C   UNL     1     -40.918  57.562 -50.715  1.00  0.00     0.013 A 
HETATM   20  C   UNL     1     -40.643  55.142 -50.464  1.00  0.00     0.012 A 
HETATM   21  C   UNL     1     -41.704  58.662 -51.069  1.00  0.00     0.009 A 
HETATM   22  C   UNL     1     -41.160  53.850 -50.568  1.00  0.00     0.001 A 
HETATM   23  C   UNL     1     -42.465  53.656 -51.010  1.00  0.00     0.001 A 
ENDBRANCH  13  14
ENDBRANCH  12  13
ENDBRANCH   7  12
BRANCH   2  24
HETATM   24  C   UNL     1     -42.616  56.193 -55.808  1.00  0.00    -0.028 A 
HETATM   25  C   UNL     1     -43.233  54.939 -55.646  1.00  0.00     0.012 A 
HETATM   26  C   UNL     1     -42.578  53.915 -54.958  1.00  0.00     0.043 A 
HETATM   27  C   UNL     1     -41.307  54.134 -54.441  1.00  0.00     0.116 A 
HETATM   28  F   UNL     1     -40.683  53.150 -53.781  1.00  0.00    -0.206 F 
HETATM   29  C   UNL     1     -40.673  55.359 -54.600  1.00  0.00     0.043 A 
HETATM   30  C   UNL     1     -41.324  56.386 -55.284  1.00  0.00     0.012 A 
ENDBRANCH   2  24
BRANCH   1  31
HETATM   31  C   UNL     1     -43.073  56.192 -58.832  1.00  0.00     0.293 C 
HETATM   32  O   UNL     1     -42.135  55.582 -59.319  1.00  0.00    -0.259 OA
BRANCH  31  33
HETATM   33  O   UNL     1     -44.379  55.837 -58.908  1.00  0.00    -0.318 OA
BRANCH  33  34
HETATM   34  C   UNL     1     -44.666  54.727 -59.774  1.00  0.00     0.174 C 
HETATM   35  C   UNL     1     -45.089  55.216 -61.148  1.00  0.00     0.034 C 
ENDBRANCH  33  34
ENDBRANCH  31  33
ENDBRANCH   1  31
TORSDOF 7
ENDMDL
MODEL 6
REMARK VINA RESULT:      -8.3      3.845      6.025
REMARK  7 active torsions:
REMARK  status: ('A' for Active; 'I' for Inactive)
REMARK    1  A    between atoms: C_2  and  O_3 
REMARK    2  A    between atoms: O_3  and  C_4 
REMARK    3  A    between atoms: C_4  and  C_5 
REMARK    4  A    between atoms: C_6  and  C_7 
REMARK    5  A    between atoms: C_18  and  S_19 
REMARK    6  A    between atoms: S_19  and  C_20 
REMARK    7  A    between atoms: C_20  and  C_21 
ROOT
HETATM    1  C   UNL     1     -44.160  60.876 -53.965  1.00  0.00     0.070 A 
HETATM    2  C   UNL     1     -43.007  59.954 -54.353  1.00  0.00     0.203 A 
HETATM    3  N   UNL     1     -43.395  59.032 -55.428  1.00  0.00    -0.082 N 
HETATM    4  C   UNL     1     -44.629  59.008 -56.014  1.00  0.00     0.726 A 
HETATM    5  N   UNL     1     -45.570  59.876 -55.601  1.00  0.00    -0.192 N 
HETATM    6  N   UNL     1     -42.562  58.147 -56.008  1.00  0.00    -0.128 NA
HETATM    7  C   UNL     1     -43.387  57.559 -56.882  1.00  0.00     0.226 A 
HETATM    8  N   UNL     1     -44.658  58.077 -56.933  1.00  0.00    -0.035 NA
HETATM    9  C   UNL     1     -45.364  60.809 -54.590  1.00  0.00     0.037 A 
HETATM   10  C   UNL     1     -46.535  61.714 -54.292  1.00  0.00     0.070 C 
HETATM   11  H   UNL     1     -46.488  59.849 -56.037  1.00  0.00     0.184 HD
ENDROOT
BRANCH   7  12
HETATM   12  S   UNL     1     -42.848  56.218 -57.849  1.00  0.00    -0.083 SA
BRANCH  12  13
HETATM   13  C   UNL     1     -43.475  54.831 -56.865  1.00  0.00     0.121 C 
BRANCH  13  14
HETATM   14  C   UNL     1     -42.695  54.663 -55.581  1.00  0.00    -0.048 A 
HETATM   15  C   UNL     1     -43.361  54.484 -54.357  1.00  0.00     0.020 A 
HETATM   16  C   UNL     1     -42.650  54.299 -53.160  1.00  0.00    -0.025 A 
HETATM   17  C   UNL     1     -41.238  54.307 -53.186  1.00  0.00    -0.026 A 
HETATM   18  C   UNL     1     -43.313  54.100 -51.937  1.00  0.00     0.012 A 
HETATM   19  C   UNL     1     -40.576  54.493 -54.408  1.00  0.00     0.013 A 
HETATM   20  C   UNL     1     -40.527  54.118 -51.989  1.00  0.00     0.012 A 
HETATM   21  C   UNL     1     -41.296  54.665 -55.593  1.00  0.00     0.009 A 
HETATM   22  C   UNL     1     -41.201  53.922 -50.783  1.00  0.00     0.001 A 
HETATM   23  C   UNL     1     -42.592  53.912 -50.757  1.00  0.00     0.001 A 
ENDBRANCH  13  14
ENDBRANCH  12  13
ENDBRANCH   7  12
BRANCH   2  24
HETATM   24  C   UNL     1     -42.425  59.163 -53.181  1.00  0.00    -0.028 A 
HETATM   25  C   UNL     1     -41.087  59.316 -52.774  1.00  0.00     0.012 A 
HETATM   26  C   UNL     1     -40.587  58.573 -51.702  1.00  0.00     0.043 A 
HETATM   27  C   UNL     1     -41.419  57.688 -51.028  1.00  0.00     0.116 A 
HETATM   28  F   UNL     1     -40.935  56.978 -50.001  1.00  0.00    -0.206 F 
HETATM   29  C   UNL     1     -42.747  57.531 -51.403  1.00  0.00     0.043 A 
HETATM   30  C   UNL     1     -43.251  58.267 -52.475  1.00  0.00     0.012 A 
ENDBRANCH   2  24
BRANCH   1  31
HETATM   31  C   UNL     1     -43.927  61.804 -52.836  1.00  0.00     0.293 C 
HETATM   32  O   UNL     1     -43.270  62.829 -52.916  1.00  0.00    -0.259 OA
BRANCH  31  33
HETATM   33  O   UNL     1     -44.573  61.357 -51.731  1.00  0.00    -0.318 OA
BRANCH  33  34
HETATM   34  C   UNL     1     -44.074  61.859 -50.481  1.00  0.00     0.174 C 
HETATM   35  C   UNL     1     -42.988  60.948 -49.934  1.00  0.00     0.034 C 
ENDBRANCH  33  34
ENDBRANCH  31  33
ENDBRANCH   1  31
TORSDOF 7
ENDMDL
MODEL 7
REMARK VINA RESULT:      -8.2      4.276      8.163
REMARK  7 active torsions:
REMARK  status: ('A' for Active; 'I' for Inactive)
REMARK    1  A    between atoms: C_2  and  O_3 
REMARK    2  A    between atoms: O_3  and  C_4 
REMARK    3  A    between atoms: C_4  and  C_5 
REMARK    4  A    between atoms: C_6  and  C_7 
REMARK    5  A    between atoms: C_18  and  S_19 
REMARK    6  A    between atoms: S_19  and  C_20 
REMARK    7  A    between atoms: C_20  and  C_21 
ROOT
HETATM    1  C   UNL     1     -41.893  58.984 -52.194  1.00  0.00     0.070 A 
HETATM    2  C   UNL     1     -41.530  58.730 -53.655  1.00  0.00     0.203 A 
HETATM    3  N   UNL     1     -42.007  59.814 -54.523  1.00  0.00    -0.082 N 
HETATM    4  C   UNL     1     -42.682  60.916 -54.078  1.00  0.00     0.726 A 
HETATM    5  N   UNL     1     -42.939  61.044 -52.765  1.00  0.00    -0.192 N 
HETATM    6  N   UNL     1     -41.778  59.884 -55.849  1.00  0.00    -0.128 NA
HETATM    7  C   UNL     1     -42.421  61.017 -56.156  1.00  0.00     0.226 A 
HETATM    8  N   UNL     1     -42.967  61.692 -55.093  1.00  0.00    -0.035 NA
HETATM    9  C   UNL     1     -42.561  60.103 -51.813  1.00  0.00     0.037 A 
HETATM   10  C   UNL     1     -42.915  60.443 -50.385  1.00  0.00     0.070 C 
HETATM   11  H   UNL     1     -43.447  61.863 -52.441  1.00  0.00     0.184 HD
ENDROOT
BRANCH   7  12
HETATM   12  S   UNL     1     -42.549  61.544 -57.809  1.00  0.00    -0.083 SA
BRANCH  12  13
HETATM   13  C   UNL     1     -41.666  60.202 -58.650  1.00  0.00     0.121 C 
BRANCH  13  14
HETATM   14  C   UNL     1     -42.618  59.145 -59.162  1.00  0.00    -0.048 A 
HETATM   15  C   UNL     1     -42.477  57.803 -58.771  1.00  0.00     0.020 A 
HETATM   16  C   UNL     1     -43.370  56.816 -59.217  1.00  0.00    -0.025 A 
HETATM   17  C   UNL     1     -44.423  57.177 -60.087  1.00  0.00    -0.026 A 
HETATM   18  C   UNL     1     -43.245  55.477 -58.811  1.00  0.00     0.012 A 
HETATM   19  C   UNL     1     -44.557  58.516 -60.482  1.00  0.00     0.013 A 
HETATM   20  C   UNL     1     -45.319  56.189 -60.530  1.00  0.00     0.012 A 
HETATM   21  C   UNL     1     -43.667  59.490 -60.022  1.00  0.00     0.009 A 
HETATM   22  C   UNL     1     -45.179  54.863 -60.117  1.00  0.00     0.001 A 
HETATM   23  C   UNL     1     -44.144  54.507 -59.258  1.00  0.00     0.001 A 
ENDBRANCH  13  14
ENDBRANCH  12  13
ENDBRANCH   7  12
BRANCH   2  24
HETATM   24  C   UNL     1     -42.023  57.386 -54.192  1.00  0.00    -0.028 A 
HETATM   25  C   UNL     1     -43.388  57.133 -54.419  1.00  0.00     0.012 A 
HETATM   26  C   UNL     1     -43.804  55.893 -54.907  1.00  0.00     0.043 A 
HETATM   27  C   UNL     1     -42.863  54.908 -55.179  1.00  0.00     0.116 A 
HETATM   28  F   UNL     1     -43.266  53.719 -55.646  1.00  0.00    -0.206 F 
HETATM   29  C   UNL     1     -41.509  55.138 -54.976  1.00  0.00     0.043 A 
HETATM   30  C   UNL     1     -41.088  56.375 -54.486  1.00  0.00     0.012 A 
ENDBRANCH   2  24
BRANCH   1  31
HETATM   31  C   UNL     1     -41.540  57.926 -51.222  1.00  0.00     0.293 C 
HETATM   32  O   UNL     1     -40.440  57.809 -50.706  1.00  0.00    -0.259 OA
BRANCH  31  33
HETATM   33  O   UNL     1     -42.620  57.144 -50.978  1.00  0.00    -0.318 OA
BRANCH  33  34
HETATM   34  C   UNL     1     -42.326  55.805 -50.548  1.00  0.00     0.174 C 
HETATM   35  C   UNL     1     -43.042  54.793 -51.425  1.00  0.00     0.034 C 
ENDBRANCH  33  34
ENDBRANCH  31  33
ENDBRANCH   1  31
TORSDOF 7
ENDMDL
MODEL 8
REMARK VINA RESULT:      -8.1      4.444      6.707
REMARK  7 active torsions:
REMARK  status: ('A' for Active; 'I' for Inactive)
REMARK    1  A    between atoms: C_2  and  O_3 
REMARK    2  A    between atoms: O_3  and  C_4 
REMARK    3  A    between atoms: C_4  and  C_5 
REMARK    4  A    between atoms: C_6  and  C_7 
REMARK    5  A    between atoms: C_18  and  S_19 
REMARK    6  A    between atoms: S_19  and  C_20 
REMARK    7  A    between atoms: C_20  and  C_21 
ROOT
HETATM    1  C   UNL     1     -44.450  60.630 -52.298  1.00  0.00     0.070 A 
HETATM    2  C   UNL     1     -43.180  60.047 -52.913  1.00  0.00     0.203 A 
HETATM    3  N   UNL     1     -43.430  59.520 -54.261  1.00  0.00    -0.082 N 
HETATM    4  C   UNL     1     -44.643  59.556 -54.889  1.00  0.00     0.726 A 
HETATM    5  N   UNL     1     -45.695  60.106 -54.257  1.00  0.00    -0.192 N 
HETATM    6  N   UNL     1     -42.481  59.000 -55.062  1.00  0.00    -0.128 NA
HETATM    7  C   UNL     1     -43.211  58.662 -56.132  1.00  0.00     0.226 A 
HETATM    8  N   UNL     1     -44.538  59.010 -56.073  1.00  0.00    -0.035 NA
HETATM    9  C   UNL     1     -45.626  60.643 -52.975  1.00  0.00     0.037 A 
HETATM   10  C   UNL     1     -46.910  61.240 -52.451  1.00  0.00     0.070 C 
HETATM   11  H   UNL     1     -46.596  60.124 -54.727  1.00  0.00     0.184 HD
ENDROOT
BRANCH   7  12
HETATM   12  S   UNL     1     -42.487  57.819 -57.470  1.00  0.00    -0.083 SA
BRANCH  12  13
HETATM   13  C   UNL     1     -43.320  56.214 -57.335  1.00  0.00     0.121 C 
BRANCH  13  14
HETATM   14  C   UNL     1     -42.952  55.502 -56.054  1.00  0.00    -0.048 A 
HETATM   15  C   UNL     1     -41.760  54.765 -55.962  1.00  0.00     0.020 A 
HETATM   16  C   UNL     1     -41.391  54.120 -54.770  1.00  0.00    -0.025 A 
HETATM   17  C   UNL     1     -42.243  54.204 -53.646  1.00  0.00    -0.026 A 
HETATM   18  C   UNL     1     -40.190  53.399 -54.667  1.00  0.00     0.012 A 
HETATM   19  C   UNL     1     -43.437  54.934 -53.744  1.00  0.00     0.013 A 
HETATM   20  C   UNL     1     -41.873  53.562 -52.452  1.00  0.00     0.012 A 
HETATM   21  C   UNL     1     -43.786  55.580 -54.933  1.00  0.00     0.009 A 
HETATM   22  C   UNL     1     -40.675  52.850 -52.368  1.00  0.00     0.001 A 
HETATM   23  C   UNL     1     -39.834  52.769 -53.474  1.00  0.00     0.001 A 
ENDBRANCH  13  14
ENDBRANCH  12  13
ENDBRANCH   7  12
BRANCH   2  24
HETATM   24  C   UNL     1     -42.513  58.971 -52.055  1.00  0.00    -0.028 A 
HETATM   25  C   UNL     1     -43.192  57.800 -51.674  1.00  0.00     0.012 A 
HETATM   26  C   UNL     1     -42.554  56.839 -50.887  1.00  0.00     0.043 A 
HETATM   27  C   UNL     1     -41.237  57.038 -50.488  1.00  0.00     0.116 A 
HETATM   28  F   UNL     1     -40.629  56.114 -49.733  1.00  0.00    -0.206 F 
HETATM   29  C   UNL     1     -40.543  58.179 -50.864  1.00  0.00     0.043 A 
HETATM   30  C   UNL     1     -41.177  59.144 -51.647  1.00  0.00     0.012 A 
ENDBRANCH   2  24
BRANCH   1  31
HETATM   31  C   UNL     1     -44.354  61.124 -50.906  1.00  0.00     0.293 C 
HETATM   32  O   UNL     1     -44.706  60.486 -49.927  1.00  0.00    -0.259 OA
BRANCH  31  33
HETATM   33  O   UNL     1     -43.796  62.360 -50.893  1.00  0.00    -0.318 OA
BRANCH  33  34
HETATM   34  C   UNL     1     -44.592  63.388 -50.281  1.00  0.00     0.174 C 
HETATM   35  C   UNL     1     -43.942  63.875 -48.998  1.00  0.00     0.034 C 
ENDBRANCH  33  34
ENDBRANCH  31  33
ENDBRANCH   1  31
TORSDOF 7
ENDMDL
MODEL 9
REMARK VINA RESULT:      -8.0      3.954      9.077
REMARK  7 active torsions:
REMARK  status: ('A' for Active; 'I' for Inactive)
REMARK    1  A    between atoms: C_2  and  O_3 
REMARK    2  A    between atoms: O_3  and  C_4 
REMARK    3  A    between atoms: C_4  and  C_5 
REMARK    4  A    between atoms: C_6  and  C_7 
REMARK    5  A    between atoms: C_18  and  S_19 
REMARK    6  A    between atoms: S_19  and  C_20 
REMARK    7  A    between atoms: C_20  and  C_21 
ROOT
HETATM    1  C   UNL     1     -42.542  54.705 -53.512  1.00  0.00     0.070 A 
HETATM    2  C   UNL     1     -43.217  56.047 -53.786  1.00  0.00     0.203 A 
HETATM    3  N   UNL     1     -43.124  56.415 -55.204  1.00  0.00    -0.082 N 
HETATM    4  C   UNL     1     -42.519  55.648 -56.160  1.00  0.00     0.726 A 
HETATM    5  N   UNL     1     -41.965  54.474 -55.810  1.00  0.00    -0.192 N 
HETATM    6  N   UNL     1     -43.680  57.517 -55.742  1.00  0.00    -0.128 NA
HETATM    7  C   UNL     1     -43.297  57.396 -57.019  1.00  0.00     0.226 A 
HETATM    8  N   UNL     1     -42.604  56.250 -57.320  1.00  0.00    -0.035 NA
HETATM    9  C   UNL     1     -41.963  53.986 -54.507  1.00  0.00     0.037 A 
HETATM   10  C   UNL     1     -41.316  52.634 -54.321  1.00  0.00     0.070 C 
HETATM   11  H   UNL     1     -41.512  53.912 -56.524  1.00  0.00     0.184 HD
ENDROOT
BRANCH   7  12
HETATM   12  S   UNL     1     -43.656  58.644 -58.176  1.00  0.00    -0.083 SA
BRANCH  12  13
HETATM   13  C   UNL     1     -42.614  59.987 -57.543  1.00  0.00     0.121 C 
BRANCH  13  14
HETATM   14  C   UNL     1     -41.955  60.755 -58.666  1.00  0.00    -0.048 A 
HETATM   15  C   UNL     1     -40.964  61.713 -58.393  1.00  0.00     0.020 A 
HETATM   16  C   UNL     1     -40.324  62.415 -59.428  1.00  0.00    -0.025 A 
HETATM   17  C   UNL     1     -40.693  62.162 -60.767  1.00  0.00    -0.026 A 
HETATM   18  C   UNL     1     -39.318  63.358 -59.160  1.00  0.00     0.012 A 
HETATM   19  C   UNL     1     -41.689  61.211 -61.036  1.00  0.00     0.013 A 
HETATM   20  C   UNL     1     -40.050  62.862 -61.802  1.00  0.00     0.012 A 
HETATM   21  C   UNL     1     -42.309  60.512 -59.998  1.00  0.00     0.009 A 
HETATM   22  C   UNL     1     -39.053  63.796 -61.518  1.00  0.00     0.001 A 
HETATM   23  C   UNL     1     -38.687  64.044 -60.199  1.00  0.00     0.001 A 
ENDBRANCH  13  14
ENDBRANCH  12  13
ENDBRANCH   7  12
BRANCH   2  24
HETATM   24  C   UNL     1     -42.690  57.193 -52.921  1.00  0.00    -0.028 A 
HETATM   25  C   UNL     1     -43.504  57.845 -51.978  1.00  0.00     0.012 A 
HETATM   26  C   UNL     1     -42.991  58.892 -51.208  1.00  0.00     0.043 A 
HETATM   27  C   UNL     1     -41.668  59.282 -51.368  1.00  0.00     0.116 A 
HETATM   28  F   UNL     1     -41.180  60.287 -50.628  1.00  0.00    -0.206 F 
HETATM   29  C   UNL     1     -40.841  58.645 -52.284  1.00  0.00     0.043 A 
HETATM   30  C   UNL     1     -41.349  57.601 -53.058  1.00  0.00     0.012 A 
ENDBRANCH   2  24
BRANCH   1  31
HETATM   31  C   UNL     1     -42.495  54.254 -52.104  1.00  0.00     0.293 C 
HETATM   32  O   UNL     1     -43.453  53.806 -51.495  1.00  0.00    -0.259 OA
BRANCH  31  33
HETATM   33  O   UNL     1     -41.235  54.386 -51.620  1.00  0.00    -0.318 OA
BRANCH  33  34
HETATM   34  C   UNL     1     -41.129  54.452 -50.188  1.00  0.00     0.174 C 
HETATM   35  C   UNL     1     -41.257  55.887 -49.709  1.00  0.00     0.034 C 
ENDBRANCH  33  34
ENDBRANCH  31  33
ENDBRANCH   1  31
TORSDOF 7
ENDMDL
MODEL 10
REMARK VINA RESULT:      -8.0      4.025      9.429
REMARK  7 active torsions:
REMARK  status: ('A' for Active; 'I' for Inactive)
REMARK    1  A    between atoms: C_2  and  O_3 
REMARK    2  A    between atoms: O_3  and  C_4 
REMARK    3  A    between atoms: C_4  and  C_5 
REMARK    4  A    between atoms: C_6  and  C_7 
REMARK    5  A    between atoms: C_18  and  S_19 
REMARK    6  A    between atoms: S_19  and  C_20 
REMARK    7  A    between atoms: C_20  and  C_21 
ROOT
HETATM    1  C   UNL     1     -42.789  57.162 -52.989  1.00  0.00     0.070 A 
HETATM    2  C   UNL     1     -42.072  56.846 -54.300  1.00  0.00     0.203 A 
HETATM    3  N   UNL     1     -42.906  57.180 -55.462  1.00  0.00    -0.082 N 
HETATM    4  C   UNL     1     -44.161  57.715 -55.380  1.00  0.00     0.726 A 
HETATM    5  N   UNL     1     -44.693  57.965 -54.170  1.00  0.00    -0.192 N 
HETATM    6  N   UNL     1     -42.509  57.060 -56.743  1.00  0.00    -0.128 NA
HETATM    7  C   UNL     1     -43.611  57.462 -57.387  1.00  0.00     0.226 A 
HETATM    8  N   UNL     1     -44.638  57.896 -56.585  1.00  0.00    -0.035 NA
HETATM    9  C   UNL     1     -44.035  57.700 -52.973  1.00  0.00     0.037 A 
HETATM   10  C   UNL     1     -44.787  58.079 -51.720  1.00  0.00     0.070 C 
HETATM   11  H   UNL     1     -45.629  58.358 -54.117  1.00  0.00     0.184 HD
ENDROOT
BRANCH   7  12
HETATM   12  S   UNL     1     -43.696  57.399 -59.123  1.00  0.00    -0.083 SA
BRANCH  12  13
HETATM   13  C   UNL     1     -44.397  59.033 -59.477  1.00  0.00     0.121 C 
BRANCH  13  14
HETATM   14  C   UNL     1     -43.354  59.979 -60.028  1.00  0.00    -0.048 A 
HETATM   15  C   UNL     1     -42.441  60.616 -59.172  1.00  0.00     0.020 A 
HETATM   16  C   UNL     1     -41.450  61.475 -59.673  1.00  0.00    -0.025 A 
HETATM   17  C   UNL     1     -41.378  61.714 -61.063  1.00  0.00    -0.026 A 
HETATM   18  C   UNL     1     -40.522  62.098 -58.822  1.00  0.00     0.012 A 
HETATM   19  C   UNL     1     -42.297  61.082 -61.915  1.00  0.00     0.013 A 
HETATM   20  C   UNL     1     -40.384  62.571 -61.564  1.00  0.00     0.012 A 
HETATM   21  C   UNL     1     -43.271  60.221 -61.404  1.00  0.00     0.009 A 
HETATM   22  C   UNL     1     -39.470  63.182 -60.704  1.00  0.00     0.001 A 
HETATM   23  C   UNL     1     -39.538  62.945 -59.334  1.00  0.00     0.001 A 
ENDBRANCH  13  14
ENDBRANCH  12  13
ENDBRANCH   7  12
BRANCH   2  24
HETATM   24  C   UNL     1     -41.592  55.398 -54.410  1.00  0.00    -0.028 A 
HETATM   25  C   UNL     1     -40.238  55.080 -54.620  1.00  0.00     0.012 A 
HETATM   26  C   UNL     1     -39.835  53.747 -54.720  1.00  0.00     0.043 A 
HETATM   27  C   UNL     1     -40.775  52.731 -54.601  1.00  0.00     0.116 A 
HETATM   28  F   UNL     1     -40.384  51.453 -54.698  1.00  0.00    -0.206 F 
HETATM   29  C   UNL     1     -42.115  53.020 -54.381  1.00  0.00     0.043 A 
HETATM   30  C   UNL     1     -42.524  54.350 -54.283  1.00  0.00     0.012 A 
ENDBRANCH   2  24
BRANCH   1  31
HETATM   31  C   UNL     1     -42.088  56.798 -51.738  1.00  0.00     0.293 C 
HETATM   32  O   UNL     1     -41.169  57.440 -51.255  1.00  0.00    -0.259 OA
BRANCH  31  33
HETATM   33  O   UNL     1     -42.641  55.679 -51.209  1.00  0.00    -0.318 OA
BRANCH  33  34
HETATM   34  C   UNL     1     -41.833  54.993 -50.238  1.00  0.00     0.174 C 
HETATM   35  C   UNL     1     -40.972  53.937 -50.909  1.00  0.00     0.034 C 
ENDBRANCH  33  34
ENDBRANCH  31  33
ENDBRANCH   1  31
TORSDOF 7
ENDMDL
