MODEL 1
REMARK VINA RESULT:      -8.7      0.000      0.000
REMARK  6 active torsions:
REMARK  status: ('A' for Active; 'I' for Inactive)
REMARK    1  A    between atoms: C_4  and  C_5 
REMARK    2  A    between atoms: C_5  and  N_6 
REMARK    3  A    between atoms: N_6  and  N_7 
REMARK    4  A    between atoms: N_6  and  C_21 
REMARK       I    between atoms: N_7  and  C_8 
REMARK    5  A    between atoms: C_8  and  C_9 
REMARK    6  A    between atoms: C_9  and  C_10 
ROOT
HETATM    1  N   UNL     1     -41.687  55.983 -56.032  1.00  0.00    -0.267 N 
HETATM    2  C   UNL     1     -41.908  54.681 -55.591  1.00  0.00     0.240 C 
HETATM    3  O   UNL     1     -43.024  54.193 -55.429  1.00  0.00    -0.272 OA
HETATM    4  H   UNL     1     -40.766  56.391 -56.145  1.00  0.00     0.190 HD
ENDROOT
BRANCH   1   5
HETATM    5  N   UNL     1     -42.773  56.812 -56.393  1.00  0.00    -0.286 N 
BRANCH   5   6
HETATM    6  C   UNL     1     -42.760  57.279 -57.795  1.00  0.00     0.187 C 
BRANCH   6   7
HETATM    7  C   UNL     1     -43.834  56.611 -58.633  1.00  0.00    -0.038 A 
HETATM    8  C   UNL     1     -45.033  57.285 -58.908  1.00  0.00     0.009 A 
HETATM    9  C   UNL     1     -46.008  56.699 -59.720  1.00  0.00     0.001 A 
HETATM   10  C   UNL     1     -45.790  55.439 -60.273  1.00  0.00     0.000 A 
HETATM   11  C   UNL     1     -44.599  54.764 -60.020  1.00  0.00     0.001 A 
HETATM   12  C   UNL     1     -43.625  55.348 -59.209  1.00  0.00     0.009 A 
ENDBRANCH   6   7
ENDBRANCH   5   6
BRANCH   5  13
HETATM   13  C   UNL     1     -43.258  57.621 -55.343  1.00  0.00     0.051 A 
HETATM   14  C   UNL     1     -42.382  58.121 -54.358  1.00  0.00     0.031 A 
HETATM   15  C   UNL     1     -42.831  58.922 -53.300  1.00  0.00     0.002 A 
HETATM   16  C   UNL     1     -44.179  59.241 -53.195  1.00  0.00     0.000 A 
HETATM   17  C   UNL     1     -45.072  58.750 -54.139  1.00  0.00     0.002 A 
HETATM   18  C   UNL     1     -44.616  57.945 -55.192  1.00  0.00     0.031 A 
ENDBRANCH   5  13
ENDBRANCH   1   5
BRANCH   2  19
HETATM   19  C   UNL     1     -40.604  53.929 -55.365  1.00  0.00     0.145 C 
BRANCH  19  20
HETATM   20  C   UNL     1     -40.434  53.439 -53.963  1.00  0.00    -0.021 A 
HETATM   21  C   UNL     1     -40.133  52.098 -53.558  1.00  0.00    -0.001 A 
HETATM   22  C   UNL     1     -40.038  52.090 -52.167  1.00  0.00     0.042 A 
HETATM   23  C   UNL     1     -39.938  50.885 -54.251  1.00  0.00     0.014 A 
HETATM   24  C   UNL     1     -39.748  50.933 -51.433  1.00  0.00     0.030 A 
HETATM   25  N   UNL     1     -40.284  53.373 -51.738  1.00  0.00    -0.365 N 
HETATM   26  C   UNL     1     -39.553  49.746 -52.145  1.00  0.00     0.002 A 
HETATM   27  C   UNL     1     -39.648  49.719 -53.534  1.00  0.00     0.001 A 
HETATM   28  H   UNL     1     -40.293  53.659 -50.770  1.00  0.00     0.165 HD
HETATM   29  C   UNL     1     -40.515  54.195 -52.809  1.00  0.00     0.097 A 
ENDBRANCH  19  20
ENDBRANCH   2  19
TORSDOF 6
ENDMDL
MODEL 2
REMARK VINA RESULT:      -8.6      1.796      5.221
REMARK  6 active torsions:
REMARK  status: ('A' for Active; 'I' for Inactive)
REMARK    1  A    between atoms: C_4  and  C_5 
REMARK    2  A    between atoms: C_5  and  N_6 
REMARK    3  A    between atoms: N_6  and  N_7 
REMARK    4  A    between atoms: N_6  and  C_21 
REMARK       I    between atoms: N_7  and  C_8 
REMARK    5  A    between atoms: C_8  and  C_9 
REMARK    6  A    between atoms: C_9  and  C_10 
ROOT
HETATM    1  N   UNL     1     -42.615  55.256 -55.279  1.00  0.00    -0.267 N 
HETATM    2  C   UNL     1     -41.406  54.671 -54.914  1.00  0.00     0.240 C 
HETATM    3  O   UNL     1     -40.315  55.229 -55.019  1.00  0.00    -0.272 OA
HETATM    4  H   UNL     1     -43.511  54.787 -55.212  1.00  0.00     0.190 HD
ENDROOT
BRANCH   1   5
HETATM    5  N   UNL     1     -42.656  56.592 -55.739  1.00  0.00    -0.286 N 
BRANCH   5   6
HETATM    6  C   UNL     1     -43.418  57.522 -54.881  1.00  0.00     0.187 C 
BRANCH   6   7
HETATM    7  C   UNL     1     -42.600  58.019 -53.704  1.00  0.00    -0.038 A 
HETATM    8  C   UNL     1     -41.234  58.294 -53.862  1.00  0.00     0.009 A 
HETATM    9  C   UNL     1     -40.482  58.799 -52.798  1.00  0.00     0.001 A 
HETATM   10  C   UNL     1     -41.090  59.045 -51.569  1.00  0.00     0.000 A 
HETATM   11  C   UNL     1     -42.448  58.790 -51.401  1.00  0.00     0.001 A 
HETATM   12  C   UNL     1     -43.200  58.285 -52.463  1.00  0.00     0.009 A 
ENDBRANCH   6   7
ENDBRANCH   5   6
BRANCH   5  13
HETATM   13  C   UNL     1     -42.636  56.720 -57.144  1.00  0.00     0.051 A 
HETATM   14  C   UNL     1     -42.193  57.912 -57.751  1.00  0.00     0.031 A 
HETATM   15  C   UNL     1     -42.165  58.074 -59.142  1.00  0.00     0.002 A 
HETATM   16  C   UNL     1     -42.587  57.041 -59.970  1.00  0.00     0.000 A 
HETATM   17  C   UNL     1     -43.047  55.858 -59.404  1.00  0.00     0.002 A 
HETATM   18  C   UNL     1     -43.077  55.706 -58.010  1.00  0.00     0.031 A 
ENDBRANCH   5  13
ENDBRANCH   1   5
BRANCH   2  19
HETATM   19  C   UNL     1     -41.600  53.274 -54.342  1.00  0.00     0.145 C 
BRANCH  19  20
HETATM   20  C   UNL     1     -40.874  53.051 -53.054  1.00  0.00    -0.021 A 
HETATM   21  C   UNL     1     -41.028  53.807 -51.846  1.00  0.00    -0.001 A 
HETATM   22  C   UNL     1     -40.183  53.247 -50.889  1.00  0.00     0.042 A 
HETATM   23  C   UNL     1     -41.808  54.924 -51.482  1.00  0.00     0.014 A 
HETATM   24  C   UNL     1     -40.085  53.740 -49.582  1.00  0.00     0.030 A 
HETATM   25  N   UNL     1     -39.529  52.198 -51.492  1.00  0.00    -0.365 N 
HETATM   26  C   UNL     1     -40.874  54.844 -49.246  1.00  0.00     0.002 A 
HETATM   27  C   UNL     1     -41.723  55.431 -50.181  1.00  0.00     0.001 A 
HETATM   28  H   UNL     1     -38.843  51.615 -51.035  1.00  0.00     0.165 HD
HETATM   29  C   UNL     1     -39.943  52.065 -52.791  1.00  0.00     0.097 A 
ENDBRANCH  19  20
ENDBRANCH   2  19
TORSDOF 6
ENDMDL
MODEL 3
REMARK VINA RESULT:      -8.2      1.083      2.429
REMARK  6 active torsions:
REMARK  status: ('A' for Active; 'I' for Inactive)
REMARK    1  A    between atoms: C_4  and  C_5 
REMARK    2  A    between atoms: C_5  and  N_6 
REMARK    3  A    between atoms: N_6  and  N_7 
REMARK    4  A    between atoms: N_6  and  C_21 
REMARK       I    between atoms: N_7  and  C_8 
REMARK    5  A    between atoms: C_8  and  C_9 
REMARK    6  A    between atoms: C_9  and  C_10 
ROOT
HETATM    1  N   UNL     1     -41.435  55.761 -55.727  1.00  0.00    -0.267 N 
HETATM    2  C   UNL     1     -41.695  54.426 -55.430  1.00  0.00     0.240 C 
HETATM    3  O   UNL     1     -42.826  53.958 -55.310  1.00  0.00    -0.272 OA
HETATM    4  H   UNL     1     -40.502  56.149 -55.806  1.00  0.00     0.190 HD
ENDROOT
BRANCH   1   5
HETATM    5  N   UNL     1     -42.496  56.659 -55.983  1.00  0.00    -0.286 N 
BRANCH   5   6
HETATM    6  C   UNL     1     -42.443  57.326 -57.299  1.00  0.00     0.187 C 
BRANCH   6   7
HETATM    7  C   UNL     1     -43.462  56.762 -58.271  1.00  0.00    -0.038 A 
HETATM    8  C   UNL     1     -43.226  55.532 -58.904  1.00  0.00     0.009 A 
HETATM    9  C   UNL     1     -44.180  54.979 -59.762  1.00  0.00     0.001 A 
HETATM   10  C   UNL     1     -45.384  55.643 -59.988  1.00  0.00     0.000 A 
HETATM   11  C   UNL     1     -45.638  56.857 -59.355  1.00  0.00     0.001 A 
HETATM   12  C   UNL     1     -44.686  57.411 -58.499  1.00  0.00     0.009 A 
ENDBRANCH   6   7
ENDBRANCH   5   6
BRANCH   5  13
HETATM   13  C   UNL     1     -42.987  57.315 -54.833  1.00  0.00     0.051 A 
HETATM   14  C   UNL     1     -44.291  57.062 -54.363  1.00  0.00     0.031 A 
HETATM   15  C   UNL     1     -44.810  57.699 -53.229  1.00  0.00     0.002 A 
HETATM   16  C   UNL     1     -44.035  58.617 -52.533  1.00  0.00     0.000 A 
HETATM   17  C   UNL     1     -42.751  58.902 -52.979  1.00  0.00     0.002 A 
HETATM   18  C   UNL     1     -42.240  58.265 -54.118  1.00  0.00     0.031 A 
ENDBRANCH   5  13
ENDBRANCH   1   5
BRANCH   2  19
HETATM   19  C   UNL     1     -40.415  53.612 -55.304  1.00  0.00     0.145 C 
BRANCH  19  20
HETATM   20  C   UNL     1     -40.223  53.010 -53.948  1.00  0.00    -0.021 A 
HETATM   21  C   UNL     1     -40.513  53.633 -52.690  1.00  0.00    -0.001 A 
HETATM   22  C   UNL     1     -40.209  52.713 -51.687  1.00  0.00     0.042 A 
HETATM   23  C   UNL     1     -41.001  54.901 -52.313  1.00  0.00     0.014 A 
HETATM   24  C   UNL     1     -40.379  52.992 -50.325  1.00  0.00     0.030 A 
HETATM   25  N   UNL     1     -39.741  51.578 -52.307  1.00  0.00    -0.365 N 
HETATM   26  C   UNL     1     -40.871  54.254 -49.979  1.00  0.00     0.002 A 
HETATM   27  C   UNL     1     -41.177  55.197 -50.957  1.00  0.00     0.001 A 
HETATM   28  H   UNL     1     -39.433  50.748 -51.821  1.00  0.00     0.165 HD
HETATM   29  C   UNL     1     -39.753  51.742 -53.667  1.00  0.00     0.097 A 
ENDBRANCH  19  20
ENDBRANCH   2  19
TORSDOF 6
ENDMDL
MODEL 4
REMARK VINA RESULT:      -8.1      2.312      5.299
REMARK  6 active torsions:
REMARK  status: ('A' for Active; 'I' for Inactive)
REMARK    1  A    between atoms: C_4  and  C_5 
REMARK    2  A    between atoms: C_5  and  N_6 
REMARK    3  A    between atoms: N_6  and  N_7 
REMARK    4  A    between atoms: N_6  and  C_21 
REMARK       I    between atoms: N_7  and  C_8 
REMARK    5  A    between atoms: C_8  and  C_9 
REMARK    6  A    between atoms: C_9  and  C_10 
ROOT
HETATM    1  N   UNL     1     -42.686  55.728 -55.178  1.00  0.00    -0.267 N 
HETATM    2  C   UNL     1     -41.616  54.924 -54.796  1.00  0.00     0.240 C 
HETATM    3  O   UNL     1     -40.439  55.193 -55.030  1.00  0.00    -0.272 OA
HETATM    4  H   UNL     1     -43.657  55.496 -55.003  1.00  0.00     0.190 HD
ENDROOT
BRANCH   1   5
HETATM    5  N   UNL     1     -42.459  56.970 -55.815  1.00  0.00    -0.286 N 
BRANCH   5   6
HETATM    6  C   UNL     1     -42.895  58.153 -55.045  1.00  0.00     0.187 C 
BRANCH   6   7
HETATM    7  C   UNL     1     -42.390  58.125 -53.615  1.00  0.00    -0.038 A 
HETATM    8  C   UNL     1     -43.288  57.936 -52.554  1.00  0.00     0.009 A 
HETATM    9  C   UNL     1     -42.828  57.858 -51.237  1.00  0.00     0.001 A 
HETATM   10  C   UNL     1     -41.465  57.958 -50.968  1.00  0.00     0.000 A 
HETATM   11  C   UNL     1     -40.559  58.132 -52.011  1.00  0.00     0.001 A 
HETATM   12  C   UNL     1     -41.018  58.210 -53.327  1.00  0.00     0.009 A 
ENDBRANCH   6   7
ENDBRANCH   5   6
BRANCH   5  13
HETATM   13  C   UNL     1     -42.549  56.922 -57.223  1.00  0.00     0.051 A 
HETATM   14  C   UNL     1     -43.071  55.785 -57.872  1.00  0.00     0.031 A 
HETATM   15  C   UNL     1     -43.169  55.703 -59.267  1.00  0.00     0.002 A 
HETATM   16  C   UNL     1     -42.739  56.762 -60.056  1.00  0.00     0.000 A 
HETATM   17  C   UNL     1     -42.204  57.892 -59.449  1.00  0.00     0.002 A 
HETATM   18  C   UNL     1     -42.103  57.964 -58.052  1.00  0.00     0.031 A 
ENDBRANCH   5  13
ENDBRANCH   1   5
BRANCH   2  19
HETATM   19  C   UNL     1     -42.075  53.693 -54.028  1.00  0.00     0.145 C 
BRANCH  19  20
HETATM   20  C   UNL     1     -42.379  53.966 -52.590  1.00  0.00    -0.021 A 
HETATM   21  C   UNL     1     -41.432  54.036 -51.517  1.00  0.00    -0.001 A 
HETATM   22  C   UNL     1     -42.138  54.336 -50.353  1.00  0.00     0.042 A 
HETATM   23  C   UNL     1     -40.035  53.865 -51.430  1.00  0.00     0.014 A 
HETATM   24  C   UNL     1     -41.517  54.484 -49.106  1.00  0.00     0.030 A 
HETATM   25  N   UNL     1     -43.465  54.433 -50.699  1.00  0.00    -0.365 N 
HETATM   26  C   UNL     1     -40.131  54.315 -49.049  1.00  0.00     0.002 A 
HETATM   27  C   UNL     1     -39.398  54.008 -50.192  1.00  0.00     0.001 A 
HETATM   28  H   UNL     1     -44.211  54.632 -50.048  1.00  0.00     0.165 HD
HETATM   29  C   UNL     1     -43.622  54.222 -52.043  1.00  0.00     0.097 A 
ENDBRANCH  19  20
ENDBRANCH   2  19
TORSDOF 6
ENDMDL
MODEL 5
REMARK VINA RESULT:      -8.1      2.089      7.057
REMARK  6 active torsions:
REMARK  status: ('A' for Active; 'I' for Inactive)
REMARK    1  A    between atoms: C_4  and  C_5 
REMARK    2  A    between atoms: C_5  and  N_6 
REMARK    3  A    between atoms: N_6  and  N_7 
REMARK    4  A    between atoms: N_6  and  C_21 
REMARK       I    between atoms: N_7  and  C_8 
REMARK    5  A    between atoms: C_8  and  C_9 
REMARK    6  A    between atoms: C_9  and  C_10 
ROOT
HETATM    1  N   UNL     1     -42.812  56.344 -54.537  1.00  0.00    -0.267 N 
HETATM    2  C   UNL     1     -44.000  57.016 -54.261  1.00  0.00     0.240 C 
HETATM    3  O   UNL     1     -44.454  57.169 -53.129  1.00  0.00    -0.272 OA
HETATM    4  H   UNL     1     -42.449  56.201 -55.472  1.00  0.00     0.190 HD
ENDROOT
BRANCH   1   5
HETATM    5  N   UNL     1     -42.007  55.849 -53.485  1.00  0.00    -0.286 N 
BRANCH   5   6
HETATM    6  C   UNL     1     -42.464  54.572 -52.901  1.00  0.00     0.187 C 
BRANCH   6   7
HETATM    7  C   UNL     1     -41.409  53.486 -52.999  1.00  0.00    -0.038 A 
HETATM    8  C   UNL     1     -40.646  53.142 -51.873  1.00  0.00     0.009 A 
HETATM    9  C   UNL     1     -39.707  52.109 -51.938  1.00  0.00     0.001 A 
HETATM   10  C   UNL     1     -39.528  51.403 -53.126  1.00  0.00     0.000 A 
HETATM   11  C   UNL     1     -40.287  51.725 -54.248  1.00  0.00     0.001 A 
HETATM   12  C   UNL     1     -41.225  52.756 -54.184  1.00  0.00     0.009 A 
ENDBRANCH   6   7
ENDBRANCH   5   6
BRANCH   5  13
HETATM   13  C   UNL     1     -41.399  56.854 -52.701  1.00  0.00     0.051 A 
HETATM   14  C   UNL     1     -40.688  57.908 -53.309  1.00  0.00     0.031 A 
HETATM   15  C   UNL     1     -40.070  58.917 -52.560  1.00  0.00     0.002 A 
HETATM   16  C   UNL     1     -40.142  58.896 -51.173  1.00  0.00     0.000 A 
HETATM   17  C   UNL     1     -40.822  57.862 -50.541  1.00  0.00     0.002 A 
HETATM   18  C   UNL     1     -41.433  56.852 -51.298  1.00  0.00     0.031 A 
ENDBRANCH   5  13
ENDBRANCH   1   5
BRANCH   2  19
HETATM   19  C   UNL     1     -44.650  57.562 -55.524  1.00  0.00     0.145 C 
BRANCH  19  20
HETATM   20  C   UNL     1     -43.666  58.080 -56.525  1.00  0.00    -0.021 A 
HETATM   21  C   UNL     1     -43.267  57.435 -57.741  1.00  0.00    -0.001 A 
HETATM   22  C   UNL     1     -42.356  58.273 -58.381  1.00  0.00     0.042 A 
HETATM   23  C   UNL     1     -43.596  56.207 -58.353  1.00  0.00     0.014 A 
HETATM   24  C   UNL     1     -41.762  57.952 -59.608  1.00  0.00     0.030 A 
HETATM   25  N   UNL     1     -42.195  59.380 -57.582  1.00  0.00    -0.365 N 
HETATM   26  C   UNL     1     -42.110  56.732 -60.196  1.00  0.00     0.002 A 
HETATM   27  C   UNL     1     -43.013  55.870 -59.579  1.00  0.00     0.001 A 
HETATM   28  H   UNL     1     -41.579  60.152 -57.794  1.00  0.00     0.165 HD
HETATM   29  C   UNL     1     -42.984  59.280 -56.468  1.00  0.00     0.097 A 
ENDBRANCH  19  20
ENDBRANCH   2  19
TORSDOF 6
ENDMDL
MODEL 6
REMARK VINA RESULT:      -8.0      1.988      7.759
REMARK  6 active torsions:
REMARK  status: ('A' for Active; 'I' for Inactive)
REMARK    1  A    between atoms: C_4  and  C_5 
REMARK    2  A    between atoms: C_5  and  N_6 
REMARK    3  A    between atoms: N_6  and  N_7 
REMARK    4  A    between atoms: N_6  and  C_21 
REMARK       I    between atoms: N_7  and  C_8 
REMARK    5  A    between atoms: C_8  and  C_9 
REMARK    6  A    between atoms: C_9  and  C_10 
ROOT
HETATM    1  N   UNL     1     -41.539  54.512 -54.894  1.00  0.00    -0.267 N 
HETATM    2  C   UNL     1     -42.842  54.701 -55.349  1.00  0.00     0.240 C 
HETATM    3  O   UNL     1     -43.842  54.523 -54.656  1.00  0.00    -0.272 OA
HETATM    4  H   UNL     1     -40.717  54.640 -55.472  1.00  0.00     0.190 HD
ENDROOT
BRANCH   1   5
HETATM    5  N   UNL     1     -41.294  54.162 -53.547  1.00  0.00    -0.286 N 
BRANCH   5   6
HETATM    6  C   UNL     1     -40.971  55.297 -52.658  1.00  0.00     0.187 C 
BRANCH   6   7
HETATM    7  C   UNL     1     -42.215  55.952 -52.088  1.00  0.00    -0.038 A 
HETATM    8  C   UNL     1     -43.092  55.213 -51.280  1.00  0.00     0.009 A 
HETATM    9  C   UNL     1     -44.214  55.819 -50.709  1.00  0.00     0.001 A 
HETATM   10  C   UNL     1     -44.466  57.171 -50.931  1.00  0.00     0.000 A 
HETATM   11  C   UNL     1     -43.597  57.921 -51.719  1.00  0.00     0.001 A 
HETATM   12  C   UNL     1     -42.476  57.316 -52.290  1.00  0.00     0.009 A 
ENDBRANCH   6   7
ENDBRANCH   5   6
BRANCH   5  13
HETATM   13  C   UNL     1     -40.702  52.892 -53.379  1.00  0.00     0.051 A 
HETATM   14  C   UNL     1     -40.714  51.949 -54.427  1.00  0.00     0.031 A 
HETATM   15  C   UNL     1     -40.140  50.679 -54.292  1.00  0.00     0.002 A 
HETATM   16  C   UNL     1     -39.540  50.312 -53.094  1.00  0.00     0.000 A 
HETATM   17  C   UNL     1     -39.525  51.211 -52.035  1.00  0.00     0.002 A 
HETATM   18  C   UNL     1     -40.107  52.479 -52.176  1.00  0.00     0.031 A 
ENDBRANCH   5  13
ENDBRANCH   1   5
BRANCH   2  19
HETATM   19  C   UNL     1     -42.876  55.183 -56.792  1.00  0.00     0.145 C 
BRANCH  19  20
HETATM   20  C   UNL     1     -42.656  56.655 -56.934  1.00  0.00    -0.021 A 
HETATM   21  C   UNL     1     -42.466  57.375 -58.159  1.00  0.00    -0.001 A 
HETATM   22  C   UNL     1     -42.324  58.724 -57.835  1.00  0.00     0.042 A 
HETATM   23  C   UNL     1     -42.397  56.999 -59.517  1.00  0.00     0.014 A 
HETATM   24  C   UNL     1     -42.125  59.718 -58.801  1.00  0.00     0.030 A 
HETATM   25  N   UNL     1     -42.410  58.822 -56.467  1.00  0.00    -0.365 N 
HETATM   26  C   UNL     1     -42.067  59.319 -60.139  1.00  0.00     0.002 A 
HETATM   27  C   UNL     1     -42.199  57.979 -60.495  1.00  0.00     0.001 A 
HETATM   28  H   UNL     1     -42.329  59.686 -55.951  1.00  0.00     0.165 HD
HETATM   29  C   UNL     1     -42.619  57.587 -55.914  1.00  0.00     0.097 A 
ENDBRANCH  19  20
ENDBRANCH   2  19
TORSDOF 6
ENDMDL
MODEL 7
REMARK VINA RESULT:      -7.9     15.006     17.478
REMARK  6 active torsions:
REMARK  status: ('A' for Active; 'I' for Inactive)
REMARK    1  A    between atoms: C_4  and  C_5 
REMARK    2  A    between atoms: C_5  and  N_6 
REMARK    3  A    between atoms: N_6  and  N_7 
REMARK    4  A    between atoms: N_6  and  C_21 
REMARK       I    between atoms: N_7  and  C_8 
REMARK    5  A    between atoms: C_8  and  C_9 
REMARK    6  A    between atoms: C_9  and  C_10 
ROOT
HETATM    1  N   UNL     1     -35.553  39.565 -55.420  1.00  0.00    -0.267 N 
HETATM    2  C   UNL     1     -34.186  39.827 -55.441  1.00  0.00     0.240 C 
HETATM    3  O   UNL     1     -33.705  40.942 -55.634  1.00  0.00    -0.272 OA
HETATM    4  H   UNL     1     -35.948  38.642 -55.281  1.00  0.00     0.190 HD
ENDROOT
BRANCH   1   5
HETATM    5  N   UNL     1     -36.488  40.616 -55.557  1.00  0.00    -0.286 N 
BRANCH   5   6
HETATM    6  C   UNL     1     -37.384  40.806 -54.398  1.00  0.00     0.187 C 
BRANCH   6   7
HETATM    7  C   UNL     1     -36.617  40.978 -53.101  1.00  0.00    -0.038 A 
HETATM    8  C   UNL     1     -36.763  40.042 -52.067  1.00  0.00     0.009 A 
HETATM    9  C   UNL     1     -36.024  40.163 -50.887  1.00  0.00     0.001 A 
HETATM   10  C   UNL     1     -35.124  41.215 -50.733  1.00  0.00     0.000 A 
HETATM   11  C   UNL     1     -34.958  42.145 -51.756  1.00  0.00     0.001 A 
HETATM   12  C   UNL     1     -35.696  42.025 -52.935  1.00  0.00     0.009 A 
ENDBRANCH   6   7
ENDBRANCH   5   6
BRANCH   5  13
HETATM   13  C   UNL     1     -36.925  40.832 -56.881  1.00  0.00     0.051 A 
HETATM   14  C   UNL     1     -36.471  41.946 -57.616  1.00  0.00     0.031 A 
HETATM   15  C   UNL     1     -36.889  42.192 -58.930  1.00  0.00     0.002 A 
HETATM   16  C   UNL     1     -37.783  41.327 -59.547  1.00  0.00     0.000 A 
HETATM   17  C   UNL     1     -38.263  40.228 -58.846  1.00  0.00     0.002 A 
HETATM   18  C   UNL     1     -37.845  39.992 -57.529  1.00  0.00     0.031 A 
ENDBRANCH   5  13
ENDBRANCH   1   5
BRANCH   2  19
HETATM   19  C   UNL     1     -33.363  38.578 -55.164  1.00  0.00     0.145 C 
BRANCH  19  20
HETATM   20  C   UNL     1     -33.452  38.107 -53.747  1.00  0.00    -0.021 A 
HETATM   21  C   UNL     1     -32.867  38.738 -52.601  1.00  0.00    -0.001 A 
HETATM   22  C   UNL     1     -33.217  37.983 -51.482  1.00  0.00     0.042 A 
HETATM   23  C   UNL     1     -32.064  39.883 -52.415  1.00  0.00     0.014 A 
HETATM   24  C   UNL     1     -32.814  38.319 -50.184  1.00  0.00     0.030 A 
HETATM   25  N   UNL     1     -33.975  36.926 -51.929  1.00  0.00    -0.365 N 
HETATM   26  C   UNL     1     -32.025  39.462 -50.026  1.00  0.00     0.002 A 
HETATM   27  C   UNL     1     -31.652  40.233 -51.125  1.00  0.00     0.001 A 
HETATM   28  H   UNL     1     -34.357  36.206 -51.333  1.00  0.00     0.165 HD
HETATM   29  C   UNL     1     -34.130  36.995 -53.288  1.00  0.00     0.097 A 
ENDBRANCH  19  20
ENDBRANCH   2  19
TORSDOF 6
ENDMDL
MODEL 8
REMARK VINA RESULT:      -7.9      1.755      7.661
REMARK  6 active torsions:
REMARK  status: ('A' for Active; 'I' for Inactive)
REMARK    1  A    between atoms: C_4  and  C_5 
REMARK    2  A    between atoms: C_5  and  N_6 
REMARK    3  A    between atoms: N_6  and  N_7 
REMARK    4  A    between atoms: N_6  and  C_21 
REMARK       I    between atoms: N_7  and  C_8 
REMARK    5  A    between atoms: C_8  and  C_9 
REMARK    6  A    between atoms: C_9  and  C_10 
ROOT
HETATM    1  N   UNL     1     -41.641  55.977 -55.716  1.00  0.00    -0.267 N 
HETATM    2  C   UNL     1     -42.851  56.467 -56.199  1.00  0.00     0.240 C 
HETATM    3  O   UNL     1     -43.882  56.526 -55.532  1.00  0.00    -0.272 OA
HETATM    4  H   UNL     1     -40.797  55.910 -56.273  1.00  0.00     0.190 HD
ENDROOT
BRANCH   1   5
HETATM    5  N   UNL     1     -41.518  55.573 -54.367  1.00  0.00    -0.286 N 
BRANCH   5   6
HETATM    6  C   UNL     1     -42.164  54.285 -54.041  1.00  0.00     0.187 C 
BRANCH   6   7
HETATM    7  C   UNL     1     -41.173  53.259 -53.526  1.00  0.00    -0.038 A 
HETATM    8  C   UNL     1     -40.736  53.308 -52.194  1.00  0.00     0.009 A 
HETATM    9  C   UNL     1     -39.862  52.339 -51.696  1.00  0.00     0.001 A 
HETATM   10  C   UNL     1     -39.424  51.304 -52.519  1.00  0.00     0.000 A 
HETATM   11  C   UNL     1     -39.860  51.234 -53.840  1.00  0.00     0.001 A 
HETATM   12  C   UNL     1     -40.733  52.202 -54.339  1.00  0.00     0.009 A 
ENDBRANCH   6   7
ENDBRANCH   5   6
BRANCH   5  13
HETATM   13  C   UNL     1     -41.478  56.641 -53.445  1.00  0.00     0.051 A 
HETATM   14  C   UNL     1     -42.350  56.669 -52.338  1.00  0.00     0.031 A 
HETATM   15  C   UNL     1     -42.340  57.716 -51.408  1.00  0.00     0.002 A 
HETATM   16  C   UNL     1     -41.454  58.775 -51.565  1.00  0.00     0.000 A 
HETATM   17  C   UNL     1     -40.593  58.788 -52.655  1.00  0.00     0.002 A 
HETATM   18  C   UNL     1     -40.613  57.738 -53.585  1.00  0.00     0.031 A 
ENDBRANCH   5  13
ENDBRANCH   1   5
BRANCH   2  19
HETATM   19  C   UNL     1     -42.734  56.950 -57.638  1.00  0.00     0.145 C 
BRANCH  19  20
HETATM   20  C   UNL     1     -43.699  56.287 -58.568  1.00  0.00    -0.021 A 
HETATM   21  C   UNL     1     -44.880  56.871 -59.132  1.00  0.00    -0.001 A 
HETATM   22  C   UNL     1     -45.468  55.916 -59.959  1.00  0.00     0.042 A 
HETATM   23  C   UNL     1     -45.506  58.129 -59.007  1.00  0.00     0.014 A 
HETATM   24  C   UNL     1     -46.646  56.156 -60.677  1.00  0.00     0.030 A 
HETATM   25  N   UNL     1     -44.684  54.788 -59.894  1.00  0.00    -0.365 N 
HETATM   26  C   UNL     1     -47.243  57.413 -60.541  1.00  0.00     0.002 A 
HETATM   27  C   UNL     1     -46.684  58.387 -59.716  1.00  0.00     0.001 A 
HETATM   28  H   UNL     1     -44.879  53.929 -60.388  1.00  0.00     0.165 HD
HETATM   29  C   UNL     1     -43.613  55.002 -59.068  1.00  0.00     0.097 A 
ENDBRANCH  19  20
ENDBRANCH   2  19
TORSDOF 6
ENDMDL
MODEL 9
REMARK VINA RESULT:      -7.9      1.712      7.582
REMARK  6 active torsions:
REMARK  status: ('A' for Active; 'I' for Inactive)
REMARK    1  A    between atoms: C_4  and  C_5 
REMARK    2  A    between atoms: C_5  and  N_6 
REMARK    3  A    between atoms: N_6  and  N_7 
REMARK    4  A    between atoms: N_6  and  C_21 
REMARK       I    between atoms: N_7  and  C_8 
REMARK    5  A    between atoms: C_8  and  C_9 
REMARK    6  A    between atoms: C_9  and  C_10 
ROOT
HETATM    1  N   UNL     1     -41.369  56.331 -54.701  1.00  0.00    -0.267 N 
HETATM    2  C   UNL     1     -42.553  56.539 -55.403  1.00  0.00     0.240 C 
HETATM    3  O   UNL     1     -43.664  56.223 -54.982  1.00  0.00    -0.272 OA
HETATM    4  H   UNL     1     -40.452  56.574 -55.058  1.00  0.00     0.190 HD
ENDROOT
BRANCH   1   5
HETATM    5  N   UNL     1     -41.395  55.791 -53.395  1.00  0.00    -0.286 N 
BRANCH   5   6
HETATM    6  C   UNL     1     -41.193  56.775 -52.312  1.00  0.00     0.187 C 
BRANCH   6   7
HETATM    7  C   UNL     1     -42.498  57.394 -51.848  1.00  0.00    -0.038 A 
HETATM    8  C   UNL     1     -42.673  58.785 -51.894  1.00  0.00     0.009 A 
HETATM    9  C   UNL     1     -43.889  59.362 -51.517  1.00  0.00     0.001 A 
HETATM   10  C   UNL     1     -44.945  58.554 -51.100  1.00  0.00     0.000 A 
HETATM   11  C   UNL     1     -44.790  57.171 -51.062  1.00  0.00     0.001 A 
HETATM   12  C   UNL     1     -43.577  56.594 -51.438  1.00  0.00     0.009 A 
ENDBRANCH   6   7
ENDBRANCH   5   6
BRANCH   5  13
HETATM   13  C   UNL     1     -40.902  54.472 -53.306  1.00  0.00     0.051 A 
HETATM   14  C   UNL     1     -40.629  53.889 -52.052  1.00  0.00     0.031 A 
HETATM   15  C   UNL     1     -40.135  52.584 -51.929  1.00  0.00     0.002 A 
HETATM   16  C   UNL     1     -39.895  51.823 -53.065  1.00  0.00     0.000 A 
HETATM   17  C   UNL     1     -40.137  52.373 -54.318  1.00  0.00     0.002 A 
HETATM   18  C   UNL     1     -40.626  53.682 -54.434  1.00  0.00     0.031 A 
ENDBRANCH   5  13
ENDBRANCH   1   5
BRANCH   2  19
HETATM   19  C   UNL     1     -42.310  57.231 -56.737  1.00  0.00     0.145 C 
BRANCH  19  20
HETATM   20  C   UNL     1     -43.560  57.470 -57.522  1.00  0.00    -0.021 A 
HETATM   21  C   UNL     1     -44.107  56.616 -58.535  1.00  0.00    -0.001 A 
HETATM   22  C   UNL     1     -45.288  57.203 -58.986  1.00  0.00     0.042 A 
HETATM   23  C   UNL     1     -43.700  55.396 -59.113  1.00  0.00     0.014 A 
HETATM   24  C   UNL     1     -46.089  56.629 -59.980  1.00  0.00     0.030 A 
HETATM   25  N   UNL     1     -45.449  58.376 -58.286  1.00  0.00    -0.365 N 
HETATM   26  C   UNL     1     -45.666  55.416 -60.532  1.00  0.00     0.002 A 
HETATM   27  C   UNL     1     -44.488  54.807 -60.108  1.00  0.00     0.001 A 
HETATM   28  H   UNL     1     -46.218  59.017 -58.417  1.00  0.00     0.165 HD
HETATM   29  C   UNL     1     -44.421  58.543 -57.397  1.00  0.00     0.097 A 
ENDBRANCH  19  20
ENDBRANCH   2  19
TORSDOF 6
ENDMDL
MODEL 10
REMARK VINA RESULT:      -7.8      1.827      7.680
REMARK  6 active torsions:
REMARK  status: ('A' for Active; 'I' for Inactive)
REMARK    1  A    between atoms: C_4  and  C_5 
REMARK    2  A    between atoms: C_5  and  N_6 
REMARK    3  A    between atoms: N_6  and  N_7 
REMARK    4  A    between atoms: N_6  and  C_21 
REMARK       I    between atoms: N_7  and  C_8 
REMARK    5  A    between atoms: C_8  and  C_9 
REMARK    6  A    between atoms: C_9  and  C_10 
ROOT
HETATM    1  N   UNL     1     -41.530  56.062 -55.463  1.00  0.00    -0.267 N 
HETATM    2  C   UNL     1     -42.749  56.530 -55.946  1.00  0.00     0.240 C 
HETATM    3  O   UNL     1     -43.784  56.559 -55.282  1.00  0.00    -0.272 OA
HETATM    4  H   UNL     1     -40.683  56.020 -56.018  1.00  0.00     0.190 HD
ENDROOT
BRANCH   1   5
HETATM    5  N   UNL     1     -41.402  55.648 -54.118  1.00  0.00    -0.286 N 
BRANCH   5   6
HETATM    6  C   UNL     1     -42.131  54.408 -53.777  1.00  0.00     0.187 C 
BRANCH   6   7
HETATM    7  C   UNL     1     -41.196  53.289 -53.361  1.00  0.00    -0.038 A 
HETATM    8  C   UNL     1     -40.776  52.336 -54.301  1.00  0.00     0.009 A 
HETATM    9  C   UNL     1     -39.876  51.329 -53.940  1.00  0.00     0.001 A 
HETATM   10  C   UNL     1     -39.378  51.272 -52.641  1.00  0.00     0.000 A 
HETATM   11  C   UNL     1     -39.774  52.219 -51.701  1.00  0.00     0.001 A 
HETATM   12  C   UNL     1     -40.674  53.224 -52.059  1.00  0.00     0.009 A 
ENDBRANCH   6   7
ENDBRANCH   5   6
BRANCH   5  13
HETATM   13  C   UNL     1     -41.264  56.708 -53.197  1.00  0.00     0.051 A 
HETATM   14  C   UNL     1     -40.560  57.878 -53.548  1.00  0.00     0.031 A 
HETATM   15  C   UNL     1     -40.400  58.946 -52.657  1.00  0.00     0.002 A 
HETATM   16  C   UNL     1     -40.939  58.871 -51.379  1.00  0.00     0.000 A 
HETATM   17  C   UNL     1     -41.625  57.725 -50.995  1.00  0.00     0.002 A 
HETATM   18  C   UNL     1     -41.776  56.658 -51.891  1.00  0.00     0.031 A 
ENDBRANCH   5  13
ENDBRANCH   1   5
BRANCH   2  19
HETATM   19  C   UNL     1     -42.639  57.030 -57.379  1.00  0.00     0.145 C 
BRANCH  19  20
HETATM   20  C   UNL     1     -43.659  56.436 -58.297  1.00  0.00    -0.021 A 
HETATM   21  C   UNL     1     -44.782  57.113 -58.876  1.00  0.00    -0.001 A 
HETATM   22  C   UNL     1     -45.454  56.196 -59.684  1.00  0.00     0.042 A 
HETATM   23  C   UNL     1     -45.293  58.424 -58.780  1.00  0.00     0.014 A 
HETATM   24  C   UNL     1     -46.605  56.526 -60.409  1.00  0.00     0.030 A 
HETATM   25  N   UNL     1     -44.775  55.004 -59.593  1.00  0.00    -0.365 N 
HETATM   26  C   UNL     1     -47.086  57.834 -60.302  1.00  0.00     0.002 A 
HETATM   27  C   UNL     1     -46.442  58.771 -59.498  1.00  0.00     0.001 A 
HETATM   28  H   UNL     1     -45.046  54.155 -60.068  1.00  0.00     0.165 HD
HETATM   29  C   UNL     1     -43.689  55.138 -58.769  1.00  0.00     0.097 A 
ENDBRANCH  19  20
ENDBRANCH   2  19
TORSDOF 6
ENDMDL
