MODEL 1
REMARK VINA RESULT:      -7.3      0.000      0.000
REMARK  5 active torsions:
REMARK  status: ('A' for Active; 'I' for Inactive)
REMARK    1  A    between atoms: C_8  and  N_9 
REMARK       I    between atoms: N_9  and  C_10 
REMARK    2  A    between atoms: C_10  and  C_11 
REMARK    3  A    between atoms: C_11  and  N_12 
REMARK    4  A    between atoms: N_12  and  C_13 
REMARK    5  A    between atoms: C_13  and  C_14 
ROOT
HETATM    1  C   UNL     1     -42.287  54.881 -50.244  1.00  0.00     0.372 C 
ENDROOT
BRANCH   1   2
HETATM    2  C   UNL     1     -42.411  55.885 -51.401  1.00  0.00     0.250 C 
HETATM    3  N   UNL     1     -43.403  55.530 -52.289  1.00  0.00    -0.322 N 
HETATM    4  H   UNL     1     -43.825  54.622 -52.105  1.00  0.00     0.169 HD
HETATM    5  O   UNL     1     -41.708  56.888 -51.431  1.00  0.00    -0.271 OA
BRANCH   3   6
HETATM    6  C   UNL     1     -43.848  56.227 -53.397  1.00  0.00     0.085 A 
HETATM    7  C   UNL     1     -43.750  55.697 -54.671  1.00  0.00     0.052 A 
HETATM    8  C   UNL     1     -43.215  54.413 -55.181  1.00  0.00     0.072 C 
HETATM    9  N   UNL     1     -44.277  56.637 -55.509  1.00  0.00    -0.280 N 
HETATM   10  H   UNL     1     -44.371  56.595 -56.517  1.00  0.00     0.189 HD
HETATM   11  N   UNL     1     -44.717  57.732 -54.884  1.00  0.00    -0.177 NA
HETATM   12  C   UNL     1     -44.467  57.498 -53.586  1.00  0.00     0.079 A 
HETATM   13  C   UNL     1     -44.868  58.534 -52.602  1.00  0.00     0.075 C 
ENDBRANCH   3   6
ENDBRANCH   1   2
BRANCH   1  14
HETATM   14  N   UNL     1     -41.896  53.545 -50.754  1.00  0.00     0.101 N 
HETATM   15  H   UNL     1     -42.511  53.337 -51.546  1.00  0.00     0.317 HD
BRANCH  14  16
HETATM   16  C   UNL     1     -40.505  53.521 -51.245  1.00  0.00     0.254 C 
HETATM   17  C   UNL     1     -39.482  53.961 -50.189  1.00  0.00     0.048 C 
BRANCH  16  18
HETATM   18  C   UNL     1     -40.128  52.153 -51.797  1.00  0.00     0.035 A 
HETATM   19  C   UNL     1     -39.909  51.857 -53.155  1.00  0.00     0.045 A 
HETATM   20 CL   UNL     1     -40.009  53.043 -54.408  1.00  0.00    -0.084 Cl
HETATM   21  C   UNL     1     -39.597  50.550 -53.564  1.00  0.00     0.024 A 
HETATM   22  C   UNL     1     -39.507  49.515 -52.635  1.00  0.00     0.005 A 
HETATM   23  C   UNL     1     -39.729  49.784 -51.291  1.00  0.00     0.043 A 
HETATM   24  C   UNL     1     -40.036  51.083 -50.890  1.00  0.00     0.126 A 
HETATM   25  F   UNL     1     -40.258  51.294 -49.583  1.00  0.00    -0.205 F 
ENDBRANCH  16  18
ENDBRANCH  14  16
ENDBRANCH   1  14
TORSDOF 5
ENDMDL
MODEL 2
REMARK VINA RESULT:      -7.3      1.868      2.023
REMARK  5 active torsions:
REMARK  status: ('A' for Active; 'I' for Inactive)
REMARK    1  A    between atoms: C_8  and  N_9 
REMARK       I    between atoms: N_9  and  C_10 
REMARK    2  A    between atoms: C_10  and  C_11 
REMARK    3  A    between atoms: C_11  and  N_12 
REMARK    4  A    between atoms: N_12  and  C_13 
REMARK    5  A    between atoms: C_13  and  C_14 
ROOT
HETATM    1  C   UNL     1     -42.772  54.134 -52.359  1.00  0.00     0.372 C 
ENDROOT
BRANCH   1   2
HETATM    2  C   UNL     1     -42.773  55.660 -52.534  1.00  0.00     0.250 C 
HETATM    3  N   UNL     1     -42.076  56.053 -53.656  1.00  0.00    -0.322 N 
HETATM    4  H   UNL     1     -41.589  55.296 -54.133  1.00  0.00     0.169 HD
HETATM    5  O   UNL     1     -43.388  56.375 -51.751  1.00  0.00    -0.271 OA
BRANCH   3   6
HETATM    6  C   UNL     1     -41.930  57.328 -54.169  1.00  0.00     0.085 A 
HETATM    7  C   UNL     1     -42.579  57.720 -55.326  1.00  0.00     0.052 A 
HETATM    8  C   UNL     1     -43.492  57.008 -56.250  1.00  0.00     0.072 C 
HETATM    9  N   UNL     1     -42.217  59.019 -55.536  1.00  0.00    -0.280 N 
HETATM   10  H   UNL     1     -42.499  59.633 -56.292  1.00  0.00     0.189 HD
HETATM   11  N   UNL     1     -41.393  59.508 -54.606  1.00  0.00    -0.177 NA
HETATM   12  C   UNL     1     -41.208  58.486 -53.755  1.00  0.00     0.079 A 
HETATM   13  C   UNL     1     -40.343  58.715 -52.571  1.00  0.00     0.075 C 
ENDBRANCH   3   6
ENDBRANCH   1   2
BRANCH   1  14
HETATM   14  N   UNL     1     -41.987  53.746 -51.163  1.00  0.00     0.101 N 
HETATM   15  H   UNL     1     -42.310  52.815 -50.885  1.00  0.00     0.317 HD
BRANCH  14  16
HETATM   16  C   UNL     1     -40.542  53.654 -51.450  1.00  0.00     0.254 C 
HETATM   17  C   UNL     1     -39.662  54.033 -50.251  1.00  0.00     0.048 C 
BRANCH  16  18
HETATM   18  C   UNL     1     -40.159  52.272 -51.961  1.00  0.00     0.035 A 
HETATM   19  C   UNL     1     -39.940  51.936 -53.310  1.00  0.00     0.045 A 
HETATM   20 CL   UNL     1     -40.050  53.084 -54.598  1.00  0.00    -0.084 Cl
HETATM   21  C   UNL     1     -39.621  50.619 -53.680  1.00  0.00     0.024 A 
HETATM   22  C   UNL     1     -39.523  49.614 -52.720  1.00  0.00     0.005 A 
HETATM   23  C   UNL     1     -39.745  49.922 -51.385  1.00  0.00     0.043 A 
HETATM   24  C   UNL     1     -40.058  51.231 -51.022  1.00  0.00     0.126 A 
HETATM   25  F   UNL     1     -40.279  51.480 -49.722  1.00  0.00    -0.205 F 
ENDBRANCH  16  18
ENDBRANCH  14  16
ENDBRANCH   1  14
TORSDOF 5
ENDMDL
MODEL 3
REMARK VINA RESULT:      -7.2      2.570      3.549
REMARK  5 active torsions:
REMARK  status: ('A' for Active; 'I' for Inactive)
REMARK    1  A    between atoms: C_8  and  N_9 
REMARK       I    between atoms: N_9  and  C_10 
REMARK    2  A    between atoms: C_10  and  C_11 
REMARK    3  A    between atoms: C_11  and  N_12 
REMARK    4  A    between atoms: N_12  and  C_13 
REMARK    5  A    between atoms: C_13  and  C_14 
ROOT
HETATM    1  C   UNL     1     -42.706  54.678 -55.416  1.00  0.00     0.372 C 
ENDROOT
BRANCH   1   2
HETATM    2  C   UNL     1     -43.167  56.006 -54.796  1.00  0.00     0.250 C 
HETATM    3  N   UNL     1     -42.588  56.231 -53.566  1.00  0.00    -0.322 N 
HETATM    4  H   UNL     1     -42.035  55.452 -53.214  1.00  0.00     0.169 HD
HETATM    5  O   UNL     1     -43.925  56.749 -55.410  1.00  0.00    -0.271 OA
BRANCH   3   6
HETATM    6  C   UNL     1     -42.707  57.346 -52.757  1.00  0.00     0.085 A 
HETATM    7  C   UNL     1     -43.356  57.287 -51.537  1.00  0.00     0.052 A 
HETATM    8  C   UNL     1     -44.034  56.183 -50.818  1.00  0.00     0.072 C 
HETATM    9  N   UNL     1     -43.285  58.545 -51.014  1.00  0.00    -0.280 N 
HETATM   10  H   UNL     1     -43.655  58.878 -50.130  1.00  0.00     0.189 HD
HETATM   11  N   UNL     1     -42.636  59.417 -51.790  1.00  0.00    -0.177 NA
HETATM   12  C   UNL     1     -42.269  58.699 -52.862  1.00  0.00     0.079 A 
HETATM   13  C   UNL     1     -41.492  59.384 -53.925  1.00  0.00     0.075 C 
ENDBRANCH   3   6
ENDBRANCH   1   2
BRANCH   1  14
HETATM   14  N   UNL     1     -42.274  53.732 -54.360  1.00  0.00     0.101 N 
HETATM   15  H   UNL     1     -42.950  52.962 -54.357  1.00  0.00     0.317 HD
BRANCH  14  16
HETATM   16  C   UNL     1     -40.942  53.159 -54.634  1.00  0.00     0.254 C 
HETATM   17  C   UNL     1     -39.887  54.220 -54.978  1.00  0.00     0.048 C 
BRANCH  16  18
HETATM   18  C   UNL     1     -40.455  52.295 -53.480  1.00  0.00     0.035 A 
HETATM   19  C   UNL     1     -40.328  52.719 -52.144  1.00  0.00     0.045 A 
HETATM   20 CL   UNL     1     -40.749  54.311 -51.616  1.00  0.00    -0.084 Cl
HETATM   21  C   UNL     1     -39.835  51.850 -51.158  1.00  0.00     0.024 A 
HETATM   22  C   UNL     1     -39.452  50.550 -51.481  1.00  0.00     0.005 A 
HETATM   23  C   UNL     1     -39.560  50.114 -52.795  1.00  0.00     0.043 A 
HETATM   24  C   UNL     1     -40.052  50.980 -53.770  1.00  0.00     0.126 A 
HETATM   25  F   UNL     1     -40.126  50.522 -55.029  1.00  0.00    -0.205 F 
ENDBRANCH  16  18
ENDBRANCH  14  16
ENDBRANCH   1  14
TORSDOF 5
ENDMDL
MODEL 4
REMARK VINA RESULT:      -7.2      2.120      3.248
REMARK  5 active torsions:
REMARK  status: ('A' for Active; 'I' for Inactive)
REMARK    1  A    between atoms: C_8  and  N_9 
REMARK       I    between atoms: N_9  and  C_10 
REMARK    2  A    between atoms: C_10  and  C_11 
REMARK    3  A    between atoms: C_11  and  N_12 
REMARK    4  A    between atoms: N_12  and  C_13 
REMARK    5  A    between atoms: C_13  and  C_14 
ROOT
HETATM    1  C   UNL     1     -42.555  54.871 -55.418  1.00  0.00     0.372 C 
ENDROOT
BRANCH   1   2
HETATM    2  C   UNL     1     -42.732  56.116 -54.535  1.00  0.00     0.250 C 
HETATM    3  N   UNL     1     -43.733  55.950 -53.602  1.00  0.00    -0.322 N 
HETATM    4  H   UNL     1     -44.262  55.087 -53.705  1.00  0.00     0.169 HD
HETATM    5  O   UNL     1     -41.994  57.085 -54.672  1.00  0.00    -0.271 OA
BRANCH   3   6
HETATM    6  C   UNL     1     -44.119  56.820 -52.600  1.00  0.00     0.085 A 
HETATM    7  C   UNL     1     -44.000  56.481 -51.264  1.00  0.00     0.052 A 
HETATM    8  C   UNL     1     -43.505  55.263 -50.583  1.00  0.00     0.072 C 
HETATM    9  N   UNL     1     -44.464  57.556 -50.562  1.00  0.00    -0.280 N 
HETATM   10  H   UNL     1     -44.530  57.666 -49.557  1.00  0.00     0.189 HD
HETATM   11  N   UNL     1     -44.868  58.570 -51.331  1.00  0.00    -0.177 NA
HETATM   12  C   UNL     1     -44.659  58.140 -52.586  1.00  0.00     0.079 A 
HETATM   13  C   UNL     1     -44.989  59.062 -53.701  1.00  0.00     0.075 C 
ENDBRANCH   3   6
ENDBRANCH   1   2
BRANCH   1  14
HETATM   14  N   UNL     1     -42.306  53.671 -54.584  1.00  0.00     0.101 N 
HETATM   15  H   UNL     1     -42.937  52.938 -54.922  1.00  0.00     0.317 HD
BRANCH  14  16
HETATM   16  C   UNL     1     -40.924  53.173 -54.723  1.00  0.00     0.254 C 
HETATM   17  C   UNL     1     -39.927  54.263 -55.139  1.00  0.00     0.048 C 
BRANCH  16  18
HETATM   18  C   UNL     1     -40.444  52.487 -53.452  1.00  0.00     0.035 A 
HETATM   19  C   UNL     1     -39.999  51.154 -53.366  1.00  0.00     0.045 A 
HETATM   20 CL   UNL     1     -39.906  50.101 -54.733  1.00  0.00    -0.084 Cl
HETATM   21  C   UNL     1     -39.608  50.605 -52.134  1.00  0.00     0.024 A 
HETATM   22  C   UNL     1     -39.660  51.365 -50.967  1.00  0.00     0.005 A 
HETATM   23  C   UNL     1     -40.105  52.679 -51.028  1.00  0.00     0.043 A 
HETATM   24  C   UNL     1     -40.490  53.220 -52.253  1.00  0.00     0.126 A 
HETATM   25  F   UNL     1     -40.927  54.488 -52.264  1.00  0.00    -0.205 F 
ENDBRANCH  16  18
ENDBRANCH  14  16
ENDBRANCH   1  14
TORSDOF 5
ENDMDL
MODEL 5
REMARK VINA RESULT:      -7.1      3.481      4.675
REMARK  5 active torsions:
REMARK  status: ('A' for Active; 'I' for Inactive)
REMARK    1  A    between atoms: C_8  and  N_9 
REMARK       I    between atoms: N_9  and  C_10 
REMARK    2  A    between atoms: C_10  and  C_11 
REMARK    3  A    between atoms: C_11  and  N_12 
REMARK    4  A    between atoms: N_12  and  C_13 
REMARK    5  A    between atoms: C_13  and  C_14 
ROOT
HETATM    1  C   UNL     1     -43.727  55.886 -54.617  1.00  0.00     0.372 C 
ENDROOT
BRANCH   1   2
HETATM    2  C   UNL     1     -43.357  55.503 -56.058  1.00  0.00     0.250 C 
HETATM    3  N   UNL     1     -43.577  56.538 -56.941  1.00  0.00    -0.322 N 
HETATM    4  H   UNL     1     -44.039  57.347 -56.531  1.00  0.00     0.169 HD
HETATM    5  O   UNL     1     -42.878  54.402 -56.305  1.00  0.00    -0.271 OA
BRANCH   3   6
HETATM    6  C   UNL     1     -43.291  56.583 -58.293  1.00  0.00     0.085 A 
HETATM    7  C   UNL     1     -42.519  57.595 -58.834  1.00  0.00     0.052 A 
HETATM    8  C   UNL     1     -41.858  58.778 -58.235  1.00  0.00     0.072 C 
HETATM    9  N   UNL     1     -42.438  57.330 -60.171  1.00  0.00    -0.280 N 
HETATM   10  H   UNL     1     -41.953  57.860 -60.886  1.00  0.00     0.189 HD
HETATM   11  N   UNL     1     -43.087  56.224 -60.543  1.00  0.00    -0.177 NA
HETATM   12  C   UNL     1     -43.613  55.748 -59.403  1.00  0.00     0.079 A 
HETATM   13  C   UNL     1     -44.391  54.486 -59.470  1.00  0.00     0.075 C 
ENDBRANCH   3   6
ENDBRANCH   1   2
BRANCH   1  14
HETATM   14  N   UNL     1     -43.083  54.965 -53.651  1.00  0.00     0.101 N 
HETATM   15  H   UNL     1     -43.305  54.012 -53.955  1.00  0.00     0.317 HD
BRANCH  14  16
HETATM   16  C   UNL     1     -41.613  55.103 -53.643  1.00  0.00     0.254 C 
HETATM   17  C   UNL     1     -41.127  56.350 -52.893  1.00  0.00     0.048 C 
BRANCH  16  18
HETATM   18  C   UNL     1     -40.936  53.860 -53.082  1.00  0.00     0.035 A 
HETATM   19  C   UNL     1     -40.925  53.484 -51.727  1.00  0.00     0.045 A 
HETATM   20 CL   UNL     1     -41.725  54.387 -50.489  1.00  0.00    -0.084 Cl
HETATM   21  C   UNL     1     -40.240  52.331 -51.307  1.00  0.00     0.024 A 
HETATM   22  C   UNL     1     -39.549  51.541 -52.223  1.00  0.00     0.005 A 
HETATM   23  C   UNL     1     -39.539  51.900 -53.564  1.00  0.00     0.043 A 
HETATM   24  C   UNL     1     -40.222  53.043 -53.976  1.00  0.00     0.126 A 
HETATM   25  F   UNL     1     -40.174  53.361 -55.279  1.00  0.00    -0.205 F 
ENDBRANCH  16  18
ENDBRANCH  14  16
ENDBRANCH   1  14
TORSDOF 5
ENDMDL
MODEL 6
REMARK VINA RESULT:      -7.1      2.821      3.680
REMARK  5 active torsions:
REMARK  status: ('A' for Active; 'I' for Inactive)
REMARK    1  A    between atoms: C_8  and  N_9 
REMARK       I    between atoms: N_9  and  C_10 
REMARK    2  A    between atoms: C_10  and  C_11 
REMARK    3  A    between atoms: C_11  and  N_12 
REMARK    4  A    between atoms: N_12  and  C_13 
REMARK    5  A    between atoms: C_13  and  C_14 
ROOT
HETATM    1  C   UNL     1     -42.522  54.860 -55.459  1.00  0.00     0.372 C 
ENDROOT
BRANCH   1   2
HETATM    2  C   UNL     1     -42.800  56.112 -54.612  1.00  0.00     0.250 C 
HETATM    3  N   UNL     1     -41.901  57.123 -54.874  1.00  0.00    -0.322 N 
HETATM    4  H   UNL     1     -41.143  56.859 -55.499  1.00  0.00     0.169 HD
HETATM    5  O   UNL     1     -43.760  56.147 -53.851  1.00  0.00    -0.271 OA
BRANCH   3   6
HETATM    6  C   UNL     1     -41.888  58.408 -54.362  1.00  0.00     0.085 A 
HETATM    7  C   UNL     1     -42.105  59.509 -55.170  1.00  0.00     0.052 A 
HETATM    8  C   UNL     1     -42.374  59.647 -56.620  1.00  0.00     0.072 C 
HETATM    9  N   UNL     1     -42.025  60.597 -54.350  1.00  0.00    -0.280 N 
HETATM   10  H   UNL     1     -42.130  61.575 -54.594  1.00  0.00     0.189 HD
HETATM   11  N   UNL     1     -41.781  60.293 -53.072  1.00  0.00    -0.177 NA
HETATM   12  C   UNL     1     -41.698  58.954 -53.058  1.00  0.00     0.079 A 
HETATM   13  C   UNL     1     -41.454  58.285 -51.756  1.00  0.00     0.075 C 
ENDBRANCH   3   6
ENDBRANCH   1   2
BRANCH   1  14
HETATM   14  N   UNL     1     -42.279  53.685 -54.588  1.00  0.00     0.101 N 
HETATM   15  H   UNL     1     -42.942  52.960 -54.878  1.00  0.00     0.317 HD
BRANCH  14  16
HETATM   16  C   UNL     1     -40.918  53.141 -54.753  1.00  0.00     0.254 C 
HETATM   17  C   UNL     1     -39.879  54.211 -55.118  1.00  0.00     0.048 C 
BRANCH  16  18
HETATM   18  C   UNL     1     -40.465  52.377 -53.517  1.00  0.00     0.035 A 
HETATM   19  C   UNL     1     -40.416  52.900 -52.212  1.00  0.00     0.045 A 
HETATM   20 CL   UNL     1     -40.904  54.511 -51.821  1.00  0.00    -0.084 Cl
HETATM   21  C   UNL     1     -39.950  52.118 -51.142  1.00  0.00     0.024 A 
HETATM   22  C   UNL     1     -39.518  50.810 -51.351  1.00  0.00     0.005 A 
HETATM   23  C   UNL     1     -39.549  50.278 -52.633  1.00  0.00     0.043 A 
HETATM   24  C   UNL     1     -40.015  51.057 -53.691  1.00  0.00     0.126 A 
HETATM   25  F   UNL     1     -40.014  50.508 -54.915  1.00  0.00    -0.205 F 
ENDBRANCH  16  18
ENDBRANCH  14  16
ENDBRANCH   1  14
TORSDOF 5
ENDMDL
MODEL 7
REMARK VINA RESULT:      -7.0      1.995      2.709
REMARK  5 active torsions:
REMARK  status: ('A' for Active; 'I' for Inactive)
REMARK    1  A    between atoms: C_8  and  N_9 
REMARK       I    between atoms: N_9  and  C_10 
REMARK    2  A    between atoms: C_10  and  C_11 
REMARK    3  A    between atoms: C_11  and  N_12 
REMARK    4  A    between atoms: N_12  and  C_13 
REMARK    5  A    between atoms: C_13  and  C_14 
ROOT
HETATM    1  C   UNL     1     -42.045  54.784 -49.954  1.00  0.00     0.372 C 
ENDROOT
BRANCH   1   2
HETATM    2  C   UNL     1     -42.589  55.929 -50.821  1.00  0.00     0.250 C 
HETATM    3  N   UNL     1     -41.592  56.790 -51.226  1.00  0.00    -0.322 N 
HETATM    4  H   UNL     1     -40.681  56.600 -50.813  1.00  0.00     0.169 HD
HETATM    5  O   UNL     1     -43.777  55.974 -51.117  1.00  0.00    -0.271 OA
BRANCH   3   6
HETATM    6  C   UNL     1     -41.695  57.880 -52.071  1.00  0.00     0.085 A 
HETATM    7  C   UNL     1     -41.560  59.173 -51.601  1.00  0.00     0.052 A 
HETATM    8  C   UNL     1     -41.309  59.724 -50.250  1.00  0.00     0.072 C 
HETATM    9  N   UNL     1     -41.714  59.984 -52.688  1.00  0.00    -0.280 N 
HETATM   10  H   UNL     1     -41.680  60.997 -52.724  1.00  0.00     0.189 HD
HETATM   11  N   UNL     1     -41.930  59.324 -53.829  1.00  0.00    -0.177 NA
HETATM   12  C   UNL     1     -41.917  58.030 -53.472  1.00  0.00     0.079 A 
HETATM   13  C   UNL     1     -42.107  57.013 -54.536  1.00  0.00     0.075 C 
ENDBRANCH   3   6
ENDBRANCH   1   2
BRANCH   1  14
HETATM   14  N   UNL     1     -41.795  53.578 -50.778  1.00  0.00     0.101 N 
HETATM   15  H   UNL     1     -42.442  53.622 -51.572  1.00  0.00     0.317 HD
BRANCH  14  16
HETATM   16  C   UNL     1     -40.423  53.546 -51.318  1.00  0.00     0.254 C 
HETATM   17  C   UNL     1     -39.355  53.913 -50.278  1.00  0.00     0.048 C 
BRANCH  16  18
HETATM   18  C   UNL     1     -40.097  52.196 -51.944  1.00  0.00     0.035 A 
HETATM   19  C   UNL     1     -39.947  51.955 -53.322  1.00  0.00     0.045 A 
HETATM   20 CL   UNL     1     -40.085  53.196 -54.518  1.00  0.00    -0.084 Cl
HETATM   21  C   UNL     1     -39.679  50.662 -53.800  1.00  0.00     0.024 A 
HETATM   22  C   UNL     1     -39.564  49.588 -52.921  1.00  0.00     0.005 A 
HETATM   23  C   UNL     1     -39.718  49.802 -51.558  1.00  0.00     0.043 A 
HETATM   24  C   UNL     1     -39.982  51.088 -51.088  1.00  0.00     0.126 A 
HETATM   25  F   UNL     1     -40.139  51.246 -49.765  1.00  0.00    -0.205 F 
ENDBRANCH  16  18
ENDBRANCH  14  16
ENDBRANCH   1  14
TORSDOF 5
ENDMDL
MODEL 8
REMARK VINA RESULT:      -6.9      2.436      3.356
REMARK  5 active torsions:
REMARK  status: ('A' for Active; 'I' for Inactive)
REMARK    1  A    between atoms: C_8  and  N_9 
REMARK       I    between atoms: N_9  and  C_10 
REMARK    2  A    between atoms: C_10  and  C_11 
REMARK    3  A    between atoms: C_11  and  N_12 
REMARK    4  A    between atoms: N_12  and  C_13 
REMARK    5  A    between atoms: C_13  and  C_14 
ROOT
HETATM    1  C   UNL     1     -43.264  56.432 -52.512  1.00  0.00     0.372 C 
ENDROOT
BRANCH   1   2
HETATM    2  C   UNL     1     -43.667  57.083 -53.844  1.00  0.00     0.250 C 
HETATM    3  N   UNL     1     -42.591  57.228 -54.694  1.00  0.00    -0.322 N 
HETATM    4  H   UNL     1     -41.694  56.984 -54.280  1.00  0.00     0.169 HD
HETATM    5  O   UNL     1     -44.838  57.364 -54.070  1.00  0.00    -0.271 OA
BRANCH   3   6
HETATM    6  C   UNL     1     -42.587  57.699 -55.994  1.00  0.00     0.085 A 
HETATM    7  C   UNL     1     -42.363  59.033 -56.279  1.00  0.00     0.052 A 
HETATM    8  C   UNL     1     -42.103  60.209 -55.416  1.00  0.00     0.072 C 
HETATM    9  N   UNL     1     -42.426  59.143 -57.638  1.00  0.00    -0.280 N 
HETATM   10  H   UNL     1     -42.312  59.974 -58.205  1.00  0.00     0.189 HD
HETATM   11  N   UNL     1     -42.665  57.986 -58.262  1.00  0.00    -0.177 NA
HETATM   12  C   UNL     1     -42.762  57.087 -57.271  1.00  0.00     0.079 A 
HETATM   13  C   UNL     1     -43.005  55.670 -57.639  1.00  0.00     0.075 C 
ENDBRANCH   3   6
ENDBRANCH   1   2
BRANCH   1  14
HETATM   14  N   UNL     1     -41.957  55.745 -52.641  1.00  0.00     0.101 N 
HETATM   15  H   UNL     1     -41.242  56.407 -52.326  1.00  0.00     0.317 HD
BRANCH  14  16
HETATM   16  C   UNL     1     -41.870  54.547 -51.784  1.00  0.00     0.254 C 
HETATM   17  C   UNL     1     -43.242  54.009 -51.355  1.00  0.00     0.048 C 
BRANCH  16  18
HETATM   18  C   UNL     1     -41.060  53.441 -52.446  1.00  0.00     0.035 A 
HETATM   19  C   UNL     1     -41.236  52.985 -53.766  1.00  0.00     0.045 A 
HETATM   20 CL   UNL     1     -42.402  53.658 -54.850  1.00  0.00    -0.084 Cl
HETATM   21  C   UNL     1     -40.456  51.933 -54.272  1.00  0.00     0.024 A 
HETATM   22  C   UNL     1     -39.497  51.310 -53.476  1.00  0.00     0.005 A 
HETATM   23  C   UNL     1     -39.315  51.739 -52.168  1.00  0.00     0.043 A 
HETATM   24  C   UNL     1     -40.089  52.785 -51.671  1.00  0.00     0.126 A 
HETATM   25  F   UNL     1     -39.890  53.157 -50.397  1.00  0.00    -0.205 F 
ENDBRANCH  16  18
ENDBRANCH  14  16
ENDBRANCH   1  14
TORSDOF 5
ENDMDL
MODEL 9
REMARK VINA RESULT:      -6.9      2.676      3.319
REMARK  5 active torsions:
REMARK  status: ('A' for Active; 'I' for Inactive)
REMARK    1  A    between atoms: C_8  and  N_9 
REMARK       I    between atoms: N_9  and  C_10 
REMARK    2  A    between atoms: C_10  and  C_11 
REMARK    3  A    between atoms: C_11  and  N_12 
REMARK    4  A    between atoms: N_12  and  C_13 
REMARK    5  A    between atoms: C_13  and  C_14 
ROOT
HETATM    1  C   UNL     1     -41.239  56.696 -50.640  1.00  0.00     0.372 C 
ENDROOT
BRANCH   1   2
HETATM    2  C   UNL     1     -41.074  58.145 -51.123  1.00  0.00     0.250 C 
HETATM    3  N   UNL     1     -42.208  58.612 -51.753  1.00  0.00    -0.322 N 
HETATM    4  H   UNL     1     -42.931  57.909 -51.891  1.00  0.00     0.169 HD
HETATM    5  O   UNL     1     -40.042  58.763 -50.892  1.00  0.00    -0.271 OA
BRANCH   3   6
HETATM    6  C   UNL     1     -42.450  59.882 -52.244  1.00  0.00     0.085 A 
HETATM    7  C   UNL     1     -42.249  60.190 -53.577  1.00  0.00     0.052 A 
HETATM    8  C   UNL     1     -41.776  59.388 -54.729  1.00  0.00     0.072 C 
HETATM    9  N   UNL     1     -42.584  61.507 -53.711  1.00  0.00    -0.280 N 
HETATM   10  H   UNL     1     -42.559  62.077 -54.548  1.00  0.00     0.189 HD
HETATM   11  N   UNL     1     -42.994  62.078 -52.576  1.00  0.00    -0.177 NA
HETATM   12  C   UNL     1     -42.924  61.095 -51.664  1.00  0.00     0.079 A 
HETATM   13  C   UNL     1     -43.345  61.404 -50.275  1.00  0.00     0.075 C 
ENDBRANCH   3   6
ENDBRANCH   1   2
BRANCH   1  14
HETATM   14  N   UNL     1     -41.497  55.790 -51.785  1.00  0.00     0.101 N 
HETATM   15  H   UNL     1     -40.639  55.765 -52.343  1.00  0.00     0.317 HD
BRANCH  14  16
HETATM   16  C   UNL     1     -41.791  54.411 -51.350  1.00  0.00     0.254 C 
HETATM   17  C   UNL     1     -43.290  54.080 -51.363  1.00  0.00     0.048 C 
BRANCH  16  18
HETATM   18  C   UNL     1     -41.024  53.387 -52.174  1.00  0.00     0.035 A 
HETATM   19  C   UNL     1     -41.181  53.175 -53.556  1.00  0.00     0.045 A 
HETATM   20 CL   UNL     1     -42.271  54.093 -54.534  1.00  0.00    -0.084 Cl
HETATM   21  C   UNL     1     -40.445  52.178 -54.218  1.00  0.00     0.024 A 
HETATM   22  C   UNL     1     -39.550  51.372 -53.519  1.00  0.00     0.005 A 
HETATM   23  C   UNL     1     -39.387  51.558 -52.153  1.00  0.00     0.043 A 
HETATM   24  C   UNL     1     -40.118  52.550 -51.501  1.00  0.00     0.126 A 
HETATM   25  F   UNL     1     -39.940  52.686 -50.178  1.00  0.00    -0.205 F 
ENDBRANCH  16  18
ENDBRANCH  14  16
ENDBRANCH   1  14
TORSDOF 5
ENDMDL
MODEL 10
REMARK VINA RESULT:      -6.9      2.724      3.562
REMARK  5 active torsions:
REMARK  status: ('A' for Active; 'I' for Inactive)
REMARK    1  A    between atoms: C_8  and  N_9 
REMARK       I    between atoms: N_9  and  C_10 
REMARK    2  A    between atoms: C_10  and  C_11 
REMARK    3  A    between atoms: C_11  and  N_12 
REMARK    4  A    between atoms: N_12  and  C_13 
REMARK    5  A    between atoms: C_13  and  C_14 
ROOT
HETATM    1  C   UNL     1     -42.572  54.769 -55.477  1.00  0.00     0.372 C 
ENDROOT
BRANCH   1   2
HETATM    2  C   UNL     1     -42.870  56.069 -54.715  1.00  0.00     0.250 C 
HETATM    3  N   UNL     1     -41.946  57.054 -54.991  1.00  0.00    -0.322 N 
HETATM    4  H   UNL     1     -41.164  56.745 -55.565  1.00  0.00     0.169 HD
HETATM    5  O   UNL     1     -43.863  56.159 -54.002  1.00  0.00    -0.271 OA
BRANCH   3   6
HETATM    6  C   UNL     1     -41.937  58.365 -54.551  1.00  0.00     0.085 A 
HETATM    7  C   UNL     1     -42.071  59.422 -55.432  1.00  0.00     0.052 A 
HETATM    8  C   UNL     1     -42.235  59.483 -56.903  1.00  0.00     0.072 C 
HETATM    9  N   UNL     1     -42.022  60.553 -54.670  1.00  0.00    -0.280 N 
HETATM   10  H   UNL     1     -42.087  61.517 -54.975  1.00  0.00     0.189 HD
HETATM   11  N   UNL     1     -41.875  60.318 -53.363  1.00  0.00    -0.177 NA
HETATM   12  C   UNL     1     -41.826  58.980 -53.270  1.00  0.00     0.079 A 
HETATM   13  C   UNL     1     -41.689  58.382 -51.918  1.00  0.00     0.075 C 
ENDBRANCH   3   6
ENDBRANCH   1   2
BRANCH   1  14
HETATM   14  N   UNL     1     -42.281  53.665 -54.532  1.00  0.00     0.101 N 
HETATM   15  H   UNL     1     -42.929  52.905 -54.754  1.00  0.00     0.317 HD
BRANCH  14  16
HETATM   16  C   UNL     1     -40.908  53.146 -54.686  1.00  0.00     0.254 C 
HETATM   17  C   UNL     1     -39.896  54.225 -55.095  1.00  0.00     0.048 C 
BRANCH  16  18
HETATM   18  C   UNL     1     -40.432  52.435 -53.428  1.00  0.00     0.035 A 
HETATM   19  C   UNL     1     -39.979  51.103 -53.369  1.00  0.00     0.045 A 
HETATM   20 CL   UNL     1     -39.871  50.081 -54.759  1.00  0.00    -0.084 Cl
HETATM   21  C   UNL     1     -39.592  50.530 -52.147  1.00  0.00     0.024 A 
HETATM   22  C   UNL     1     -39.655  51.263 -50.964  1.00  0.00     0.005 A 
HETATM   23  C   UNL     1     -40.108  52.575 -50.999  1.00  0.00     0.043 A 
HETATM   24  C   UNL     1     -40.489  53.141 -52.214  1.00  0.00     0.126 A 
HETATM   25  F   UNL     1     -40.935  54.407 -52.199  1.00  0.00    -0.205 F 
ENDBRANCH  16  18
ENDBRANCH  14  16
ENDBRANCH   1  14
TORSDOF 5
ENDMDL
