MODEL 1
REMARK VINA RESULT:      -8.9      0.000      0.000
REMARK  3 active torsions:
REMARK  status: ('A' for Active; 'I' for Inactive)
REMARK    1  A    between atoms: C_5  and  C_6 
REMARK    2  A    between atoms: C_10  and  C_11 
REMARK    3  A    between atoms: C_24  and  N_25 
ROOT
HETATM    1  C   UNL     1     -41.867  54.629 -53.493  1.00  0.00     0.070 A 
HETATM    2  N   UNL     1     -42.554  55.344 -52.577  1.00  0.00    -0.228 NA
HETATM    3  C   UNL     1     -43.327  56.364 -52.936  1.00  0.00     0.165 A 
HETATM    4  C   UNL     1     -43.479  56.748 -54.273  1.00  0.00     0.063 A 
HETATM    5  C   UNL     1     -42.718  56.031 -55.257  1.00  0.00    -0.006 A 
HETATM    6  C   UNL     1     -41.912  54.966 -54.835  1.00  0.00     0.046 A 
HETATM    7  N   UNL     1     -43.947  56.969 -51.936  1.00  0.00    -0.222 NA
HETATM    8  C   UNL     1     -44.757  57.981 -52.230  1.00  0.00     0.237 A 
HETATM    9  N   UNL     1     -45.023  58.431 -53.452  1.00  0.00    -0.229 NA
HETATM   10  C   UNL     1     -44.396  57.807 -54.455  1.00  0.00     0.117 A 
ENDROOT
BRANCH   5  11
HETATM   11  C   UNL     1     -42.735  56.340 -56.698  1.00  0.00    -0.022 A 
HETATM   12  C   UNL     1     -42.186  57.540 -57.187  1.00  0.00     0.052 A 
HETATM   13  C   UNL     1     -42.246  57.785 -58.543  1.00  0.00     0.105 A 
HETATM   14  C   UNL     1     -42.799  56.883 -59.420  1.00  0.00     0.105 A 
HETATM   15  O   UNL     1     -41.795  58.906 -59.169  1.00  0.00    -0.323 OA
HETATM   16  O   UNL     1     -42.765  57.321 -60.706  1.00  0.00    -0.323 OA
HETATM   17  C   UNL     1     -43.321  55.684 -58.992  1.00  0.00     0.040 A 
HETATM   18  C   UNL     1     -42.160  58.620 -60.535  1.00  0.00     0.352 A 
HETATM   19  C   UNL     1     -43.289  55.415 -57.619  1.00  0.00     0.015 A 
ENDBRANCH   5  11
BRANCH  10  20
HETATM   20  N   UNL     1     -44.725  58.331 -55.703  1.00  0.00    -0.286 NA
HETATM   21  H   UNL     1     -44.890  59.328 -55.589  1.00  0.00     0.125 HD
HETATM   22  H   UNL     1     -45.515  57.862 -56.130  1.00  0.00     0.125 HD
ENDBRANCH  10  20
BRANCH   1  23
HETATM   23  C   UNL     1     -41.104  53.478 -52.964  1.00  0.00    -0.007 A 
HETATM   24  C   UNL     1     -40.586  52.472 -53.800  1.00  0.00     0.014 A 
HETATM   25  C   UNL     1     -39.901  51.367 -53.278  1.00  0.00     0.007 A 
HETATM   26  C   UNL     1     -39.722  51.230 -51.899  1.00  0.00    -0.062 A 
HETATM   27  C   UNL     1     -38.993  50.051 -51.329  1.00  0.00     0.048 C 
HETATM   28  C   UNL     1     -40.217  52.225 -51.054  1.00  0.00     0.007 A 
HETATM   29  C   UNL     1     -40.901  53.327 -51.580  1.00  0.00     0.014 A 
ENDBRANCH   1  23
TORSDOF 3
ENDMDL
MODEL 2
REMARK VINA RESULT:      -8.7      2.086      2.353
REMARK  3 active torsions:
REMARK  status: ('A' for Active; 'I' for Inactive)
REMARK    1  A    between atoms: C_5  and  C_6 
REMARK    2  A    between atoms: C_10  and  C_11 
REMARK    3  A    between atoms: C_24  and  N_25 
ROOT
HETATM    1  C   UNL     1     -41.172  55.684 -54.119  1.00  0.00     0.070 A 
HETATM    2  N   UNL     1     -41.025  56.603 -53.142  1.00  0.00    -0.228 NA
HETATM    3  C   UNL     1     -41.449  57.853 -53.302  1.00  0.00     0.165 A 
HETATM    4  C   UNL     1     -42.074  58.282 -54.478  1.00  0.00     0.063 A 
HETATM    5  C   UNL     1     -42.196  57.332 -55.546  1.00  0.00    -0.006 A 
HETATM    6  C   UNL     1     -41.731  56.026 -55.338  1.00  0.00     0.046 A 
HETATM    7  N   UNL     1     -41.247  58.644 -52.261  1.00  0.00    -0.222 NA
HETATM    8  C   UNL     1     -41.672  59.900 -52.345  1.00  0.00     0.237 A 
HETATM    9  N   UNL     1     -42.310  60.435 -53.381  1.00  0.00    -0.229 NA
HETATM   10  C   UNL     1     -42.514  59.624 -54.425  1.00  0.00     0.117 A 
ENDROOT
BRANCH   5  11
HETATM   11  C   UNL     1     -42.790  57.640 -56.860  1.00  0.00    -0.022 A 
HETATM   12  C   UNL     1     -44.156  57.415 -57.106  1.00  0.00     0.052 A 
HETATM   13  C   UNL     1     -44.654  57.705 -58.360  1.00  0.00     0.105 A 
HETATM   14  C   UNL     1     -43.861  58.227 -59.353  1.00  0.00     0.105 A 
HETATM   15  O   UNL     1     -45.938  57.514 -58.770  1.00  0.00    -0.323 OA
HETATM   16  O   UNL     1     -44.543  58.431 -60.510  1.00  0.00    -0.323 OA
HETATM   17  C   UNL     1     -42.526  58.491 -59.149  1.00  0.00     0.040 A 
HETATM   18  C   UNL     1     -45.851  57.942 -60.144  1.00  0.00     0.352 A 
HETATM   19  C   UNL     1     -41.989  58.192 -57.891  1.00  0.00     0.015 A 
ENDBRANCH   5  11
BRANCH  10  20
HETATM   20  N   UNL     1     -43.188  60.252 -55.470  1.00  0.00    -0.286 NA
HETATM   21  H   UNL     1     -43.761  59.552 -55.936  1.00  0.00     0.125 HD
HETATM   22  H   UNL     1     -42.563  60.721 -56.114  1.00  0.00     0.125 HD
ENDBRANCH  10  20
BRANCH   1  23
HETATM   23  C   UNL     1     -40.722  54.316 -53.782  1.00  0.00    -0.007 A 
HETATM   24  C   UNL     1     -40.440  53.354 -54.769  1.00  0.00     0.014 A 
HETATM   25  C   UNL     1     -40.054  52.049 -54.430  1.00  0.00     0.007 A 
HETATM   26  C   UNL     1     -39.949  51.666 -53.091  1.00  0.00    -0.062 A 
HETATM   27  C   UNL     1     -39.539  50.273 -52.717  1.00  0.00     0.048 C 
HETATM   28  C   UNL     1     -40.211  52.611 -52.098  1.00  0.00     0.007 A 
HETATM   29  C   UNL     1     -40.597  53.912 -52.440  1.00  0.00     0.014 A 
ENDBRANCH   1  23
TORSDOF 3
ENDMDL
MODEL 3
REMARK VINA RESULT:      -8.6      3.186      5.339
REMARK  3 active torsions:
REMARK  status: ('A' for Active; 'I' for Inactive)
REMARK    1  A    between atoms: C_5  and  C_6 
REMARK    2  A    between atoms: C_10  and  C_11 
REMARK    3  A    between atoms: C_24  and  N_25 
ROOT
HETATM    1  C   UNL     1     -41.696  54.550 -53.443  1.00  0.00     0.070 A 
HETATM    2  N   UNL     1     -41.924  54.500 -54.773  1.00  0.00    -0.228 NA
HETATM    3  C   UNL     1     -42.505  55.512 -55.410  1.00  0.00     0.165 A 
HETATM    4  C   UNL     1     -42.902  56.680 -54.748  1.00  0.00     0.063 A 
HETATM    5  C   UNL     1     -42.711  56.730 -53.327  1.00  0.00    -0.006 A 
HETATM    6  C   UNL     1     -42.100  55.640 -52.693  1.00  0.00     0.046 A 
HETATM    7  N   UNL     1     -42.659  55.332 -56.712  1.00  0.00    -0.222 NA
HETATM    8  C   UNL     1     -43.209  56.318 -57.413  1.00  0.00     0.237 A 
HETATM    9  N   UNL     1     -43.601  57.491 -56.927  1.00  0.00    -0.229 NA
HETATM   10  C   UNL     1     -43.433  57.664 -55.611  1.00  0.00     0.117 A 
ENDROOT
BRANCH   5  11
HETATM   11  C   UNL     1     -43.114  57.868 -52.481  1.00  0.00    -0.022 A 
HETATM   12  C   UNL     1     -44.382  57.904 -51.873  1.00  0.00     0.052 A 
HETATM   13  C   UNL     1     -44.712  59.003 -51.106  1.00  0.00     0.105 A 
HETATM   14  C   UNL     1     -43.831  60.038 -50.904  1.00  0.00     0.105 A 
HETATM   15  O   UNL     1     -45.903  59.208 -50.481  1.00  0.00    -0.323 OA
HETATM   16  O   UNL     1     -44.356  61.023 -50.128  1.00  0.00    -0.323 OA
HETATM   17  C   UNL     1     -42.570  60.033 -51.455  1.00  0.00     0.040 A 
HETATM   18  C   UNL     1     -45.683  60.506 -49.894  1.00  0.00     0.352 A 
HETATM   19  C   UNL     1     -42.213  58.938 -52.251  1.00  0.00     0.015 A 
ENDBRANCH   5  11
BRANCH  10  20
HETATM   20  N   UNL     1     -43.864  58.915 -55.174  1.00  0.00    -0.286 NA
HETATM   21  H   UNL     1     -43.499  59.060 -54.236  1.00  0.00     0.125 HD
HETATM   22  H   UNL     1     -44.871  59.018 -55.211  1.00  0.00     0.125 HD
ENDBRANCH  10  20
BRANCH   1  23
HETATM   23  C   UNL     1     -40.979  53.387 -52.875  1.00  0.00    -0.007 A 
HETATM   24  C   UNL     1     -40.432  52.374 -53.683  1.00  0.00     0.014 A 
HETATM   25  C   UNL     1     -39.793  51.258 -53.126  1.00  0.00     0.007 A 
HETATM   26  C   UNL     1     -39.691  51.118 -51.739  1.00  0.00    -0.062 A 
HETATM   27  C   UNL     1     -39.010  49.928 -51.132  1.00  0.00     0.048 C 
HETATM   28  C   UNL     1     -40.215  52.121 -50.922  1.00  0.00     0.007 A 
HETATM   29  C   UNL     1     -40.854  53.233 -51.482  1.00  0.00     0.014 A 
ENDBRANCH   1  23
TORSDOF 3
ENDMDL
MODEL 4
REMARK VINA RESULT:      -8.5      2.106      2.788
REMARK  3 active torsions:
REMARK  status: ('A' for Active; 'I' for Inactive)
REMARK    1  A    between atoms: C_5  and  C_6 
REMARK    2  A    between atoms: C_10  and  C_11 
REMARK    3  A    between atoms: C_24  and  N_25 
ROOT
HETATM    1  C   UNL     1     -41.249  55.090 -53.037  1.00  0.00     0.070 A 
HETATM    2  N   UNL     1     -40.861  55.787 -51.948  1.00  0.00    -0.228 NA
HETATM    3  C   UNL     1     -41.254  57.043 -51.758  1.00  0.00     0.165 A 
HETATM    4  C   UNL     1     -42.090  57.706 -52.663  1.00  0.00     0.063 A 
HETATM    5  C   UNL     1     -42.473  56.997 -53.851  1.00  0.00    -0.006 A 
HETATM    6  C   UNL     1     -42.033  55.677 -54.014  1.00  0.00     0.046 A 
HETATM    7  N   UNL     1     -40.806  57.601 -50.646  1.00  0.00    -0.222 NA
HETATM    8  C   UNL     1     -41.183  58.848 -50.383  1.00  0.00     0.237 A 
HETATM    9  N   UNL     1     -41.998  59.586 -51.130  1.00  0.00    -0.229 NA
HETATM   10  C   UNL     1     -42.450  59.008 -52.249  1.00  0.00     0.117 A 
ENDROOT
BRANCH   5  11
HETATM   11  C   UNL     1     -43.312  57.570 -54.919  1.00  0.00    -0.022 A 
HETATM   12  C   UNL     1     -42.732  58.185 -56.044  1.00  0.00     0.052 A 
HETATM   13  C   UNL     1     -43.566  58.720 -57.003  1.00  0.00     0.105 A 
HETATM   14  C   UNL     1     -44.935  58.644 -56.899  1.00  0.00     0.105 A 
HETATM   15  O   UNL     1     -43.169  59.374 -58.128  1.00  0.00    -0.323 OA
HETATM   16  O   UNL     1     -45.569  59.239 -57.944  1.00  0.00    -0.323 OA
HETATM   17  C   UNL     1     -45.546  58.027 -55.832  1.00  0.00     0.040 A 
HETATM   18  C   UNL     1     -44.443  59.732 -58.700  1.00  0.00     0.352 A 
HETATM   19  C   UNL     1     -44.725  57.489 -54.835  1.00  0.00     0.015 A 
ENDBRANCH   5  11
BRANCH  10  20
HETATM   20  N   UNL     1     -43.298  59.839 -52.978  1.00  0.00    -0.286 NA
HETATM   21  H   UNL     1     -43.219  59.580 -53.958  1.00  0.00     0.125 HD
HETATM   22  H   UNL     1     -43.107  60.822 -52.828  1.00  0.00     0.125 HD
ENDBRANCH  10  20
BRANCH   1  23
HETATM   23  C   UNL     1     -40.799  53.681 -53.087  1.00  0.00    -0.007 A 
HETATM   24  C   UNL     1     -40.170  53.055 -51.996  1.00  0.00     0.014 A 
HETATM   25  C   UNL     1     -39.712  51.733 -52.075  1.00  0.00     0.007 A 
HETATM   26  C   UNL     1     -39.863  50.999 -53.255  1.00  0.00    -0.062 A 
HETATM   27  C   UNL     1     -39.376  49.585 -53.351  1.00  0.00     0.048 C 
HETATM   28  C   UNL     1     -40.498  51.600 -54.343  1.00  0.00     0.007 A 
HETATM   29  C   UNL     1     -40.952  52.921 -54.260  1.00  0.00     0.014 A 
ENDBRANCH   1  23
TORSDOF 3
ENDMDL
MODEL 5
REMARK VINA RESULT:      -8.3      1.365      2.031
REMARK  3 active torsions:
REMARK  status: ('A' for Active; 'I' for Inactive)
REMARK    1  A    between atoms: C_5  and  C_6 
REMARK    2  A    between atoms: C_10  and  C_11 
REMARK    3  A    between atoms: C_24  and  N_25 
ROOT
HETATM    1  C   UNL     1     -42.071  54.825 -53.407  1.00  0.00     0.070 A 
HETATM    2  N   UNL     1     -42.712  55.204 -52.281  1.00  0.00    -0.228 NA
HETATM    3  C   UNL     1     -43.459  56.303 -52.250  1.00  0.00     0.165 A 
HETATM    4  C   UNL     1     -43.628  57.120 -53.374  1.00  0.00     0.063 A 
HETATM    5  C   UNL     1     -42.914  56.760 -54.566  1.00  0.00    -0.006 A 
HETATM    6  C   UNL     1     -42.134  55.596 -54.554  1.00  0.00     0.046 A 
HETATM    7  N   UNL     1     -44.035  56.549 -51.085  1.00  0.00    -0.222 NA
HETATM    8  C   UNL     1     -44.817  57.620 -50.994  1.00  0.00     0.237 A 
HETATM    9  N   UNL     1     -45.096  58.463 -51.983  1.00  0.00    -0.229 NA
HETATM   10  C   UNL     1     -44.513  58.200 -53.158  1.00  0.00     0.117 A 
ENDROOT
BRANCH   5  11
HETATM   11  C   UNL     1     -42.953  57.538 -55.817  1.00  0.00    -0.022 A 
HETATM   12  C   UNL     1     -43.810  57.171 -56.871  1.00  0.00     0.052 A 
HETATM   13  C   UNL     1     -43.792  57.926 -58.026  1.00  0.00     0.105 A 
HETATM   14  C   UNL     1     -42.985  59.031 -58.158  1.00  0.00     0.105 A 
HETATM   15  O   UNL     1     -44.529  57.687 -59.144  1.00  0.00    -0.323 OA
HETATM   16  O   UNL     1     -43.113  59.625 -59.374  1.00  0.00    -0.323 OA
HETATM   17  C   UNL     1     -42.152  59.444 -57.144  1.00  0.00     0.040 A 
HETATM   18  C   UNL     1     -44.067  58.746 -60.007  1.00  0.00     0.352 A 
HETATM   19  C   UNL     1     -42.138  58.688 -55.966  1.00  0.00     0.015 A 
ENDBRANCH   5  11
BRANCH  10  20
HETATM   20  N   UNL     1     -44.853  59.123 -54.145  1.00  0.00    -0.286 NA
HETATM   21  H   UNL     1     -44.079  59.174 -54.803  1.00  0.00     0.125 HD
HETATM   22  H   UNL     1     -45.091  60.031 -53.767  1.00  0.00     0.125 HD
ENDBRANCH  10  20
BRANCH   1  23
HETATM   23  C   UNL     1     -41.334  53.545 -53.322  1.00  0.00    -0.007 A 
HETATM   24  C   UNL     1     -40.584  53.184 -52.189  1.00  0.00     0.014 A 
HETATM   25  C   UNL     1     -39.858  51.986 -52.142  1.00  0.00     0.007 A 
HETATM   26  C   UNL     1     -39.854  51.116 -53.235  1.00  0.00    -0.062 A 
HETATM   27  C   UNL     1     -39.080  49.833 -53.198  1.00  0.00     0.048 C 
HETATM   28  C   UNL     1     -40.604  51.451 -54.364  1.00  0.00     0.007 A 
HETATM   29  C   UNL     1     -41.327  52.649 -54.406  1.00  0.00     0.014 A 
ENDBRANCH   1  23
TORSDOF 3
ENDMDL
MODEL 6
REMARK VINA RESULT:      -8.3      2.926      4.787
REMARK  3 active torsions:
REMARK  status: ('A' for Active; 'I' for Inactive)
REMARK    1  A    between atoms: C_5  and  C_6 
REMARK    2  A    between atoms: C_10  and  C_11 
REMARK    3  A    between atoms: C_24  and  N_25 
ROOT
HETATM    1  C   UNL     1     -42.626  55.618 -56.414  1.00  0.00     0.070 A 
HETATM    2  N   UNL     1     -43.192  54.858 -57.376  1.00  0.00    -0.228 NA
HETATM    3  C   UNL     1     -43.626  55.396 -58.512  1.00  0.00     0.165 A 
HETATM    4  C   UNL     1     -43.515  56.765 -58.778  1.00  0.00     0.063 A 
HETATM    5  C   UNL     1     -42.960  57.595 -57.747  1.00  0.00    -0.006 A 
HETATM    6  C   UNL     1     -42.520  56.989 -56.563  1.00  0.00     0.046 A 
HETATM    7  N   UNL     1     -44.151  54.534 -59.368  1.00  0.00    -0.222 NA
HETATM    8  C   UNL     1     -44.580  55.003 -60.535  1.00  0.00     0.237 A 
HETATM    9  N   UNL     1     -44.507  56.268 -60.937  1.00  0.00    -0.229 NA
HETATM   10  C   UNL     1     -43.968  57.129 -60.066  1.00  0.00     0.117 A 
ENDROOT
BRANCH   5  11
HETATM   11  C   UNL     1     -42.815  59.058 -57.855  1.00  0.00    -0.022 A 
HETATM   12  C   UNL     1     -41.564  59.644 -58.122  1.00  0.00     0.052 A 
HETATM   13  C   UNL     1     -41.484  61.019 -58.195  1.00  0.00     0.105 A 
HETATM   14  C   UNL     1     -42.591  61.819 -58.041  1.00  0.00     0.105 A 
HETATM   15  O   UNL     1     -40.350  61.740 -58.410  1.00  0.00    -0.323 OA
HETATM   16  O   UNL     1     -42.294  63.142 -58.141  1.00  0.00    -0.323 OA
HETATM   17  C   UNL     1     -43.840  61.290 -57.809  1.00  0.00     0.040 A 
HETATM   18  C   UNL     1     -40.865  63.085 -58.338  1.00  0.00     0.352 A 
HETATM   19  C   UNL     1     -43.949  59.898 -57.714  1.00  0.00     0.015 A 
ENDBRANCH   5  11
BRANCH  10  20
HETATM   20  N   UNL     1     -43.924  58.432 -60.555  1.00  0.00    -0.286 NA
HETATM   21  H   UNL     1     -44.881  58.737 -60.715  1.00  0.00     0.125 HD
HETATM   22  H   UNL     1     -43.354  58.519 -61.387  1.00  0.00     0.125 HD
ENDBRANCH  10  20
BRANCH   1  23
HETATM   23  C   UNL     1     -42.124  54.882 -55.234  1.00  0.00    -0.007 A 
HETATM   24  C   UNL     1     -42.875  54.757 -54.051  1.00  0.00     0.014 A 
HETATM   25  C   UNL     1     -42.366  54.092 -52.927  1.00  0.00     0.007 A 
HETATM   26  C   UNL     1     -41.082  53.540 -52.950  1.00  0.00    -0.062 A 
HETATM   27  C   UNL     1     -40.527  52.828 -51.753  1.00  0.00     0.048 C 
HETATM   28  C   UNL     1     -40.327  53.643 -54.120  1.00  0.00     0.007 A 
HETATM   29  C   UNL     1     -40.839  54.308 -55.239  1.00  0.00     0.014 A 
ENDBRANCH   1  23
TORSDOF 3
ENDMDL
MODEL 7
REMARK VINA RESULT:      -8.0      1.132      1.562
REMARK  3 active torsions:
REMARK  status: ('A' for Active; 'I' for Inactive)
REMARK    1  A    between atoms: C_5  and  C_6 
REMARK    2  A    between atoms: C_10  and  C_11 
REMARK    3  A    between atoms: C_24  and  N_25 
ROOT
HETATM    1  C   UNL     1     -42.257  55.533 -53.823  1.00  0.00     0.070 A 
HETATM    2  N   UNL     1     -42.931  56.144 -52.825  1.00  0.00    -0.228 NA
HETATM    3  C   UNL     1     -43.679  57.219 -53.057  1.00  0.00     0.165 A 
HETATM    4  C   UNL     1     -43.815  57.770 -54.336  1.00  0.00     0.063 A 
HETATM    5  C   UNL     1     -43.067  57.163 -55.399  1.00  0.00    -0.006 A 
HETATM    6  C   UNL     1     -42.288  56.034 -55.112  1.00  0.00     0.046 A 
HETATM    7  N   UNL     1     -44.289  57.710 -51.990  1.00  0.00    -0.222 NA
HETATM    8  C   UNL     1     -45.073  58.769 -52.157  1.00  0.00     0.237 A 
HETATM    9  N   UNL     1     -45.323  59.374 -53.314  1.00  0.00    -0.229 NA
HETATM   10  C   UNL     1     -44.707  58.865 -54.386  1.00  0.00     0.117 A 
ENDROOT
BRANCH   5  11
HETATM   11  C   UNL     1     -43.070  57.649 -56.791  1.00  0.00    -0.022 A 
HETATM   12  C   UNL     1     -42.267  58.738 -57.178  1.00  0.00     0.052 A 
HETATM   13  C   UNL     1     -42.323  59.162 -58.490  1.00  0.00     0.105 A 
HETATM   14  C   UNL     1     -43.116  58.536 -59.422  1.00  0.00     0.105 A 
HETATM   15  O   UNL     1     -41.640  60.214 -59.016  1.00  0.00    -0.323 OA
HETATM   16  O   UNL     1     -43.032  59.114 -60.649  1.00  0.00    -0.323 OA
HETATM   17  C   UNL     1     -43.896  57.450 -59.096  1.00  0.00     0.040 A 
HETATM   18  C   UNL     1     -42.122  60.201 -60.375  1.00  0.00     0.352 A 
HETATM   19  C   UNL     1     -43.871  57.007 -57.768  1.00  0.00     0.015 A 
ENDBRANCH   5  11
BRANCH  10  20
HETATM   20  N   UNL     1     -45.017  59.548 -55.560  1.00  0.00    -0.286 NA
HETATM   21  H   UNL     1     -44.483  60.413 -55.567  1.00  0.00     0.125 HD
HETATM   22  H   UNL     1     -46.010  59.714 -55.666  1.00  0.00     0.125 HD
ENDBRANCH  10  20
BRANCH   1  23
HETATM   23  C   UNL     1     -41.524  54.307 -53.440  1.00  0.00    -0.007 A 
HETATM   24  C   UNL     1     -41.194  54.016 -52.104  1.00  0.00     0.014 A 
HETATM   25  C   UNL     1     -40.462  52.870 -51.763  1.00  0.00     0.007 A 
HETATM   26  C   UNL     1     -40.028  51.985 -52.753  1.00  0.00    -0.062 A 
HETATM   27  C   UNL     1     -39.243  50.758 -52.401  1.00  0.00     0.048 C 
HETATM   28  C   UNL     1     -40.357  52.251 -54.084  1.00  0.00     0.007 A 
HETATM   29  C   UNL     1     -41.088  53.396 -54.419  1.00  0.00     0.014 A 
ENDBRANCH   1  23
TORSDOF 3
ENDMDL
MODEL 8
REMARK VINA RESULT:      -8.0      3.014      4.955
REMARK  3 active torsions:
REMARK  status: ('A' for Active; 'I' for Inactive)
REMARK    1  A    between atoms: C_5  and  C_6 
REMARK    2  A    between atoms: C_10  and  C_11 
REMARK    3  A    between atoms: C_24  and  N_25 
ROOT
HETATM    1  C   UNL     1     -42.107  55.422 -54.845  1.00  0.00     0.070 A 
HETATM    2  N   UNL     1     -42.373  55.147 -56.140  1.00  0.00    -0.228 NA
HETATM    3  C   UNL     1     -42.966  56.040 -56.927  1.00  0.00     0.165 A 
HETATM    4  C   UNL     1     -43.338  57.307 -56.466  1.00  0.00     0.063 A 
HETATM    5  C   UNL     1     -43.107  57.600 -55.080  1.00  0.00    -0.006 A 
HETATM    6  C   UNL     1     -42.485  56.630 -54.284  1.00  0.00     0.046 A 
HETATM    7  N   UNL     1     -43.158  55.639 -58.173  1.00  0.00    -0.222 NA
HETATM    8  C   UNL     1     -43.722  56.494 -59.019  1.00  0.00     0.237 A 
HETATM    9  N   UNL     1     -44.094  57.737 -58.732  1.00  0.00    -0.229 NA
HETATM   10  C   UNL     1     -43.889  58.134 -57.471  1.00  0.00     0.117 A 
ENDROOT
BRANCH   5  11
HETATM   11  C   UNL     1     -43.480  58.871 -54.433  1.00  0.00    -0.022 A 
HETATM   12  C   UNL     1     -44.764  59.056 -53.888  1.00  0.00     0.052 A 
HETATM   13  C   UNL     1     -45.064  60.272 -53.310  1.00  0.00     0.105 A 
HETATM   14  C   UNL     1     -44.139  61.287 -53.233  1.00  0.00     0.105 A 
HETATM   15  O   UNL     1     -46.262  60.623 -52.770  1.00  0.00    -0.323 OA
HETATM   16  O   UNL     1     -44.639  62.401 -52.636  1.00  0.00    -0.323 OA
HETATM   17  C   UNL     1     -42.863  61.142 -53.727  1.00  0.00     0.040 A 
HETATM   18  C   UNL     1     -45.997  61.985 -52.378  1.00  0.00     0.352 A 
HETATM   19  C   UNL     1     -42.535  59.923 -54.333  1.00  0.00     0.015 A 
ENDBRANCH   5  11
BRANCH  10  20
HETATM   20  N   UNL     1     -44.300  59.445 -57.246  1.00  0.00    -0.286 NA
HETATM   21  H   UNL     1     -45.303  59.489 -57.407  1.00  0.00     0.125 HD
HETATM   22  H   UNL     1     -43.795  60.117 -57.810  1.00  0.00     0.125 HD
ENDBRANCH  10  20
BRANCH   1  23
HETATM   23  C   UNL     1     -41.381  54.368 -54.105  1.00  0.00    -0.007 A 
HETATM   24  C   UNL     1     -40.660  53.353 -54.757  1.00  0.00     0.014 A 
HETATM   25  C   UNL     1     -40.012  52.337 -54.040  1.00  0.00     0.007 A 
HETATM   26  C   UNL     1     -40.076  52.303 -52.645  1.00  0.00    -0.062 A 
HETATM   27  C   UNL     1     -39.389  51.221 -51.868  1.00  0.00     0.048 C 
HETATM   28  C   UNL     1     -40.776  53.310 -51.979  1.00  0.00     0.007 A 
HETATM   29  C   UNL     1     -41.421  54.322 -52.699  1.00  0.00     0.014 A 
ENDBRANCH   1  23
TORSDOF 3
ENDMDL
MODEL 9
REMARK VINA RESULT:      -7.8      3.401      7.217
REMARK  3 active torsions:
REMARK  status: ('A' for Active; 'I' for Inactive)
REMARK    1  A    between atoms: C_5  and  C_6 
REMARK    2  A    between atoms: C_10  and  C_11 
REMARK    3  A    between atoms: C_24  and  N_25 
ROOT
HETATM    1  C   UNL     1     -42.968  56.552 -56.273  1.00  0.00     0.070 A 
HETATM    2  N   UNL     1     -42.841  57.874 -56.026  1.00  0.00    -0.228 NA
HETATM    3  C   UNL     1     -42.332  58.315 -54.880  1.00  0.00     0.165 A 
HETATM    4  C   UNL     1     -41.895  57.444 -53.875  1.00  0.00     0.063 A 
HETATM    5  C   UNL     1     -42.067  56.037 -54.100  1.00  0.00    -0.006 A 
HETATM    6  C   UNL     1     -42.613  55.615 -55.319  1.00  0.00     0.046 A 
HETATM    7  N   UNL     1     -42.259  59.632 -54.777  1.00  0.00    -0.222 NA
HETATM    8  C   UNL     1     -41.734  60.138 -53.666  1.00  0.00     0.237 A 
HETATM    9  N   UNL     1     -41.249  59.436 -52.647  1.00  0.00    -0.229 NA
HETATM   10  C   UNL     1     -41.322  58.106 -52.766  1.00  0.00     0.117 A 
ENDROOT
BRANCH   5  11
HETATM   11  C   UNL     1     -41.699  54.996 -53.124  1.00  0.00    -0.022 A 
HETATM   12  C   UNL     1     -40.637  54.109 -53.379  1.00  0.00     0.052 A 
HETATM   13  C   UNL     1     -40.347  53.143 -52.438  1.00  0.00     0.105 A 
HETATM   14  C   UNL     1     -41.047  53.045 -51.259  1.00  0.00     0.105 A 
HETATM   15  O   UNL     1     -39.380  52.192 -52.545  1.00  0.00    -0.323 OA
HETATM   16  O   UNL     1     -40.609  52.022 -50.478  1.00  0.00    -0.323 OA
HETATM   17  C   UNL     1     -42.074  53.908 -50.954  1.00  0.00     0.040 A 
HETATM   18  C   UNL     1     -39.576  51.463 -51.316  1.00  0.00     0.352 A 
HETATM   19  C   UNL     1     -42.401  54.889 -51.897  1.00  0.00     0.015 A 
ENDBRANCH   5  11
BRANCH  10  20
HETATM   20  N   UNL     1     -40.794  57.437 -51.663  1.00  0.00    -0.286 NA
HETATM   21  H   UNL     1     -41.294  57.757 -50.837  1.00  0.00     0.125 HD
HETATM   22  H   UNL     1     -39.793  57.561 -51.573  1.00  0.00     0.125 HD
ENDBRANCH  10  20
BRANCH   1  23
HETATM   23  C   UNL     1     -43.482  56.200 -57.614  1.00  0.00    -0.007 A 
HETATM   24  C   UNL     1     -43.953  57.170 -58.516  1.00  0.00     0.014 A 
HETATM   25  C   UNL     1     -44.476  56.814 -59.767  1.00  0.00     0.007 A 
HETATM   26  C   UNL     1     -44.552  55.472 -60.149  1.00  0.00    -0.062 A 
HETATM   27  C   UNL     1     -45.110  55.080 -61.484  1.00  0.00     0.048 C 
HETATM   28  C   UNL     1     -44.076  54.496 -59.272  1.00  0.00     0.007 A 
HETATM   29  C   UNL     1     -43.555  54.856 -58.024  1.00  0.00     0.014 A 
ENDBRANCH   1  23
TORSDOF 3
ENDMDL
MODEL 10
REMARK VINA RESULT:      -7.3      1.905      5.483
REMARK  3 active torsions:
REMARK  status: ('A' for Active; 'I' for Inactive)
REMARK    1  A    between atoms: C_5  and  C_6 
REMARK    2  A    between atoms: C_10  and  C_11 
REMARK    3  A    between atoms: C_24  and  N_25 
ROOT
HETATM    1  C   UNL     1     -43.182  57.464 -52.563  1.00  0.00     0.070 A 
HETATM    2  N   UNL     1     -42.489  56.506 -51.910  1.00  0.00    -0.228 NA
HETATM    3  C   UNL     1     -41.799  55.583 -52.571  1.00  0.00     0.165 A 
HETATM    4  C   UNL     1     -41.744  55.554 -53.969  1.00  0.00     0.063 A 
HETATM    5  C   UNL     1     -42.514  56.534 -54.681  1.00  0.00    -0.006 A 
HETATM    6  C   UNL     1     -43.231  57.487 -53.945  1.00  0.00     0.046 A 
HETATM    7  N   UNL     1     -41.162  54.712 -51.805  1.00  0.00    -0.222 NA
HETATM    8  C   UNL     1     -40.431  53.778 -52.404  1.00  0.00     0.237 A 
HETATM    9  N   UNL     1     -40.259  53.650 -53.716  1.00  0.00    -0.229 NA
HETATM   10  C   UNL     1     -40.902  54.540 -54.480  1.00  0.00     0.117 A 
ENDROOT
BRANCH   5  11
HETATM   11  C   UNL     1     -42.594  56.610 -56.151  1.00  0.00    -0.022 A 
HETATM   12  C   UNL     1     -42.079  57.718 -56.848  1.00  0.00     0.052 A 
HETATM   13  C   UNL     1     -42.198  57.744 -58.222  1.00  0.00     0.105 A 
HETATM   14  C   UNL     1     -42.779  56.712 -58.919  1.00  0.00     0.105 A 
HETATM   15  O   UNL     1     -41.785  58.752 -59.037  1.00  0.00    -0.323 OA
HETATM   16  O   UNL     1     -42.804  56.940 -60.259  1.00  0.00    -0.323 OA
HETATM   17  C   UNL     1     -43.270  55.596 -58.283  1.00  0.00     0.040 A 
HETATM   18  C   UNL     1     -42.205  58.251 -60.323  1.00  0.00     0.352 A 
HETATM   19  C   UNL     1     -43.178  55.548 -56.888  1.00  0.00     0.015 A 
ENDBRANCH   5  11
BRANCH  10  20
HETATM   20  N   UNL     1     -40.674  54.345 -55.840  1.00  0.00    -0.286 NA
HETATM   21  H   UNL     1     -40.456  53.362 -55.982  1.00  0.00     0.125 HD
HETATM   22  H   UNL     1     -39.951  54.952 -56.207  1.00  0.00     0.125 HD
ENDBRANCH  10  20
BRANCH   1  23
HETATM   23  C   UNL     1     -43.845  58.469 -51.704  1.00  0.00    -0.007 A 
HETATM   24  C   UNL     1     -45.184  58.339 -51.293  1.00  0.00     0.014 A 
HETATM   25  C   UNL     1     -45.809  59.323 -50.514  1.00  0.00     0.007 A 
HETATM   26  C   UNL     1     -45.115  60.473 -50.132  1.00  0.00    -0.062 A 
HETATM   27  C   UNL     1     -45.774  61.532 -49.301  1.00  0.00     0.048 C 
HETATM   28  C   UNL     1     -43.781  60.613 -50.520  1.00  0.00     0.007 A 
HETATM   29  C   UNL     1     -43.161  59.629 -51.298  1.00  0.00     0.014 A 
ENDBRANCH   1  23
TORSDOF 3
ENDMDL
