MODEL 1
REMARK VINA RESULT:      -8.8      0.000      0.000
REMARK  7 active torsions:
REMARK  status: ('A' for Active; 'I' for Inactive)
REMARK    1  A    between atoms: C_2  and  C_3 
REMARK    2  A    between atoms: C_6  and  N_7 
REMARK       I    between atoms: N_7  and  C_8 
REMARK       I    between atoms: C_8  and  N_9 
REMARK    3  A    between atoms: N_13  and  C_14 
REMARK    4  A    between atoms: N_21  and  C_22 
REMARK    5  A    between atoms: C_22  and  C_23 
REMARK       I    between atoms: C_23  and  N_24 
REMARK    6  A    between atoms: N_24  and  C_25 
REMARK    7  A    between atoms: C_25  and  C_26 
ROOT
HETATM    1  N   UNL     1     -42.117  56.073 -52.809  1.00  0.00    -0.309 N 
HETATM    2  C   UNL     1     -41.593  57.337 -52.663  1.00  0.00     0.322 C 
HETATM    3  N   UNL     1     -42.541  58.348 -52.455  1.00  0.00    -0.334 N 
HETATM    4  C   UNL     1     -42.017  59.688 -52.198  1.00  0.00     0.130 C 
HETATM    5  C   UNL     1     -42.879  60.765 -52.845  1.00  0.00     0.061 C 
HETATM    6  C   UNL     1     -44.381  60.574 -52.570  1.00  0.00     0.118 C 
HETATM    7  N   UNL     1     -45.219  61.480 -53.415  1.00  0.00    -0.346 N 
HETATM    8  C   UNL     1     -45.696  62.612 -52.626  1.00  0.00     0.254 C 
HETATM    9  N   UNL     1     -45.424  62.255 -51.268  1.00  0.00    -0.325 N 
HETATM   10  C   UNL     1     -44.644  61.124 -51.154  1.00  0.00     0.250 C 
HETATM   11  O   UNL     1     -44.204  60.677 -50.104  1.00  0.00    -0.270 OA
HETATM   12  C   UNL     1     -44.882  59.123 -52.610  1.00  0.00     0.061 C 
HETATM   13  C   UNL     1     -43.905  58.143 -51.966  1.00  0.00     0.130 C 
HETATM   14  O   UNL     1     -40.393  57.594 -52.715  1.00  0.00    -0.247 OA
HETATM   15  H   UNL     1     -43.090  56.017 -53.055  1.00  0.00     0.170 HD
ENDROOT
BRANCH   7  16
HETATM   16  C   UNL     1     -45.233  61.550 -54.801  1.00  0.00     0.032 A 
HETATM   17  C   UNL     1     -45.640  60.486 -55.623  1.00  0.00     0.029 A 
HETATM   18  C   UNL     1     -45.624  60.558 -57.025  1.00  0.00     0.002 A 
HETATM   19  C   UNL     1     -45.216  61.721 -57.659  1.00  0.00     0.000 A 
HETATM   20  C   UNL     1     -44.835  62.809 -56.888  1.00  0.00     0.002 A 
HETATM   21  C   UNL     1     -44.853  62.722 -55.488  1.00  0.00     0.029 A 
ENDBRANCH   7  16
BRANCH   9  22
HETATM   22  C   UNL     1     -45.517  63.240 -50.203  1.00  0.00     0.230 C 
BRANCH  22  23
HETATM   23  C   UNL     1     -46.573  62.969 -49.136  1.00  0.00     0.235 C 
HETATM   24  N   UNL     1     -46.156  62.222 -48.062  1.00  0.00    -0.354 N 
HETATM   25  H   UNL     1     -45.188  61.928 -47.993  1.00  0.00     0.162 HD
HETATM   26  O   UNL     1     -47.678  63.508 -49.174  1.00  0.00    -0.272 OA
BRANCH  24  27
HETATM   27  C   UNL     1     -46.994  62.115 -46.891  1.00  0.00     0.187 C 
BRANCH  27  28
HETATM   28  C   UNL     1     -46.818  60.809 -46.208  1.00  0.00     0.070 A 
HETATM   29  O   UNL     1     -47.877  59.945 -46.177  1.00  0.00    -0.325 OA
HETATM   30  C   UNL     1     -47.469  58.843 -45.496  1.00  0.00     0.142 A 
HETATM   31  C   UNL     1     -46.163  58.981 -45.092  1.00  0.00     0.027 A 
HETATM   32  C   UNL     1     -45.740  60.249 -45.552  1.00  0.00     0.036 A 
ENDBRANCH  27  28
ENDBRANCH  24  27
ENDBRANCH  22  23
ENDBRANCH   9  22
BRANCH   1  33
HETATM   33  C   UNL     1     -41.421  54.845 -52.827  1.00  0.00     0.036 A 
HETATM   34  C   UNL     1     -40.971  54.180 -51.686  1.00  0.00     0.030 A 
HETATM   35  C   UNL     1     -40.325  52.942 -51.788  1.00  0.00     0.010 A 
HETATM   36  C   UNL     1     -40.136  52.326 -53.031  1.00  0.00    -0.055 A 
HETATM   37  C   UNL     1     -40.572  53.005 -54.175  1.00  0.00     0.010 A 
HETATM   38  C   UNL     1     -41.204  54.250 -54.075  1.00  0.00     0.030 A 
BRANCH  36  39
HETATM   39  C   UNL     1     -39.466  50.971 -53.168  1.00  0.00     0.010 C 
HETATM   40  C   UNL     1     -40.062  50.116 -54.292  1.00  0.00     0.015 C 
HETATM   41  C   UNL     1     -39.500  50.214 -51.839  1.00  0.00     0.015 C 
ENDBRANCH  36  39
ENDBRANCH   1  33
TORSDOF 7
ENDMDL
MODEL 2
REMARK VINA RESULT:      -8.7      3.726     10.715
REMARK  7 active torsions:
REMARK  status: ('A' for Active; 'I' for Inactive)
REMARK    1  A    between atoms: C_2  and  C_3 
REMARK    2  A    between atoms: C_6  and  N_7 
REMARK       I    between atoms: N_7  and  C_8 
REMARK       I    between atoms: C_8  and  N_9 
REMARK    3  A    between atoms: N_13  and  C_14 
REMARK    4  A    between atoms: N_21  and  C_22 
REMARK    5  A    between atoms: C_22  and  C_23 
REMARK       I    between atoms: C_23  and  N_24 
REMARK    6  A    between atoms: N_24  and  C_25 
REMARK    7  A    between atoms: C_25  and  C_26 
ROOT
HETATM    1  N   UNL     1     -44.690  60.226 -49.966  1.00  0.00    -0.309 N 
HETATM    2  C   UNL     1     -43.544  60.314 -50.723  1.00  0.00     0.322 C 
HETATM    3  N   UNL     1     -43.522  59.491 -51.857  1.00  0.00    -0.334 N 
HETATM    4  C   UNL     1     -42.365  59.628 -52.739  1.00  0.00     0.130 C 
HETATM    5  C   UNL     1     -41.934  58.288 -53.319  1.00  0.00     0.061 C 
HETATM    6  C   UNL     1     -43.111  57.477 -53.889  1.00  0.00     0.118 C 
HETATM    7  N   UNL     1     -42.711  56.073 -54.216  1.00  0.00    -0.346 N 
HETATM    8  C   UNL     1     -42.520  55.922 -55.655  1.00  0.00     0.254 C 
HETATM    9  N   UNL     1     -43.085  57.105 -56.228  1.00  0.00    -0.325 N 
HETATM   10  C   UNL     1     -43.412  58.057 -55.286  1.00  0.00     0.250 C 
HETATM   11  O   UNL     1     -43.822  59.181 -55.535  1.00  0.00    -0.270 OA
HETATM   12  C   UNL     1     -44.409  57.529 -53.070  1.00  0.00     0.061 C 
HETATM   13  C   UNL     1     -44.700  58.920 -52.513  1.00  0.00     0.130 C 
HETATM   14  O   UNL     1     -42.592  61.040 -50.448  1.00  0.00    -0.247 OA
HETATM   15  H   UNL     1     -45.252  59.403 -50.098  1.00  0.00     0.170 HD
ENDROOT
BRANCH   7  16
HETATM   16  C   UNL     1     -42.170  55.136 -53.347  1.00  0.00     0.032 A 
HETATM   17  C   UNL     1     -40.973  54.445 -53.605  1.00  0.00     0.029 A 
HETATM   18  C   UNL     1     -40.448  53.480 -52.732  1.00  0.00     0.002 A 
HETATM   19  C   UNL     1     -41.101  53.184 -51.545  1.00  0.00     0.000 A 
HETATM   20  C   UNL     1     -42.269  53.864 -51.233  1.00  0.00     0.002 A 
HETATM   21  C   UNL     1     -42.784  54.824 -52.116  1.00  0.00     0.029 A 
ENDBRANCH   7  16
BRANCH   9  22
HETATM   22  C   UNL     1     -42.853  57.445 -57.621  1.00  0.00     0.230 C 
BRANCH  22  23
HETATM   23  C   UNL     1     -43.409  56.462 -58.648  1.00  0.00     0.235 C 
HETATM   24  N   UNL     1     -44.776  56.428 -58.760  1.00  0.00    -0.354 N 
HETATM   25  H   UNL     1     -45.347  57.065 -58.215  1.00  0.00     0.162 HD
HETATM   26  O   UNL     1     -42.669  55.852 -59.419  1.00  0.00    -0.272 OA
BRANCH  24  27
HETATM   27  C   UNL     1     -45.391  55.722 -59.859  1.00  0.00     0.187 C 
BRANCH  27  28
HETATM   28  C   UNL     1     -46.420  56.550 -60.537  1.00  0.00     0.070 A 
HETATM   29  O   UNL     1     -47.224  55.952 -61.468  1.00  0.00    -0.325 OA
HETATM   30  C   UNL     1     -48.061  56.911 -61.941  1.00  0.00     0.142 A 
HETATM   31  C   UNL     1     -47.813  58.116 -61.327  1.00  0.00     0.027 A 
HETATM   32  C   UNL     1     -46.755  57.884 -60.419  1.00  0.00     0.036 A 
ENDBRANCH  27  28
ENDBRANCH  24  27
ENDBRANCH  22  23
ENDBRANCH   9  22
BRANCH   1  33
HETATM   33  C   UNL     1     -45.087  61.062 -48.900  1.00  0.00     0.036 A 
HETATM   34  C   UNL     1     -45.153  60.657 -47.567  1.00  0.00     0.030 A 
HETATM   35  C   UNL     1     -45.515  61.562 -46.562  1.00  0.00     0.010 A 
HETATM   36  C   UNL     1     -45.797  62.901 -46.862  1.00  0.00    -0.055 A 
HETATM   37  C   UNL     1     -45.749  63.299 -48.203  1.00  0.00     0.010 A 
HETATM   38  C   UNL     1     -45.401  62.390 -49.210  1.00  0.00     0.030 A 
BRANCH  36  39
HETATM   39  C   UNL     1     -46.164  63.910 -45.789  1.00  0.00     0.010 C 
HETATM   40  C   UNL     1     -45.189  63.913 -44.608  1.00  0.00     0.015 C 
HETATM   41  C   UNL     1     -47.598  63.686 -45.305  1.00  0.00     0.015 C 
ENDBRANCH  36  39
ENDBRANCH   1  33
TORSDOF 7
ENDMDL
MODEL 3
REMARK VINA RESULT:      -8.5      3.641      7.357
REMARK  7 active torsions:
REMARK  status: ('A' for Active; 'I' for Inactive)
REMARK    1  A    between atoms: C_2  and  C_3 
REMARK    2  A    between atoms: C_6  and  N_7 
REMARK       I    between atoms: N_7  and  C_8 
REMARK       I    between atoms: C_8  and  N_9 
REMARK    3  A    between atoms: N_13  and  C_14 
REMARK    4  A    between atoms: N_21  and  C_22 
REMARK    5  A    between atoms: C_22  and  C_23 
REMARK       I    between atoms: C_23  and  N_24 
REMARK    6  A    between atoms: N_24  and  C_25 
REMARK    7  A    between atoms: C_25  and  C_26 
ROOT
HETATM    1  N   UNL     1     -41.628  55.551 -53.422  1.00  0.00    -0.309 N 
HETATM    2  C   UNL     1     -42.914  55.726 -53.880  1.00  0.00     0.322 C 
HETATM    3  N   UNL     1     -43.184  56.995 -54.409  1.00  0.00    -0.334 N 
HETATM    4  C   UNL     1     -44.509  57.188 -54.995  1.00  0.00     0.130 C 
HETATM    5  C   UNL     1     -45.052  58.583 -54.717  1.00  0.00     0.061 C 
HETATM    6  C   UNL     1     -44.028  59.693 -55.010  1.00  0.00     0.118 C 
HETATM    7  N   UNL     1     -44.485  61.020 -54.493  1.00  0.00    -0.346 N 
HETATM    8  C   UNL     1     -44.991  61.844 -55.587  1.00  0.00     0.254 C 
HETATM    9  N   UNL     1     -44.571  61.172 -56.779  1.00  0.00    -0.325 N 
HETATM   10  C   UNL     1     -44.047  59.921 -56.535  1.00  0.00     0.250 C 
HETATM   11  O   UNL     1     -43.708  59.121 -57.396  1.00  0.00    -0.270 OA
HETATM   12  C   UNL     1     -42.581  59.384 -54.601  1.00  0.00     0.061 C 
HETATM   13  C   UNL     1     -42.179  57.941 -54.897  1.00  0.00     0.130 C 
HETATM   14  O   UNL     1     -43.783  54.859 -53.835  1.00  0.00    -0.247 OA
HETATM   15  H   UNL     1     -41.106  56.387 -53.223  1.00  0.00     0.170 HD
ENDROOT
BRANCH   7  16
HETATM   16  C   UNL     1     -44.816  61.336 -53.183  1.00  0.00     0.032 A 
HETATM   17  C   UNL     1     -43.888  61.831 -52.251  1.00  0.00     0.029 A 
HETATM   18  C   UNL     1     -44.227  62.121 -50.920  1.00  0.00     0.002 A 
HETATM   19  C   UNL     1     -45.528  61.942 -50.477  1.00  0.00     0.000 A 
HETATM   20  C   UNL     1     -46.485  61.485 -51.370  1.00  0.00     0.002 A 
HETATM   21  C   UNL     1     -46.132  61.196 -52.696  1.00  0.00     0.029 A 
ENDBRANCH   7  16
BRANCH   9  22
HETATM   22  C   UNL     1     -45.109  61.545 -58.076  1.00  0.00     0.230 C 
BRANCH  22  23
HETATM   23  C   UNL     1     -46.246  60.673 -58.602  1.00  0.00     0.235 C 
HETATM   24  N   UNL     1     -45.925  59.845 -59.649  1.00  0.00    -0.354 N 
HETATM   25  H   UNL     1     -44.972  59.806 -59.992  1.00  0.00     0.162 HD
HETATM   26  O   UNL     1     -47.332  60.619 -58.028  1.00  0.00    -0.272 OA
BRANCH  24  27
HETATM   27  C   UNL     1     -46.848  58.813 -60.059  1.00  0.00     0.187 C 
BRANCH  27  28
HETATM   28  C   UNL     1     -46.169  57.503 -60.218  1.00  0.00     0.070 A 
HETATM   29  O   UNL     1     -44.807  57.487 -60.336  1.00  0.00    -0.325 OA
HETATM   30  C   UNL     1     -44.437  56.188 -60.479  1.00  0.00     0.142 A 
HETATM   31  C   UNL     1     -45.539  55.366 -60.449  1.00  0.00     0.027 A 
HETATM   32  C   UNL     1     -46.658  56.212 -60.280  1.00  0.00     0.036 A 
ENDBRANCH  27  28
ENDBRANCH  24  27
ENDBRANCH  22  23
ENDBRANCH   9  22
BRANCH   1  33
HETATM   33  C   UNL     1     -41.007  54.345 -53.029  1.00  0.00     0.036 A 
HETATM   34  C   UNL     1     -40.719  54.004 -51.709  1.00  0.00     0.030 A 
HETATM   35  C   UNL     1     -40.140  52.767 -51.399  1.00  0.00     0.010 A 
HETATM   36  C   UNL     1     -39.858  51.831 -52.402  1.00  0.00    -0.055 A 
HETATM   37  C   UNL     1     -40.131  52.184 -53.729  1.00  0.00     0.010 A 
HETATM   38  C   UNL     1     -40.695  53.428 -54.039  1.00  0.00     0.030 A 
BRANCH  36  39
HETATM   39  C   UNL     1     -39.257  50.471 -52.092  1.00  0.00     0.010 C 
HETATM   40  C   UNL     1     -39.542  49.427 -53.178  1.00  0.00     0.015 C 
HETATM   41  C   UNL     1     -39.729  49.971 -50.726  1.00  0.00     0.015 C 
ENDBRANCH  36  39
ENDBRANCH   1  33
TORSDOF 7
ENDMDL
MODEL 4
REMARK VINA RESULT:      -8.5      3.345      7.149
REMARK  7 active torsions:
REMARK  status: ('A' for Active; 'I' for Inactive)
REMARK    1  A    between atoms: C_2  and  C_3 
REMARK    2  A    between atoms: C_6  and  N_7 
REMARK       I    between atoms: N_7  and  C_8 
REMARK       I    between atoms: C_8  and  N_9 
REMARK    3  A    between atoms: N_13  and  C_14 
REMARK    4  A    between atoms: N_21  and  C_22 
REMARK    5  A    between atoms: C_22  and  C_23 
REMARK       I    between atoms: C_23  and  N_24 
REMARK    6  A    between atoms: N_24  and  C_25 
REMARK    7  A    between atoms: C_25  and  C_26 
ROOT
HETATM    1  N   UNL     1     -41.318  55.703 -52.997  1.00  0.00    -0.309 N 
HETATM    2  C   UNL     1     -42.460  56.110 -53.649  1.00  0.00     0.322 C 
HETATM    3  N   UNL     1     -42.537  57.487 -53.902  1.00  0.00    -0.334 N 
HETATM    4  C   UNL     1     -43.687  57.943 -54.678  1.00  0.00     0.130 C 
HETATM    5  C   UNL     1     -44.200  59.291 -54.189  1.00  0.00     0.061 C 
HETATM    6  C   UNL     1     -43.076  60.324 -53.995  1.00  0.00     0.118 C 
HETATM    7  N   UNL     1     -43.562  61.544 -53.278  1.00  0.00    -0.346 N 
HETATM    8  C   UNL     1     -43.768  62.639 -54.222  1.00  0.00     0.254 C 
HETATM    9  N   UNL     1     -43.135  62.208 -55.430  1.00  0.00    -0.325 N 
HETATM   10  C   UNL     1     -42.747  60.886 -55.394  1.00  0.00     0.250 C 
HETATM   11  O   UNL     1     -42.272  60.266 -56.334  1.00  0.00    -0.270 OA
HETATM   12  C   UNL     1     -41.774  59.781 -53.390  1.00  0.00     0.061 C 
HETATM   13  C   UNL     1     -41.398  58.406 -53.936  1.00  0.00     0.130 C 
HETATM   14  O   UNL     1     -43.365  55.352 -53.989  1.00  0.00    -0.247 OA
HETATM   15  H   UNL     1     -40.808  56.414 -52.503  1.00  0.00     0.170 HD
ENDROOT
BRANCH   7  16
HETATM   16  C   UNL     1     -44.155  61.593 -52.025  1.00  0.00     0.032 A 
HETATM   17  C   UNL     1     -45.537  61.761 -51.831  1.00  0.00     0.029 A 
HETATM   18  C   UNL     1     -46.124  61.838 -50.559  1.00  0.00     0.002 A 
HETATM   19  C   UNL     1     -45.339  61.726 -49.421  1.00  0.00     0.000 A 
HETATM   20  C   UNL     1     -43.974  61.527 -49.563  1.00  0.00     0.002 A 
HETATM   21  C   UNL     1     -43.400  61.456 -50.841  1.00  0.00     0.029 A 
ENDBRANCH   7  16
BRANCH   9  22
HETATM   22  C   UNL     1     -43.352  62.915 -56.681  1.00  0.00     0.230 C 
BRANCH  22  23
HETATM   23  C   UNL     1     -44.123  62.150 -57.754  1.00  0.00     0.235 C 
HETATM   24  N   UNL     1     -43.383  61.728 -58.830  1.00  0.00    -0.354 N 
HETATM   25  H   UNL     1     -42.382  61.889 -58.854  1.00  0.00     0.162 HD
HETATM   26  O   UNL     1     -45.295  61.815 -57.587  1.00  0.00    -0.272 OA
BRANCH  24  27
HETATM   27  C   UNL     1     -43.953  60.795 -59.774  1.00  0.00     0.187 C 
BRANCH  27  28
HETATM   28  C   UNL     1     -43.219  59.505 -59.781  1.00  0.00     0.070 A 
HETATM   29  O   UNL     1     -43.591  58.541 -58.886  1.00  0.00    -0.325 OA
HETATM   30  C   UNL     1     -42.771  57.477 -59.086  1.00  0.00     0.142 A 
HETATM   31  C   UNL     1     -41.879  57.738 -60.100  1.00  0.00     0.027 A 
HETATM   32  C   UNL     1     -42.168  59.046 -60.551  1.00  0.00     0.036 A 
ENDBRANCH  27  28
ENDBRANCH  24  27
ENDBRANCH  22  23
ENDBRANCH   9  22
BRANCH   1  33
HETATM   33  C   UNL     1     -40.866  54.382 -52.788  1.00  0.00     0.036 A 
HETATM   34  C   UNL     1     -40.585  53.478 -53.812  1.00  0.00     0.030 A 
HETATM   35  C   UNL     1     -40.097  52.198 -53.521  1.00  0.00     0.010 A 
HETATM   36  C   UNL     1     -39.856  51.800 -52.200  1.00  0.00    -0.055 A 
HETATM   37  C   UNL     1     -40.157  52.704 -51.174  1.00  0.00     0.010 A 
HETATM   38  C   UNL     1     -40.659  53.978 -51.465  1.00  0.00     0.030 A 
BRANCH  36  39
HETATM   39  C   UNL     1     -39.300  50.429 -51.858  1.00  0.00     0.010 C 
HETATM   40  C   UNL     1     -39.517  49.397 -52.970  1.00  0.00     0.015 C 
HETATM   41  C   UNL     1     -39.880  49.926 -50.535  1.00  0.00     0.015 C 
ENDBRANCH  36  39
ENDBRANCH   1  33
TORSDOF 7
ENDMDL
MODEL 5
REMARK VINA RESULT:      -8.4      3.505      7.794
REMARK  7 active torsions:
REMARK  status: ('A' for Active; 'I' for Inactive)
REMARK    1  A    between atoms: C_2  and  C_3 
REMARK    2  A    between atoms: C_6  and  N_7 
REMARK       I    between atoms: N_7  and  C_8 
REMARK       I    between atoms: C_8  and  N_9 
REMARK    3  A    between atoms: N_13  and  C_14 
REMARK    4  A    between atoms: N_21  and  C_22 
REMARK    5  A    between atoms: C_22  and  C_23 
REMARK       I    between atoms: C_23  and  N_24 
REMARK    6  A    between atoms: N_24  and  C_25 
REMARK    7  A    between atoms: C_25  and  C_26 
ROOT
HETATM    1  N   UNL     1     -41.290  55.662 -53.132  1.00  0.00    -0.309 N 
HETATM    2  C   UNL     1     -42.474  56.069 -53.703  1.00  0.00     0.322 C 
HETATM    3  N   UNL     1     -42.562  57.443 -53.964  1.00  0.00    -0.334 N 
HETATM    4  C   UNL     1     -43.764  57.899 -54.660  1.00  0.00     0.130 C 
HETATM    5  C   UNL     1     -44.232  59.254 -54.149  1.00  0.00     0.061 C 
HETATM    6  C   UNL     1     -43.092  60.283 -54.049  1.00  0.00     0.118 C 
HETATM    7  N   UNL     1     -43.518  61.513 -53.312  1.00  0.00    -0.346 N 
HETATM    8  C   UNL     1     -43.787  62.599 -54.249  1.00  0.00     0.254 C 
HETATM    9  N   UNL     1     -43.246  62.152 -55.496  1.00  0.00    -0.325 N 
HETATM   10  C   UNL     1     -42.863  60.828 -55.473  1.00  0.00     0.250 C 
HETATM   11  O   UNL     1     -42.461  60.195 -56.439  1.00  0.00    -0.270 OA
HETATM   12  C   UNL     1     -41.753  59.738 -53.534  1.00  0.00     0.061 C 
HETATM   13  C   UNL     1     -41.424  58.356 -54.092  1.00  0.00     0.130 C 
HETATM   14  O   UNL     1     -43.406  55.313 -53.968  1.00  0.00    -0.247 OA
HETATM   15  H   UNL     1     -40.741  56.375 -52.684  1.00  0.00     0.170 HD
ENDROOT
BRANCH   7  16
HETATM   16  C   UNL     1     -44.018  61.579 -52.019  1.00  0.00     0.032 A 
HETATM   17  C   UNL     1     -45.330  61.984 -51.719  1.00  0.00     0.029 A 
HETATM   18  C   UNL     1     -45.817  62.074 -50.406  1.00  0.00     0.002 A 
HETATM   19  C   UNL     1     -45.004  61.736 -49.335  1.00  0.00     0.000 A 
HETATM   20  C   UNL     1     -43.711  61.301 -49.585  1.00  0.00     0.002 A 
HETATM   21  C   UNL     1     -43.236  61.218 -50.902  1.00  0.00     0.029 A 
ENDBRANCH   7  16
BRANCH   9  22
HETATM   22  C   UNL     1     -43.550  62.847 -56.735  1.00  0.00     0.230 C 
BRANCH  22  23
HETATM   23  C   UNL     1     -42.388  63.598 -57.380  1.00  0.00     0.235 C 
HETATM   24  N   UNL     1     -41.301  62.834 -57.720  1.00  0.00    -0.354 N 
HETATM   25  H   UNL     1     -41.322  61.829 -57.583  1.00  0.00     0.162 HD
HETATM   26  O   UNL     1     -42.487  64.782 -57.699  1.00  0.00    -0.272 OA
BRANCH  24  27
HETATM   27  C   UNL     1     -40.259  63.393 -58.549  1.00  0.00     0.187 C 
BRANCH  27  28
HETATM   28  C   UNL     1     -40.381  62.947 -59.959  1.00  0.00     0.070 A 
HETATM   29  O   UNL     1     -41.344  62.028 -60.268  1.00  0.00    -0.325 OA
HETATM   30  C   UNL     1     -41.244  61.782 -61.600  1.00  0.00     0.142 A 
HETATM   31  C   UNL     1     -40.235  62.532 -62.155  1.00  0.00     0.027 A 
HETATM   32  C   UNL     1     -39.676  63.286 -61.097  1.00  0.00     0.036 A 
ENDBRANCH  27  28
ENDBRANCH  24  27
ENDBRANCH  22  23
ENDBRANCH   9  22
BRANCH   1  33
HETATM   33  C   UNL     1     -40.831  54.340 -52.942  1.00  0.00     0.036 A 
HETATM   34  C   UNL     1     -40.444  53.488 -53.975  1.00  0.00     0.030 A 
HETATM   35  C   UNL     1     -39.957  52.204 -53.699  1.00  0.00     0.010 A 
HETATM   36  C   UNL     1     -39.823  51.751 -52.381  1.00  0.00    -0.055 A 
HETATM   37  C   UNL     1     -40.231  52.602 -51.347  1.00  0.00     0.010 A 
HETATM   38  C   UNL     1     -40.732  53.880 -51.624  1.00  0.00     0.030 A 
BRANCH  36  39
HETATM   39  C   UNL     1     -39.271  50.376 -52.052  1.00  0.00     0.010 C 
HETATM   40  C   UNL     1     -39.484  49.357 -53.177  1.00  0.00     0.015 C 
HETATM   41  C   UNL     1     -39.860  49.858 -50.738  1.00  0.00     0.015 C 
ENDBRANCH  36  39
ENDBRANCH   1  33
TORSDOF 7
ENDMDL
MODEL 6
REMARK VINA RESULT:      -8.4      3.191      6.777
REMARK  7 active torsions:
REMARK  status: ('A' for Active; 'I' for Inactive)
REMARK    1  A    between atoms: C_2  and  C_3 
REMARK    2  A    between atoms: C_6  and  N_7 
REMARK       I    between atoms: N_7  and  C_8 
REMARK       I    between atoms: C_8  and  N_9 
REMARK    3  A    between atoms: N_13  and  C_14 
REMARK    4  A    between atoms: N_21  and  C_22 
REMARK    5  A    between atoms: C_22  and  C_23 
REMARK       I    between atoms: C_23  and  N_24 
REMARK    6  A    between atoms: N_24  and  C_25 
REMARK    7  A    between atoms: C_25  and  C_26 
ROOT
HETATM    1  N   UNL     1     -41.376  55.962 -53.445  1.00  0.00    -0.309 N 
HETATM    2  C   UNL     1     -42.608  56.344 -53.926  1.00  0.00     0.322 C 
HETATM    3  N   UNL     1     -42.769  57.725 -54.102  1.00  0.00    -0.334 N 
HETATM    4  C   UNL     1     -44.027  58.163 -54.703  1.00  0.00     0.130 C 
HETATM    5  C   UNL     1     -44.524  59.465 -54.090  1.00  0.00     0.061 C 
HETATM    6  C   UNL     1     -43.425  60.538 -53.993  1.00  0.00     0.118 C 
HETATM    7  N   UNL     1     -43.860  61.704 -53.163  1.00  0.00    -0.346 N 
HETATM    8  C   UNL     1     -44.229  62.827 -54.020  1.00  0.00     0.254 C 
HETATM    9  N   UNL     1     -43.742  62.475 -55.318  1.00  0.00    -0.325 N 
HETATM   10  C   UNL     1     -43.302  61.171 -55.394  1.00  0.00     0.250 C 
HETATM   11  O   UNL     1     -42.929  60.612 -56.415  1.00  0.00    -0.270 OA
HETATM   12  C   UNL     1     -42.036  60.028 -53.585  1.00  0.00     0.061 C 
HETATM   13  C   UNL     1     -41.681  58.695 -54.238  1.00  0.00     0.130 C 
HETATM   14  O   UNL     1     -43.519  55.562 -54.183  1.00  0.00    -0.247 OA
HETATM   15  H   UNL     1     -40.834  56.674 -52.987  1.00  0.00     0.170 HD
ENDROOT
BRANCH   7  16
HETATM   16  C   UNL     1     -44.288  61.675 -51.843  1.00  0.00     0.032 A 
HETATM   17  C   UNL     1     -43.420  61.477 -50.756  1.00  0.00     0.029 A 
HETATM   18  C   UNL     1     -43.866  61.422 -49.426  1.00  0.00     0.002 A 
HETATM   19  C   UNL     1     -45.211  61.586 -49.135  1.00  0.00     0.000 A 
HETATM   20  C   UNL     1     -46.101  61.815 -50.173  1.00  0.00     0.002 A 
HETATM   21  C   UNL     1     -45.642  61.865 -51.498  1.00  0.00     0.029 A 
ENDBRANCH   7  16
BRANCH   9  22
HETATM   22  C   UNL     1     -44.146  63.223 -56.497  1.00  0.00     0.230 C 
BRANCH  22  23
HETATM   23  C   UNL     1     -45.210  62.565 -57.371  1.00  0.00     0.235 C 
HETATM   24  N   UNL     1     -44.757  62.000 -58.537  1.00  0.00    -0.354 N 
HETATM   25  H   UNL     1     -43.765  61.996 -58.747  1.00  0.00     0.162 HD
HETATM   26  O   UNL     1     -46.369  62.429 -56.980  1.00  0.00    -0.272 OA
BRANCH  24  27
HETATM   27  C   UNL     1     -45.628  61.147 -59.310  1.00  0.00     0.187 C 
BRANCH  27  28
HETATM   28  C   UNL     1     -45.230  59.721 -59.211  1.00  0.00     0.070 A 
HETATM   29  O   UNL     1     -44.464  59.190 -60.211  1.00  0.00    -0.325 OA
HETATM   30  C   UNL     1     -44.247  57.887 -59.894  1.00  0.00     0.142 A 
HETATM   31  C   UNL     1     -44.857  57.571 -58.703  1.00  0.00     0.027 A 
HETATM   32  C   UNL     1     -45.491  58.755 -58.260  1.00  0.00     0.036 A 
ENDBRANCH  27  28
ENDBRANCH  24  27
ENDBRANCH  22  23
ENDBRANCH   9  22
BRANCH   1  33
HETATM   33  C   UNL     1     -40.850  54.654 -53.358  1.00  0.00     0.036 A 
HETATM   34  C   UNL     1     -40.652  53.966 -52.162  1.00  0.00     0.030 A 
HETATM   35  C   UNL     1     -40.166  52.653 -52.164  1.00  0.00     0.010 A 
HETATM   36  C   UNL     1     -39.891  51.987 -53.365  1.00  0.00    -0.055 A 
HETATM   37  C   UNL     1     -40.074  52.687 -54.563  1.00  0.00     0.010 A 
HETATM   38  C   UNL     1     -40.545  54.006 -54.560  1.00  0.00     0.030 A 
BRANCH  36  39
HETATM   39  C   UNL     1     -39.391  50.554 -53.398  1.00  0.00     0.010 C 
HETATM   40  C   UNL     1     -39.940  49.753 -54.584  1.00  0.00     0.015 C 
HETATM   41  C   UNL     1     -39.699  49.843 -52.079  1.00  0.00     0.015 C 
ENDBRANCH  36  39
ENDBRANCH   1  33
TORSDOF 7
ENDMDL
MODEL 7
REMARK VINA RESULT:      -8.2      3.771     10.519
REMARK  7 active torsions:
REMARK  status: ('A' for Active; 'I' for Inactive)
REMARK    1  A    between atoms: C_2  and  C_3 
REMARK    2  A    between atoms: C_6  and  N_7 
REMARK       I    between atoms: N_7  and  C_8 
REMARK       I    between atoms: C_8  and  N_9 
REMARK    3  A    between atoms: N_13  and  C_14 
REMARK    4  A    between atoms: N_21  and  C_22 
REMARK    5  A    between atoms: C_22  and  C_23 
REMARK       I    between atoms: C_23  and  N_24 
REMARK    6  A    between atoms: N_24  and  C_25 
REMARK    7  A    between atoms: C_25  and  C_26 
ROOT
HETATM    1  N   UNL     1     -44.747  60.316 -52.052  1.00  0.00    -0.309 N 
HETATM    2  C   UNL     1     -43.787  60.387 -53.036  1.00  0.00     0.322 C 
HETATM    3  N   UNL     1     -43.889  59.406 -54.031  1.00  0.00    -0.334 N 
HETATM    4  C   UNL     1     -42.948  59.507 -55.145  1.00  0.00     0.130 C 
HETATM    5  C   UNL     1     -42.485  58.137 -55.620  1.00  0.00     0.061 C 
HETATM    6  C   UNL     1     -43.648  57.149 -55.820  1.00  0.00     0.118 C 
HETATM    7  N   UNL     1     -43.158  55.752 -56.035  1.00  0.00    -0.346 N 
HETATM    8  C   UNL     1     -43.232  55.400 -57.450  1.00  0.00     0.254 C 
HETATM    9  N   UNL     1     -44.032  56.428 -58.043  1.00  0.00    -0.325 N 
HETATM   10  C   UNL     1     -44.279  57.480 -57.188  1.00  0.00     0.250 C 
HETATM   11  O   UNL     1     -44.857  58.514 -57.492  1.00  0.00    -0.270 OA
HETATM   12  C   UNL     1     -44.760  57.212 -54.763  1.00  0.00     0.061 C 
HETATM   13  C   UNL     1     -45.097  58.641 -54.346  1.00  0.00     0.130 C 
HETATM   14  O   UNL     1     -42.891  61.228 -53.064  1.00  0.00    -0.247 OA
HETATM   15  H   UNL     1     -45.224  59.437 -51.955  1.00  0.00     0.170 HD
ENDROOT
BRANCH   7  16
HETATM   16  C   UNL     1     -42.353  55.010 -55.182  1.00  0.00     0.032 A 
HETATM   17  C   UNL     1     -41.028  54.656 -55.486  1.00  0.00     0.029 A 
HETATM   18  C   UNL     1     -40.231  53.882 -54.628  1.00  0.00     0.002 A 
HETATM   19  C   UNL     1     -40.734  53.447 -53.412  1.00  0.00     0.000 A 
HETATM   20  C   UNL     1     -42.027  53.799 -53.055  1.00  0.00     0.002 A 
HETATM   21  C   UNL     1     -42.814  54.571 -53.923  1.00  0.00     0.029 A 
ENDBRANCH   7  16
BRANCH   9  22
HETATM   22  C   UNL     1     -44.115  56.571 -59.487  1.00  0.00     0.230 C 
BRANCH  22  23
HETATM   23  C   UNL     1     -42.942  57.285 -60.154  1.00  0.00     0.235 C 
HETATM   24  N   UNL     1     -43.116  58.627 -60.386  1.00  0.00    -0.354 N 
HETATM   25  H   UNL     1     -43.963  59.090 -60.074  1.00  0.00     0.162 HD
HETATM   26  O   UNL     1     -41.865  56.719 -60.337  1.00  0.00    -0.272 OA
BRANCH  24  27
HETATM   27  C   UNL     1     -41.992  59.440 -60.783  1.00  0.00     0.187 C 
BRANCH  27  28
HETATM   28  C   UNL     1     -41.734  60.532 -59.812  1.00  0.00     0.070 A 
HETATM   29  O   UNL     1     -41.567  61.802 -60.292  1.00  0.00    -0.325 OA
HETATM   30  C   UNL     1     -41.338  62.603 -59.219  1.00  0.00     0.142 A 
HETATM   31  C   UNL     1     -41.360  61.872 -58.056  1.00  0.00     0.027 A 
HETATM   32  C   UNL     1     -41.617  60.535 -58.436  1.00  0.00     0.036 A 
ENDBRANCH  27  28
ENDBRANCH  24  27
ENDBRANCH  22  23
ENDBRANCH   9  22
BRANCH   1  33
HETATM   33  C   UNL     1     -45.025  61.267 -51.046  1.00  0.00     0.036 A 
HETATM   34  C   UNL     1     -45.683  62.476 -51.269  1.00  0.00     0.030 A 
HETATM   35  C   UNL     1     -45.961  63.346 -50.207  1.00  0.00     0.010 A 
HETATM   36  C   UNL     1     -45.608  63.016 -48.893  1.00  0.00    -0.055 A 
HETATM   37  C   UNL     1     -44.931  61.811 -48.675  1.00  0.00     0.010 A 
HETATM   38  C   UNL     1     -44.640  60.948 -49.739  1.00  0.00     0.030 A 
BRANCH  36  39
HETATM   39  C   UNL     1     -45.922  63.927 -47.719  1.00  0.00     0.010 C 
HETATM   40  C   UNL     1     -44.674  64.578 -47.113  1.00  0.00     0.015 C 
HETATM   41  C   UNL     1     -46.713  63.174 -46.648  1.00  0.00     0.015 C 
ENDBRANCH  36  39
ENDBRANCH   1  33
TORSDOF 7
ENDMDL
MODEL 8
REMARK VINA RESULT:      -8.2      3.972      9.407
REMARK  7 active torsions:
REMARK  status: ('A' for Active; 'I' for Inactive)
REMARK    1  A    between atoms: C_2  and  C_3 
REMARK    2  A    between atoms: C_6  and  N_7 
REMARK       I    between atoms: N_7  and  C_8 
REMARK       I    between atoms: C_8  and  N_9 
REMARK    3  A    between atoms: N_13  and  C_14 
REMARK    4  A    between atoms: N_21  and  C_22 
REMARK    5  A    between atoms: C_22  and  C_23 
REMARK       I    between atoms: C_23  and  N_24 
REMARK    6  A    between atoms: N_24  and  C_25 
REMARK    7  A    between atoms: C_25  and  C_26 
ROOT
HETATM    1  N   UNL     1     -45.530  57.938 -57.193  1.00  0.00    -0.309 N 
HETATM    2  C   UNL     1     -44.215  58.227 -56.905  1.00  0.00     0.322 C 
HETATM    3  N   UNL     1     -43.813  57.907 -55.601  1.00  0.00    -0.334 N 
HETATM    4  C   UNL     1     -42.400  58.106 -55.287  1.00  0.00     0.130 C 
HETATM    5  C   UNL     1     -42.204  58.615 -53.865  1.00  0.00     0.061 C 
HETATM    6  C   UNL     1     -43.008  57.813 -52.827  1.00  0.00     0.118 C 
HETATM    7  N   UNL     1     -43.005  58.479 -51.487  1.00  0.00    -0.346 N 
HETATM    8  C   UNL     1     -42.069  57.809 -50.589  1.00  0.00     0.254 C 
HETATM    9  N   UNL     1     -41.739  56.583 -51.250  1.00  0.00    -0.325 N 
HETATM   10  C   UNL     1     -42.207  56.526 -52.545  1.00  0.00     0.250 C 
HETATM   11  O   UNL     1     -41.974  55.625 -53.338  1.00  0.00    -0.270 OA
HETATM   12  C   UNL     1     -44.422  57.400 -53.260  1.00  0.00     0.061 C 
HETATM   13  C   UNL     1     -44.485  56.951 -54.717  1.00  0.00     0.130 C 
HETATM   14  O   UNL     1     -43.431  58.733 -57.703  1.00  0.00    -0.247 OA
HETATM   15  H   UNL     1     -46.145  57.823 -56.407  1.00  0.00     0.170 HD
ENDROOT
BRANCH   7  16
HETATM   16  C   UNL     1     -43.442  59.763 -51.194  1.00  0.00     0.032 A 
HETATM   17  C   UNL     1     -42.569  60.834 -50.933  1.00  0.00     0.029 A 
HETATM   18  C   UNL     1     -43.022  62.123 -50.610  1.00  0.00     0.002 A 
HETATM   19  C   UNL     1     -44.381  62.391 -50.556  1.00  0.00     0.000 A 
HETATM   20  C   UNL     1     -45.279  61.373 -50.836  1.00  0.00     0.002 A 
HETATM   21  C   UNL     1     -44.813  60.089 -51.156  1.00  0.00     0.029 A 
ENDBRANCH   7  16
BRANCH   9  22
HETATM   22  C   UNL     1     -40.632  55.761 -50.791  1.00  0.00     0.230 C 
BRANCH  22  23
HETATM   23  C   UNL     1     -40.872  54.254 -50.801  1.00  0.00     0.235 C 
HETATM   24  N   UNL     1     -39.791  53.481 -51.145  1.00  0.00    -0.354 N 
HETATM   25  H   UNL     1     -38.893  53.916 -51.327  1.00  0.00     0.162 HD
HETATM   26  O   UNL     1     -41.924  53.768 -50.388  1.00  0.00    -0.272 OA
BRANCH  24  27
HETATM   27  C   UNL     1     -39.837  52.051 -50.951  1.00  0.00     0.187 C 
BRANCH  27  28
HETATM   28  C   UNL     1     -39.820  51.322 -52.243  1.00  0.00     0.070 A 
HETATM   29  O   UNL     1     -39.555  49.980 -52.228  1.00  0.00    -0.325 OA
HETATM   30  C   UNL     1     -39.587  49.555 -53.517  1.00  0.00     0.142 A 
HETATM   31  C   UNL     1     -39.872  50.600 -54.364  1.00  0.00     0.027 A 
HETATM   32  C   UNL     1     -40.024  51.741 -53.543  1.00  0.00     0.036 A 
ENDBRANCH  27  28
ENDBRANCH  24  27
ENDBRANCH  22  23
ENDBRANCH   9  22
BRANCH   1  33
HETATM   33  C   UNL     1     -46.161  57.956 -58.456  1.00  0.00     0.036 A 
HETATM   34  C   UNL     1     -46.200  56.871 -59.330  1.00  0.00     0.030 A 
HETATM   35  C   UNL     1     -46.887  56.957 -60.547  1.00  0.00     0.010 A 
HETATM   36  C   UNL     1     -47.573  58.123 -60.908  1.00  0.00    -0.055 A 
HETATM   37  C   UNL     1     -47.516  59.217 -60.037  1.00  0.00     0.010 A 
HETATM   38  C   UNL     1     -46.816  59.136 -58.827  1.00  0.00     0.030 A 
BRANCH  36  39
HETATM   39  C   UNL     1     -48.350  58.234 -62.208  1.00  0.00     0.010 C 
HETATM   40  C   UNL     1     -49.539  59.196 -62.117  1.00  0.00     0.015 C 
HETATM   41  C   UNL     1     -48.807  56.854 -62.684  1.00  0.00     0.015 C 
ENDBRANCH  36  39
ENDBRANCH   1  33
TORSDOF 7
ENDMDL
MODEL 9
REMARK VINA RESULT:      -7.9      3.299      7.486
REMARK  7 active torsions:
REMARK  status: ('A' for Active; 'I' for Inactive)
REMARK    1  A    between atoms: C_2  and  C_3 
REMARK    2  A    between atoms: C_6  and  N_7 
REMARK       I    between atoms: N_7  and  C_8 
REMARK       I    between atoms: C_8  and  N_9 
REMARK    3  A    between atoms: N_13  and  C_14 
REMARK    4  A    between atoms: N_21  and  C_22 
REMARK    5  A    between atoms: C_22  and  C_23 
REMARK       I    between atoms: C_23  and  N_24 
REMARK    6  A    between atoms: N_24  and  C_25 
REMARK    7  A    between atoms: C_25  and  C_26 
ROOT
HETATM    1  N   UNL     1     -41.651  55.972 -53.511  1.00  0.00    -0.309 N 
HETATM    2  C   UNL     1     -42.955  56.269 -53.835  1.00  0.00     0.322 C 
HETATM    3  N   UNL     1     -43.208  57.626 -54.081  1.00  0.00    -0.334 N 
HETATM    4  C   UNL     1     -44.559  57.967 -54.523  1.00  0.00     0.130 C 
HETATM    5  C   UNL     1     -45.027  59.291 -53.936  1.00  0.00     0.061 C 
HETATM    6  C   UNL     1     -43.980  60.410 -54.073  1.00  0.00     0.118 C 
HETATM    7  N   UNL     1     -44.351  61.618 -53.272  1.00  0.00    -0.346 N 
HETATM    8  C   UNL     1     -44.892  62.658 -54.142  1.00  0.00     0.254 C 
HETATM    9  N   UNL     1     -44.576  62.228 -55.470  1.00  0.00    -0.325 N 
HETATM   10  C   UNL     1     -44.087  60.940 -55.517  1.00  0.00     0.250 C 
HETATM   11  O   UNL     1     -43.835  60.321 -56.541  1.00  0.00    -0.270 OA
HETATM   12  C   UNL     1     -42.524  59.987 -53.835  1.00  0.00     0.061 C 
HETATM   13  C   UNL     1     -42.199  58.624 -54.440  1.00  0.00     0.130 C 
HETATM   14  O   UNL     1     -43.854  55.434 -53.902  1.00  0.00    -0.247 OA
HETATM   15  H   UNL     1     -41.085  56.737 -53.187  1.00  0.00     0.170 HD
ENDROOT
BRANCH   7  16
HETATM   16  C   UNL     1     -44.585  61.672 -51.905  1.00  0.00     0.032 A 
HETATM   17  C   UNL     1     -43.558  61.737 -50.948  1.00  0.00     0.029 A 
HETATM   18  C   UNL     1     -43.805  61.764 -49.567  1.00  0.00     0.002 A 
HETATM   19  C   UNL     1     -45.107  61.748 -49.091  1.00  0.00     0.000 A 
HETATM   20  C   UNL     1     -46.154  61.716 -49.999  1.00  0.00     0.002 A 
HETATM   21  C   UNL     1     -45.893  61.686 -51.377  1.00  0.00     0.029 A 
ENDBRANCH   7  16
BRANCH   9  22
HETATM   22  C   UNL     1     -45.179  62.869 -56.626  1.00  0.00     0.230 C 
BRANCH  22  23
HETATM   23  C   UNL     1     -44.249  63.740 -57.466  1.00  0.00     0.235 C 
HETATM   24  N   UNL     1     -43.010  63.210 -57.726  1.00  0.00    -0.354 N 
HETATM   25  H   UNL     1     -42.781  62.275 -57.407  1.00  0.00     0.162 HD
HETATM   26  O   UNL     1     -44.643  64.782 -57.988  1.00  0.00    -0.272 OA
BRANCH  24  27
HETATM   27  C   UNL     1     -42.151  63.834 -58.704  1.00  0.00     0.187 C 
BRANCH  27  28
HETATM   28  C   UNL     1     -41.969  62.978 -59.902  1.00  0.00     0.070 A 
HETATM   29  O   UNL     1     -42.760  63.211 -60.993  1.00  0.00    -0.325 OA
HETATM   30  C   UNL     1     -42.410  62.301 -61.938  1.00  0.00     0.142 A 
HETATM   31  C   UNL     1     -41.403  61.487 -61.476  1.00  0.00     0.027 A 
HETATM   32  C   UNL     1     -41.116  61.923 -60.162  1.00  0.00     0.036 A 
ENDBRANCH  27  28
ENDBRANCH  24  27
ENDBRANCH  22  23
ENDBRANCH   9  22
BRANCH   1  33
HETATM   33  C   UNL     1     -41.054  54.696 -53.411  1.00  0.00     0.036 A 
HETATM   34  C   UNL     1     -40.836  54.024 -52.209  1.00  0.00     0.030 A 
HETATM   35  C   UNL     1     -40.278  52.740 -52.199  1.00  0.00     0.010 A 
HETATM   36  C   UNL     1     -39.947  52.087 -53.393  1.00  0.00    -0.055 A 
HETATM   37  C   UNL     1     -40.150  52.772 -54.596  1.00  0.00     0.010 A 
HETATM   38  C   UNL     1     -40.694  54.062 -54.605  1.00  0.00     0.030 A 
BRANCH  36  39
HETATM   39  C   UNL     1     -39.368  50.684 -53.412  1.00  0.00     0.010 C 
HETATM   40  C   UNL     1     -39.879  49.839 -54.584  1.00  0.00     0.015 C 
HETATM   41  C   UNL     1     -39.626  49.974 -52.083  1.00  0.00     0.015 C 
ENDBRANCH  36  39
ENDBRANCH   1  33
TORSDOF 7
ENDMDL
MODEL 10
REMARK VINA RESULT:      -7.9      2.952      5.510
REMARK  7 active torsions:
REMARK  status: ('A' for Active; 'I' for Inactive)
REMARK    1  A    between atoms: C_2  and  C_3 
REMARK    2  A    between atoms: C_6  and  N_7 
REMARK       I    between atoms: N_7  and  C_8 
REMARK       I    between atoms: C_8  and  N_9 
REMARK    3  A    between atoms: N_13  and  C_14 
REMARK    4  A    between atoms: N_21  and  C_22 
REMARK    5  A    between atoms: C_22  and  C_23 
REMARK       I    between atoms: C_23  and  N_24 
REMARK    6  A    between atoms: N_24  and  C_25 
REMARK    7  A    between atoms: C_25  and  C_26 
ROOT
HETATM    1  N   UNL     1     -42.070  56.658 -53.335  1.00  0.00    -0.309 N 
HETATM    2  C   UNL     1     -43.369  57.006 -53.625  1.00  0.00     0.322 C 
HETATM    3  N   UNL     1     -43.618  58.386 -53.653  1.00  0.00    -0.334 N 
HETATM    4  C   UNL     1     -44.962  58.797 -54.054  1.00  0.00     0.130 C 
HETATM    5  C   UNL     1     -45.438  60.011 -53.268  1.00  0.00     0.061 C 
HETATM    6  C   UNL     1     -44.389  61.135 -53.209  1.00  0.00     0.118 C 
HETATM    7  N   UNL     1     -44.770  62.200 -52.230  1.00  0.00    -0.346 N 
HETATM    8  C   UNL     1     -45.299  63.367 -52.930  1.00  0.00     0.254 C 
HETATM    9  N   UNL     1     -44.964  63.155 -54.305  1.00  0.00    -0.325 N 
HETATM   10  C   UNL     1     -44.475  61.890 -54.551  1.00  0.00     0.250 C 
HETATM   11  O   UNL     1     -44.208  61.443 -55.657  1.00  0.00    -0.270 OA
HETATM   12  C   UNL     1     -42.936  60.676 -53.022  1.00  0.00     0.061 C 
HETATM   13  C   UNL     1     -42.604  59.426 -53.833  1.00  0.00     0.130 C 
HETATM   14  O   UNL     1     -44.267  56.196 -53.838  1.00  0.00    -0.247 OA
HETATM   15  H   UNL     1     -41.508  57.360 -52.885  1.00  0.00     0.170 HD
ENDROOT
BRANCH   7  16
HETATM   16  C   UNL     1     -45.025  62.034 -50.876  1.00  0.00     0.032 A 
HETATM   17  C   UNL     1     -46.248  62.376 -50.273  1.00  0.00     0.029 A 
HETATM   18  C   UNL     1     -46.485  62.230 -48.898  1.00  0.00     0.002 A 
HETATM   19  C   UNL     1     -45.500  61.712 -48.071  1.00  0.00     0.000 A 
HETATM   20  C   UNL     1     -44.288  61.332 -48.626  1.00  0.00     0.002 A 
HETATM   21  C   UNL     1     -44.063  61.485 -50.002  1.00  0.00     0.029 A 
ENDBRANCH   7  16
BRANCH   9  22
HETATM   22  C   UNL     1     -45.551  63.974 -55.351  1.00  0.00     0.230 C 
BRANCH  22  23
HETATM   23  C   UNL     1     -46.803  63.410 -56.016  1.00  0.00     0.235 C 
HETATM   24  N   UNL     1     -47.864  63.169 -55.179  1.00  0.00    -0.354 N 
HETATM   25  H   UNL     1     -47.801  63.410 -54.196  1.00  0.00     0.162 HD
HETATM   26  O   UNL     1     -46.894  63.316 -57.239  1.00  0.00    -0.272 OA
BRANCH  24  27
HETATM   27  C   UNL     1     -49.164  62.870 -55.732  1.00  0.00     0.187 C 
BRANCH  27  28
HETATM   28  C   UNL     1     -50.125  62.456 -54.681  1.00  0.00     0.070 A 
HETATM   29  O   UNL     1     -49.952  62.941 -53.414  1.00  0.00    -0.325 OA
HETATM   30  C   UNL     1     -50.941  62.412 -52.649  1.00  0.00     0.142 A 
HETATM   31  C   UNL     1     -51.753  61.598 -53.402  1.00  0.00     0.027 A 
HETATM   32  C   UNL     1     -51.229  61.626 -54.715  1.00  0.00     0.036 A 
ENDBRANCH  27  28
ENDBRANCH  24  27
ENDBRANCH  22  23
ENDBRANCH   9  22
BRANCH   1  33
HETATM   33  C   UNL     1     -41.475  55.381 -53.432  1.00  0.00     0.036 A 
HETATM   34  C   UNL     1     -40.875  54.880 -54.587  1.00  0.00     0.030 A 
HETATM   35  C   UNL     1     -40.268  53.618 -54.588  1.00  0.00     0.010 A 
HETATM   36  C   UNL     1     -40.224  52.838 -53.426  1.00  0.00    -0.055 A 
HETATM   37  C   UNL     1     -40.843  53.335 -52.274  1.00  0.00     0.010 A 
HETATM   38  C   UNL     1     -41.464  54.591 -52.278  1.00  0.00     0.030 A 
BRANCH  36  39
HETATM   39  C   UNL     1     -39.546  51.479 -53.391  1.00  0.00     0.010 C 
HETATM   40  C   UNL     1     -40.199  50.458 -54.328  1.00  0.00     0.015 C 
HETATM   41  C   UNL     1     -39.492  50.940 -51.960  1.00  0.00     0.015 C 
ENDBRANCH  36  39
ENDBRANCH   1  33
TORSDOF 7
ENDMDL
