MODEL 1
REMARK VINA RESULT:      -8.2      0.000      0.000
REMARK  6 active torsions:
REMARK  status: ('A' for Active; 'I' for Inactive)
REMARK    1  A    between atoms: C_3  and  C_4 
REMARK    2  A    between atoms: C_14  and  N_15 
REMARK       I    between atoms: N_15  and  C_16 
REMARK    3  A    between atoms: C_16  and  C_17 
REMARK    4  A    between atoms: N_21  and  C_22 
REMARK    5  A    between atoms: C_22  and  C_23 
REMARK    6  A    between atoms: C_26  and  O_27 
ROOT
HETATM    1  C   UNL     1     -45.158  57.345 -54.927  1.00  0.00     0.051 C 
HETATM    2  C   UNL     1     -43.836  57.045 -54.306  1.00  0.00    -0.022 A 
HETATM    3  C   UNL     1     -43.245  57.677 -53.175  1.00  0.00     0.062 A 
HETATM    4  C   UNL     1     -41.969  57.162 -52.991  1.00  0.00     0.125 A 
HETATM    5  N   UNL     1     -41.789  56.163 -53.930  1.00  0.00    -0.332 N 
HETATM    6  C   UNL     1     -42.922  56.096 -54.745  1.00  0.00     0.017 A 
HETATM    7  C   UNL     1     -43.021  55.161 -55.911  1.00  0.00     0.069 C 
ENDROOT
BRANCH   3   8
HETATM    8  C   UNL     1     -43.824  58.726 -52.273  1.00  0.00     0.143 A 
HETATM    9  N   UNL     1     -43.532  60.013 -52.386  1.00  0.00    -0.228 NA
HETATM   10  C   UNL     1     -44.139  60.620 -51.307  1.00  0.00     0.086 A 
HETATM   11  C   UNL     1     -44.855  59.695 -50.557  1.00  0.00     0.062 A 
HETATM   12  C   UNL     1     -44.111  61.959 -50.893  1.00  0.00     0.034 A 
HETATM   13  N   UNL     1     -44.658  58.506 -51.207  1.00  0.00    -0.338 N 
HETATM   14  C   UNL     1     -45.562  60.024 -49.399  1.00  0.00     0.032 A 
HETATM   15  H   UNL     1     -45.009  57.613 -50.900  1.00  0.00     0.167 HD
HETATM   16  C   UNL     1     -45.518  61.362 -48.997  1.00  0.00     0.002 A 
HETATM   17  C   UNL     1     -44.805  62.316 -49.728  1.00  0.00     0.002 A 
ENDBRANCH   3   8
BRANCH   4  18
HETATM   18  N   UNL     1     -41.122  57.742 -52.049  1.00  0.00    -0.312 N 
HETATM   19  C   UNL     1     -40.272  58.870 -52.192  1.00  0.00     0.226 C 
HETATM   20  O   UNL     1     -39.830  59.187 -53.283  1.00  0.00    -0.273 OA
HETATM   21  H   UNL     1     -41.052  57.200 -51.182  1.00  0.00     0.170 HD
BRANCH  19  22
HETATM   22  C   UNL     1     -39.951  59.624 -50.915  1.00  0.00     0.070 C 
HETATM   23  C   UNL     1     -40.958  59.226 -49.842  1.00  0.00     0.019 C 
HETATM   24  C   UNL     1     -38.517  59.416 -50.446  1.00  0.00     0.019 C 
ENDBRANCH  19  22
ENDBRANCH   4  18
BRANCH   5  25
HETATM   25  C   UNL     1     -40.612  55.325 -54.150  1.00  0.00     0.169 C 
BRANCH  25  26
HETATM   26  C   UNL     1     -40.473  54.132 -53.233  1.00  0.00    -0.040 A 
HETATM   27  C   UNL     1     -40.640  54.174 -51.844  1.00  0.00     0.011 A 
HETATM   28  C   UNL     1     -40.425  53.029 -51.068  1.00  0.00     0.037 A 
HETATM   29  C   UNL     1     -40.038  51.824 -51.656  1.00  0.00     0.068 A 
HETATM   30  C   UNL     1     -39.880  51.767 -53.037  1.00  0.00     0.037 A 
HETATM   31  C   UNL     1     -40.098  52.908 -53.815  1.00  0.00     0.011 A 
BRANCH  29  32
HETATM   32  O   UNL     1     -39.844  50.793 -50.779  1.00  0.00    -0.356 OA
HETATM   33  C   UNL     1     -39.678  49.495 -51.338  1.00  0.00     0.210 C 
ENDBRANCH  29  32
ENDBRANCH  25  26
ENDBRANCH   5  25
TORSDOF 6
ENDMDL
MODEL 2
REMARK VINA RESULT:      -8.0      2.269      7.419
REMARK  6 active torsions:
REMARK  status: ('A' for Active; 'I' for Inactive)
REMARK    1  A    between atoms: C_3  and  C_4 
REMARK    2  A    between atoms: C_14  and  N_15 
REMARK       I    between atoms: N_15  and  C_16 
REMARK    3  A    between atoms: C_16  and  C_17 
REMARK    4  A    between atoms: N_21  and  C_22 
REMARK    5  A    between atoms: C_22  and  C_23 
REMARK    6  A    between atoms: C_26  and  O_27 
ROOT
HETATM    1  C   UNL     1     -42.891  55.392 -57.044  1.00  0.00     0.051 C 
HETATM    2  C   UNL     1     -42.456  56.478 -56.120  1.00  0.00    -0.022 A 
HETATM    3  C   UNL     1     -41.839  56.337 -54.844  1.00  0.00     0.062 A 
HETATM    4  C   UNL     1     -41.689  57.597 -54.278  1.00  0.00     0.125 A 
HETATM    5  N   UNL     1     -42.119  58.521 -55.212  1.00  0.00    -0.332 N 
HETATM    6  C   UNL     1     -42.602  57.843 -56.334  1.00  0.00     0.017 A 
HETATM    7  C   UNL     1     -43.208  58.553 -57.505  1.00  0.00     0.069 C 
ENDROOT
BRANCH   3   8
HETATM    8  C   UNL     1     -41.389  55.087 -54.149  1.00  0.00     0.143 A 
HETATM    9  N   UNL     1     -41.438  54.939 -52.833  1.00  0.00    -0.228 NA
HETATM   10  C   UNL     1     -40.817  53.735 -52.580  1.00  0.00     0.086 A 
HETATM   11  C   UNL     1     -40.432  53.118 -53.763  1.00  0.00     0.062 A 
HETATM   12  C   UNL     1     -40.530  53.108 -51.359  1.00  0.00     0.034 A 
HETATM   13  N   UNL     1     -40.830  53.987 -54.743  1.00  0.00    -0.338 N 
HETATM   14  C   UNL     1     -39.768  51.890 -53.812  1.00  0.00     0.032 A 
HETATM   15  H   UNL     1     -40.665  53.862 -55.729  1.00  0.00     0.167 HD
HETATM   16  C   UNL     1     -39.485  51.282 -52.585  1.00  0.00     0.002 A 
HETATM   17  C   UNL     1     -39.856  51.879 -51.377  1.00  0.00     0.002 A 
ENDBRANCH   3   8
BRANCH   4  18
HETATM   18  N   UNL     1     -41.263  57.711 -52.957  1.00  0.00    -0.312 N 
HETATM   19  C   UNL     1     -40.353  58.642 -52.392  1.00  0.00     0.226 C 
HETATM   20  O   UNL     1     -39.482  59.158 -53.073  1.00  0.00    -0.273 OA
HETATM   21  H   UNL     1     -41.593  56.946 -52.360  1.00  0.00     0.170 HD
BRANCH  19  22
HETATM   22  C   UNL     1     -40.531  58.931 -50.914  1.00  0.00     0.070 C 
HETATM   23  C   UNL     1     -39.241  59.539 -50.373  1.00  0.00     0.019 C 
HETATM   24  C   UNL     1     -41.736  59.814 -50.621  1.00  0.00     0.019 C 
ENDBRANCH  19  22
ENDBRANCH   4  18
BRANCH   5  25
HETATM   25  C   UNL     1     -42.167  59.977 -55.093  1.00  0.00     0.169 C 
BRANCH  25  26
HETATM   26  C   UNL     1     -43.153  60.523 -54.087  1.00  0.00    -0.040 A 
HETATM   27  C   UNL     1     -44.360  59.903 -53.740  1.00  0.00     0.011 A 
HETATM   28  C   UNL     1     -45.243  60.518 -52.846  1.00  0.00     0.037 A 
HETATM   29  C   UNL     1     -44.947  61.760 -52.282  1.00  0.00     0.068 A 
HETATM   30  C   UNL     1     -43.746  62.381 -52.610  1.00  0.00     0.037 A 
HETATM   31  C   UNL     1     -42.859  61.766 -53.501  1.00  0.00     0.011 A 
BRANCH  29  32
HETATM   32  O   UNL     1     -45.905  62.254 -51.442  1.00  0.00    -0.356 OA
HETATM   33  C   UNL     1     -45.820  61.874 -50.073  1.00  0.00     0.210 C 
ENDBRANCH  29  32
ENDBRANCH  25  26
ENDBRANCH   5  25
TORSDOF 6
ENDMDL
MODEL 3
REMARK VINA RESULT:      -7.7      2.882      6.053
REMARK  6 active torsions:
REMARK  status: ('A' for Active; 'I' for Inactive)
REMARK    1  A    between atoms: C_3  and  C_4 
REMARK    2  A    between atoms: C_14  and  N_15 
REMARK       I    between atoms: N_15  and  C_16 
REMARK    3  A    between atoms: C_16  and  C_17 
REMARK    4  A    between atoms: N_21  and  C_22 
REMARK    5  A    between atoms: C_22  and  C_23 
REMARK    6  A    between atoms: C_26  and  O_27 
ROOT
HETATM    1  C   UNL     1     -45.523  60.957 -54.363  1.00  0.00     0.051 C 
HETATM    2  C   UNL     1     -45.066  59.645 -53.821  1.00  0.00    -0.022 A 
HETATM    3  C   UNL     1     -44.511  58.552 -54.545  1.00  0.00     0.062 A 
HETATM    4  C   UNL     1     -44.314  57.490 -53.672  1.00  0.00     0.125 A 
HETATM    5  N   UNL     1     -44.654  57.930 -52.406  1.00  0.00    -0.332 N 
HETATM    6  C   UNL     1     -45.128  59.242 -52.493  1.00  0.00     0.017 A 
HETATM    7  C   UNL     1     -45.647  59.991 -51.304  1.00  0.00     0.069 C 
ENDROOT
BRANCH   3   8
HETATM    8  C   UNL     1     -44.159  58.468 -56.000  1.00  0.00     0.143 A 
HETATM    9  N   UNL     1     -44.989  57.990 -56.915  1.00  0.00    -0.228 NA
HETATM   10  C   UNL     1     -44.259  57.950 -58.083  1.00  0.00     0.086 A 
HETATM   11  C   UNL     1     -42.983  58.461 -57.888  1.00  0.00     0.062 A 
HETATM   12  C   UNL     1     -44.616  57.473 -59.353  1.00  0.00     0.034 A 
HETATM   13  N   UNL     1     -42.955  58.806 -56.563  1.00  0.00    -0.338 N 
HETATM   14  C   UNL     1     -42.018  58.535 -58.895  1.00  0.00     0.032 A 
HETATM   15  H   UNL     1     -42.153  59.174 -56.077  1.00  0.00     0.167 HD
HETATM   16  C   UNL     1     -42.389  58.049 -60.153  1.00  0.00     0.002 A 
HETATM   17  C   UNL     1     -43.664  57.525 -60.381  1.00  0.00     0.002 A 
ENDBRANCH   3   8
BRANCH   4  18
HETATM   18  N   UNL     1     -43.937  56.247 -54.174  1.00  0.00    -0.312 N 
HETATM   19  C   UNL     1     -42.631  55.736 -54.398  1.00  0.00     0.226 C 
HETATM   20  O   UNL     1     -41.694  56.486 -54.614  1.00  0.00    -0.273 OA
HETATM   21  H   UNL     1     -44.729  55.691 -54.510  1.00  0.00     0.170 HD
BRANCH  19  22
HETATM   22  C   UNL     1     -42.494  54.226 -54.362  1.00  0.00     0.070 C 
HETATM   23  C   UNL     1     -43.222  53.638 -55.567  1.00  0.00     0.019 C 
HETATM   24  C   UNL     1     -41.046  53.761 -54.297  1.00  0.00     0.019 C 
ENDBRANCH  19  22
ENDBRANCH   4  18
BRANCH   5  25
HETATM   25  C   UNL     1     -44.627  57.186 -51.148  1.00  0.00     0.169 C 
BRANCH  25  26
HETATM   26  C   UNL     1     -43.412  56.317 -50.924  1.00  0.00    -0.040 A 
HETATM   27  C   UNL     1     -42.096  56.793 -50.853  1.00  0.00     0.011 A 
HETATM   28  C   UNL     1     -41.026  55.903 -50.709  1.00  0.00     0.037 A 
HETATM   29  C   UNL     1     -41.241  54.526 -50.635  1.00  0.00     0.068 A 
HETATM   30  C   UNL     1     -42.544  54.042 -50.693  1.00  0.00     0.037 A 
HETATM   31  C   UNL     1     -43.616  54.929 -50.833  1.00  0.00     0.011 A 
BRANCH  29  32
HETATM   32  O   UNL     1     -40.106  53.773 -50.515  1.00  0.00    -0.356 OA
HETATM   33  C   UNL     1     -40.253  52.363 -50.636  1.00  0.00     0.210 C 
ENDBRANCH  29  32
ENDBRANCH  25  26
ENDBRANCH   5  25
TORSDOF 6
ENDMDL
MODEL 4
REMARK VINA RESULT:      -7.6      4.678      8.435
REMARK  6 active torsions:
REMARK  status: ('A' for Active; 'I' for Inactive)
REMARK    1  A    between atoms: C_3  and  C_4 
REMARK    2  A    between atoms: C_14  and  N_15 
REMARK       I    between atoms: N_15  and  C_16 
REMARK    3  A    between atoms: C_16  and  C_17 
REMARK    4  A    between atoms: N_21  and  C_22 
REMARK    5  A    between atoms: C_22  and  C_23 
REMARK    6  A    between atoms: C_26  and  O_27 
ROOT
HETATM    1  C   UNL     1     -43.660  55.331 -59.133  1.00  0.00     0.051 C 
HETATM    2  C   UNL     1     -43.453  56.652 -58.472  1.00  0.00    -0.022 A 
HETATM    3  C   UNL     1     -43.017  56.898 -57.139  1.00  0.00     0.062 A 
HETATM    4  C   UNL     1     -43.055  58.265 -56.901  1.00  0.00     0.125 A 
HETATM    5  N   UNL     1     -43.422  58.879 -58.084  1.00  0.00    -0.332 N 
HETATM    6  C   UNL     1     -43.680  57.898 -59.044  1.00  0.00     0.017 A 
HETATM    7  C   UNL     1     -44.170  58.227 -60.421  1.00  0.00     0.069 C 
ENDROOT
BRANCH   3   8
HETATM    8  C   UNL     1     -42.569  55.915 -56.099  1.00  0.00     0.143 A 
HETATM    9  N   UNL     1     -43.206  55.743 -54.950  1.00  0.00    -0.228 NA
HETATM   10  C   UNL     1     -42.419  54.875 -54.224  1.00  0.00     0.086 A 
HETATM   11  C   UNL     1     -41.315  54.471 -54.964  1.00  0.00     0.062 A 
HETATM   12  C   UNL     1     -42.576  54.396 -52.916  1.00  0.00     0.034 A 
HETATM   13  N   UNL     1     -41.449  55.127 -56.159  1.00  0.00    -0.338 N 
HETATM   14  C   UNL     1     -40.337  53.601 -54.478  1.00  0.00     0.032 A 
HETATM   15  H   UNL     1     -40.788  55.089 -56.918  1.00  0.00     0.167 HD
HETATM   16  C   UNL     1     -40.506  53.138 -53.169  1.00  0.00     0.002 A 
HETATM   17  C   UNL     1     -41.604  53.528 -52.398  1.00  0.00     0.002 A 
ENDBRANCH   3   8
BRANCH   4  18
HETATM   18  N   UNL     1     -42.835  58.745 -55.612  1.00  0.00    -0.312 N 
HETATM   19  C   UNL     1     -43.786  59.141 -54.635  1.00  0.00     0.226 C 
HETATM   20  O   UNL     1     -44.888  59.547 -54.963  1.00  0.00    -0.273 OA
HETATM   21  H   UNL     1     -41.845  58.917 -55.409  1.00  0.00     0.170 HD
BRANCH  19  22
HETATM   22  C   UNL     1     -43.336  59.037 -53.190  1.00  0.00     0.070 C 
HETATM   23  C   UNL     1     -44.320  58.154 -52.431  1.00  0.00     0.019 C 
HETATM   24  C   UNL     1     -41.905  58.536 -53.048  1.00  0.00     0.019 C 
ENDBRANCH  19  22
ENDBRANCH   4  18
BRANCH   5  25
HETATM   25  C   UNL     1     -43.608  60.304 -58.348  1.00  0.00     0.169 C 
BRANCH  25  26
HETATM   26  C   UNL     1     -42.393  61.044 -58.856  1.00  0.00    -0.040 A 
HETATM   27  C   UNL     1     -41.328  61.471 -58.053  1.00  0.00     0.011 A 
HETATM   28  C   UNL     1     -40.275  62.210 -58.605  1.00  0.00     0.037 A 
HETATM   29  C   UNL     1     -40.260  62.539 -59.960  1.00  0.00     0.068 A 
HETATM   30  C   UNL     1     -41.306  62.110 -60.771  1.00  0.00     0.037 A 
HETATM   31  C   UNL     1     -42.358  61.368 -60.224  1.00  0.00     0.011 A 
BRANCH  29  32
HETATM   32  O   UNL     1     -39.182  63.279 -60.360  1.00  0.00    -0.356 OA
HETATM   33  C   UNL     1     -38.640  64.193 -59.414  1.00  0.00     0.210 C 
ENDBRANCH  29  32
ENDBRANCH  25  26
ENDBRANCH   5  25
TORSDOF 6
ENDMDL
MODEL 5
REMARK VINA RESULT:      -7.6      2.781      7.564
REMARK  6 active torsions:
REMARK  status: ('A' for Active; 'I' for Inactive)
REMARK    1  A    between atoms: C_3  and  C_4 
REMARK    2  A    between atoms: C_14  and  N_15 
REMARK       I    between atoms: N_15  and  C_16 
REMARK    3  A    between atoms: C_16  and  C_17 
REMARK    4  A    between atoms: N_21  and  C_22 
REMARK    5  A    between atoms: C_22  and  C_23 
REMARK    6  A    between atoms: C_26  and  O_27 
ROOT
HETATM    1  C   UNL     1     -40.388  54.067 -55.018  1.00  0.00     0.051 C 
HETATM    2  C   UNL     1     -41.468  54.854 -54.356  1.00  0.00    -0.022 A 
HETATM    3  C   UNL     1     -42.495  55.616 -54.982  1.00  0.00     0.062 A 
HETATM    4  C   UNL     1     -43.229  56.269 -54.000  1.00  0.00     0.125 A 
HETATM    5  N   UNL     1     -42.733  55.861 -52.775  1.00  0.00    -0.332 N 
HETATM    6  C   UNL     1     -41.648  55.007 -52.987  1.00  0.00     0.017 A 
HETATM    7  C   UNL     1     -40.837  54.440 -51.862  1.00  0.00     0.069 C 
ENDROOT
BRANCH   3   8
HETATM    8  C   UNL     1     -42.813  55.748 -56.441  1.00  0.00     0.143 A 
HETATM    9  N   UNL     1     -42.506  56.825 -57.149  1.00  0.00    -0.228 NA
HETATM   10  C   UNL     1     -43.079  56.622 -58.386  1.00  0.00     0.086 A 
HETATM   11  C   UNL     1     -43.699  55.381 -58.447  1.00  0.00     0.062 A 
HETATM   12  C   UNL     1     -43.125  57.464 -59.507  1.00  0.00     0.034 A 
HETATM   13  N   UNL     1     -43.493  54.838 -57.207  1.00  0.00    -0.338 N 
HETATM   14  C   UNL     1     -44.374  54.910 -59.576  1.00  0.00     0.032 A 
HETATM   15  H   UNL     1     -43.852  53.949 -56.898  1.00  0.00     0.167 HD
HETATM   16  C   UNL     1     -44.415  55.765 -60.682  1.00  0.00     0.002 A 
HETATM   17  C   UNL     1     -43.804  57.021 -60.651  1.00  0.00     0.002 A 
ENDBRANCH   3   8
BRANCH   4  18
HETATM   18  N   UNL     1     -44.186  57.211 -54.369  1.00  0.00    -0.312 N 
HETATM   19  C   UNL     1     -44.005  58.579 -54.705  1.00  0.00     0.226 C 
HETATM   20  O   UNL     1     -43.060  59.212 -54.265  1.00  0.00    -0.273 OA
HETATM   21  H   UNL     1     -45.146  56.867 -54.280  1.00  0.00     0.170 HD
BRANCH  19  22
HETATM   22  C   UNL     1     -45.056  59.183 -55.617  1.00  0.00     0.070 C 
HETATM   23  C   UNL     1     -44.384  60.194 -56.540  1.00  0.00     0.019 C 
HETATM   24  C   UNL     1     -45.836  58.135 -56.400  1.00  0.00     0.019 C 
ENDBRANCH  19  22
ENDBRANCH   4  18
BRANCH   5  25
HETATM   25  C   UNL     1     -43.164  56.268 -51.440  1.00  0.00     0.169 C 
BRANCH  25  26
HETATM   26  C   UNL     1     -43.031  57.739 -51.125  1.00  0.00    -0.040 A 
HETATM   27  C   UNL     1     -44.107  58.629 -51.013  1.00  0.00     0.011 A 
HETATM   28  C   UNL     1     -43.881  59.991 -50.784  1.00  0.00     0.037 A 
HETATM   29  C   UNL     1     -42.585  60.495 -50.665  1.00  0.00     0.068 A 
HETATM   30  C   UNL     1     -41.508  59.619 -50.762  1.00  0.00     0.037 A 
HETATM   31  C   UNL     1     -41.731  58.257 -50.987  1.00  0.00     0.011 A 
BRANCH  29  32
HETATM   32  O   UNL     1     -42.510  61.845 -50.462  1.00  0.00    -0.356 OA
HETATM   33  C   UNL     1     -43.335  62.667 -51.280  1.00  0.00     0.210 C 
ENDBRANCH  29  32
ENDBRANCH  25  26
ENDBRANCH   5  25
TORSDOF 6
ENDMDL
MODEL 6
REMARK VINA RESULT:      -7.4      4.456      8.882
REMARK  6 active torsions:
REMARK  status: ('A' for Active; 'I' for Inactive)
REMARK    1  A    between atoms: C_3  and  C_4 
REMARK    2  A    between atoms: C_14  and  N_15 
REMARK       I    between atoms: N_15  and  C_16 
REMARK    3  A    between atoms: C_16  and  C_17 
REMARK    4  A    between atoms: N_21  and  C_22 
REMARK    5  A    between atoms: C_22  and  C_23 
REMARK    6  A    between atoms: C_26  and  O_27 
ROOT
HETATM    1  C   UNL     1     -41.388  59.298 -52.506  1.00  0.00     0.051 C 
HETATM    2  C   UNL     1     -41.941  59.065 -53.872  1.00  0.00    -0.022 A 
HETATM    3  C   UNL     1     -41.885  57.866 -54.638  1.00  0.00     0.062 A 
HETATM    4  C   UNL     1     -42.434  58.110 -55.890  1.00  0.00     0.125 A 
HETATM    5  N   UNL     1     -42.906  59.409 -55.887  1.00  0.00    -0.332 N 
HETATM    6  C   UNL     1     -42.596  60.003 -54.661  1.00  0.00     0.017 A 
HETATM    7  C   UNL     1     -42.908  61.436 -54.357  1.00  0.00     0.069 C 
ENDROOT
BRANCH   3   8
HETATM    8  C   UNL     1     -41.350  56.522 -54.245  1.00  0.00     0.143 A 
HETATM    9  N   UNL     1     -40.872  55.653 -55.124  1.00  0.00    -0.228 NA
HETATM   10  C   UNL     1     -40.617  54.508 -54.401  1.00  0.00     0.086 A 
HETATM   11  C   UNL     1     -40.895  54.700 -53.053  1.00  0.00     0.062 A 
HETATM   12  C   UNL     1     -40.160  53.254 -54.831  1.00  0.00     0.034 A 
HETATM   13  N   UNL     1     -41.334  55.995 -52.980  1.00  0.00    -0.338 N 
HETATM   14  C   UNL     1     -40.741  53.706 -52.084  1.00  0.00     0.032 A 
HETATM   15  H   UNL     1     -41.662  56.448 -52.142  1.00  0.00     0.167 HD
HETATM   16  C   UNL     1     -40.291  52.460 -52.532  1.00  0.00     0.002 A 
HETATM   17  C   UNL     1     -40.006  52.234 -53.881  1.00  0.00     0.002 A 
ENDBRANCH   3   8
BRANCH   4  18
HETATM   18  N   UNL     1     -42.341  57.137 -56.883  1.00  0.00    -0.312 N 
HETATM   19  C   UNL     1     -43.278  56.809 -57.898  1.00  0.00     0.226 C 
HETATM   20  O   UNL     1     -44.469  57.022 -57.743  1.00  0.00    -0.273 OA
HETATM   21  H   UNL     1     -41.523  56.530 -56.777  1.00  0.00     0.170 HD
BRANCH  19  22
HETATM   22  C   UNL     1     -42.704  56.179 -59.153  1.00  0.00     0.070 C 
HETATM   23  C   UNL     1     -43.828  55.486 -59.914  1.00  0.00     0.019 C 
HETATM   24  C   UNL     1     -41.959  57.176 -60.031  1.00  0.00     0.019 C 
ENDBRANCH  19  22
ENDBRANCH   4  18
BRANCH   5  25
HETATM   25  C   UNL     1     -43.562  60.140 -56.970  1.00  0.00     0.169 C 
BRANCH  25  26
HETATM   26  C   UNL     1     -42.648  60.702 -58.032  1.00  0.00    -0.040 A 
HETATM   27  C   UNL     1     -41.455  61.390 -57.773  1.00  0.00     0.011 A 
HETATM   28  C   UNL     1     -40.706  61.934 -58.822  1.00  0.00     0.037 A 
HETATM   29  C   UNL     1     -41.127  61.809 -60.146  1.00  0.00     0.068 A 
HETATM   30  C   UNL     1     -42.304  61.118 -60.419  1.00  0.00     0.037 A 
HETATM   31  C   UNL     1     -43.053  60.570 -59.372  1.00  0.00     0.011 A 
BRANCH  29  32
HETATM   32  O   UNL     1     -40.312  62.404 -61.068  1.00  0.00    -0.356 OA
HETATM   33  C   UNL     1     -39.428  63.413 -60.591  1.00  0.00     0.210 C 
ENDBRANCH  29  32
ENDBRANCH  25  26
ENDBRANCH   5  25
TORSDOF 6
ENDMDL
MODEL 7
REMARK VINA RESULT:      -7.2      2.589      8.147
REMARK  6 active torsions:
REMARK  status: ('A' for Active; 'I' for Inactive)
REMARK    1  A    between atoms: C_3  and  C_4 
REMARK    2  A    between atoms: C_14  and  N_15 
REMARK       I    between atoms: N_15  and  C_16 
REMARK    3  A    between atoms: C_16  and  C_17 
REMARK    4  A    between atoms: N_21  and  C_22 
REMARK    5  A    between atoms: C_22  and  C_23 
REMARK    6  A    between atoms: C_26  and  O_27 
ROOT
HETATM    1  C   UNL     1     -40.927  57.770 -50.280  1.00  0.00     0.051 C 
HETATM    2  C   UNL     1     -41.952  57.690 -51.361  1.00  0.00    -0.022 A 
HETATM    3  C   UNL     1     -42.111  56.660 -52.331  1.00  0.00     0.062 A 
HETATM    4  C   UNL     1     -43.124  57.025 -53.209  1.00  0.00     0.125 A 
HETATM    5  N   UNL     1     -43.653  58.219 -52.752  1.00  0.00    -0.332 N 
HETATM    6  C   UNL     1     -42.932  58.637 -51.631  1.00  0.00     0.017 A 
HETATM    7  C   UNL     1     -43.206  59.934 -50.934  1.00  0.00     0.069 C 
ENDROOT
BRANCH   3   8
HETATM    8  C   UNL     1     -41.366  55.365 -52.461  1.00  0.00     0.143 A 
HETATM    9  N   UNL     1     -40.922  54.905 -53.621  1.00  0.00    -0.228 NA
HETATM   10  C   UNL     1     -40.427  53.648 -53.348  1.00  0.00     0.086 A 
HETATM   11  C   UNL     1     -40.524  53.361 -51.992  1.00  0.00     0.062 A 
HETATM   12  C   UNL     1     -39.891  52.683 -54.213  1.00  0.00     0.034 A 
HETATM   13  N   UNL     1     -41.100  54.479 -51.450  1.00  0.00    -0.338 N 
HETATM   14  C   UNL     1     -40.110  52.153 -51.428  1.00  0.00     0.032 A 
HETATM   15  H   UNL     1     -41.353  54.588 -50.481  1.00  0.00     0.167 HD
HETATM   16  C   UNL     1     -39.584  51.200 -52.305  1.00  0.00     0.002 A 
HETATM   17  C   UNL     1     -39.477  51.456 -53.675  1.00  0.00     0.002 A 
ENDBRANCH   3   8
BRANCH   4  18
HETATM   18  N   UNL     1     -43.356  56.260 -54.349  1.00  0.00    -0.312 N 
HETATM   19  C   UNL     1     -42.792  56.398 -55.644  1.00  0.00     0.226 C 
HETATM   20  O   UNL     1     -42.391  57.480 -56.040  1.00  0.00    -0.273 OA
HETATM   21  H   UNL     1     -44.111  55.578 -54.229  1.00  0.00     0.170 HD
BRANCH  19  22
HETATM   22  C   UNL     1     -42.738  55.136 -56.483  1.00  0.00     0.070 C 
HETATM   23  C   UNL     1     -43.515  54.036 -55.767  1.00  0.00     0.019 C 
HETATM   24  C   UNL     1     -43.240  55.345 -57.905  1.00  0.00     0.019 C 
ENDBRANCH  19  22
ENDBRANCH   4  18
BRANCH   5  25
HETATM   25  C   UNL     1     -44.733  59.014 -53.333  1.00  0.00     0.169 C 
BRANCH  25  26
HETATM   26  C   UNL     1     -44.425  59.679 -54.653  1.00  0.00    -0.040 A 
HETATM   27  C   UNL     1     -45.145  59.470 -55.836  1.00  0.00     0.011 A 
HETATM   28  C   UNL     1     -44.744  60.081 -57.030  1.00  0.00     0.037 A 
HETATM   29  C   UNL     1     -43.620  60.906 -57.072  1.00  0.00     0.068 A 
HETATM   30  C   UNL     1     -42.902  61.131 -55.901  1.00  0.00     0.037 A 
HETATM   31  C   UNL     1     -43.304  60.525 -54.706  1.00  0.00     0.011 A 
BRANCH  29  32
HETATM   32  O   UNL     1     -43.331  61.421 -58.305  1.00  0.00    -0.356 OA
HETATM   33  C   UNL     1     -42.681  60.555 -59.229  1.00  0.00     0.210 C 
ENDBRANCH  29  32
ENDBRANCH  25  26
ENDBRANCH   5  25
TORSDOF 6
ENDMDL
MODEL 8
REMARK VINA RESULT:      -7.1      3.916      8.489
REMARK  6 active torsions:
REMARK  status: ('A' for Active; 'I' for Inactive)
REMARK    1  A    between atoms: C_3  and  C_4 
REMARK    2  A    between atoms: C_14  and  N_15 
REMARK       I    between atoms: N_15  and  C_16 
REMARK    3  A    between atoms: C_16  and  C_17 
REMARK    4  A    between atoms: N_21  and  C_22 
REMARK    5  A    between atoms: C_22  and  C_23 
REMARK    6  A    between atoms: C_26  and  O_27 
ROOT
HETATM    1  C   UNL     1     -42.032  59.442 -52.615  1.00  0.00     0.051 C 
HETATM    2  C   UNL     1     -42.340  59.245 -54.061  1.00  0.00    -0.022 A 
HETATM    3  C   UNL     1     -42.093  58.086 -54.850  1.00  0.00     0.062 A 
HETATM    4  C   UNL     1     -42.442  58.359 -56.167  1.00  0.00     0.125 A 
HETATM    5  N   UNL     1     -42.981  59.633 -56.194  1.00  0.00    -0.332 N 
HETATM    6  C   UNL     1     -42.909  60.184 -54.912  1.00  0.00     0.017 A 
HETATM    7  C   UNL     1     -43.346  61.585 -54.612  1.00  0.00     0.069 C 
ENDROOT
BRANCH   3   8
HETATM    8  C   UNL     1     -41.555  56.753 -54.424  1.00  0.00     0.143 A 
HETATM    9  N   UNL     1     -40.968  55.913 -55.263  1.00  0.00    -0.228 NA
HETATM   10  C   UNL     1     -40.746  54.765 -54.533  1.00  0.00     0.086 A 
HETATM   11  C   UNL     1     -41.157  54.929 -53.216  1.00  0.00     0.062 A 
HETATM   12  C   UNL     1     -40.211  53.532 -54.931  1.00  0.00     0.034 A 
HETATM   13  N   UNL     1     -41.643  56.208 -53.169  1.00  0.00    -0.338 N 
HETATM   14  C   UNL     1     -41.065  53.926 -52.248  1.00  0.00     0.032 A 
HETATM   15  H   UNL     1     -42.063  56.639 -52.361  1.00  0.00     0.167 HD
HETATM   16  C   UNL     1     -40.535  52.701 -52.665  1.00  0.00     0.002 A 
HETATM   17  C   UNL     1     -40.115  52.504 -53.983  1.00  0.00     0.002 A 
ENDBRANCH   3   8
BRANCH   4  18
HETATM   18  N   UNL     1     -42.134  57.438 -57.165  1.00  0.00    -0.312 N 
HETATM   19  C   UNL     1     -43.002  56.552 -57.857  1.00  0.00     0.226 C 
HETATM   20  O   UNL     1     -44.036  56.160 -57.342  1.00  0.00    -0.273 OA
HETATM   21  H   UNL     1     -41.128  57.342 -57.328  1.00  0.00     0.170 HD
BRANCH  19  22
HETATM   22  C   UNL     1     -42.551  56.129 -59.242  1.00  0.00     0.070 C 
HETATM   23  C   UNL     1     -43.745  55.547 -59.991  1.00  0.00     0.019 C 
HETATM   24  C   UNL     1     -41.892  57.258 -60.023  1.00  0.00     0.019 C 
ENDBRANCH  19  22
ENDBRANCH   4  18
BRANCH   5  25
HETATM   25  C   UNL     1     -43.490  60.378 -57.343  1.00  0.00     0.169 C 
BRANCH  25  26
HETATM   26  C   UNL     1     -44.604  59.714 -58.117  1.00  0.00    -0.040 A 
HETATM   27  C   UNL     1     -45.747  59.149 -57.539  1.00  0.00     0.011 A 
HETATM   28  C   UNL     1     -46.696  58.495 -58.334  1.00  0.00     0.037 A 
HETATM   29  C   UNL     1     -46.525  58.387 -59.715  1.00  0.00     0.068 A 
HETATM   30  C   UNL     1     -45.399  58.954 -60.303  1.00  0.00     0.037 A 
HETATM   31  C   UNL     1     -44.452  59.612 -59.512  1.00  0.00     0.011 A 
BRANCH  29  32
HETATM   32  O   UNL     1     -47.517  57.706 -60.365  1.00  0.00    -0.356 OA
HETATM   33  C   UNL     1     -47.193  56.410 -60.858  1.00  0.00     0.210 C 
ENDBRANCH  29  32
ENDBRANCH  25  26
ENDBRANCH   5  25
TORSDOF 6
ENDMDL
MODEL 9
REMARK VINA RESULT:      -7.0      2.740      7.184
REMARK  6 active torsions:
REMARK  status: ('A' for Active; 'I' for Inactive)
REMARK    1  A    between atoms: C_3  and  C_4 
REMARK    2  A    between atoms: C_14  and  N_15 
REMARK       I    between atoms: N_15  and  C_16 
REMARK    3  A    between atoms: C_16  and  C_17 
REMARK    4  A    between atoms: N_21  and  C_22 
REMARK    5  A    between atoms: C_22  and  C_23 
REMARK    6  A    between atoms: C_26  and  O_27 
ROOT
HETATM    1  C   UNL     1     -41.337  59.990 -50.804  1.00  0.00     0.051 C 
HETATM    2  C   UNL     1     -42.237  59.346 -51.804  1.00  0.00    -0.022 A 
HETATM    3  C   UNL     1     -42.389  57.955 -52.065  1.00  0.00     0.062 A 
HETATM    4  C   UNL     1     -43.255  57.794 -53.139  1.00  0.00     0.125 A 
HETATM    5  N   UNL     1     -43.709  59.051 -53.494  1.00  0.00    -0.332 N 
HETATM    6  C   UNL     1     -43.080  60.005 -52.690  1.00  0.00     0.017 A 
HETATM    7  C   UNL     1     -43.299  61.476 -52.865  1.00  0.00     0.069 C 
ENDROOT
BRANCH   3   8
HETATM    8  C   UNL     1     -41.768  56.790 -51.354  1.00  0.00     0.143 A 
HETATM    9  N   UNL     1     -41.222  55.766 -51.993  1.00  0.00    -0.228 NA
HETATM   10  C   UNL     1     -40.897  54.856 -51.010  1.00  0.00     0.086 A 
HETATM   11  C   UNL     1     -41.203  55.356 -49.751  1.00  0.00     0.062 A 
HETATM   12  C   UNL     1     -40.351  53.569 -51.119  1.00  0.00     0.034 A 
HETATM   13  N   UNL     1     -41.731  56.595 -49.998  1.00  0.00    -0.338 N 
HETATM   14  C   UNL     1     -40.993  54.646 -48.567  1.00  0.00     0.032 A 
HETATM   15  H   UNL     1     -42.098  57.218 -49.297  1.00  0.00     0.167 HD
HETATM   16  C   UNL     1     -40.453  53.362 -48.694  1.00  0.00     0.002 A 
HETATM   17  C   UNL     1     -40.138  52.829 -49.947  1.00  0.00     0.002 A 
ENDBRANCH   3   8
BRANCH   4  18
HETATM   18  N   UNL     1     -43.433  56.529 -53.695  1.00  0.00    -0.312 N 
HETATM   19  C   UNL     1     -42.672  55.886 -54.707  1.00  0.00     0.226 C 
HETATM   20  O   UNL     1     -42.057  56.536 -55.536  1.00  0.00    -0.273 OA
HETATM   21  H   UNL     1     -44.293  56.069 -53.382  1.00  0.00     0.170 HD
BRANCH  19  22
HETATM   22  C   UNL     1     -42.691  54.370 -54.689  1.00  0.00     0.070 C 
HETATM   23  C   UNL     1     -43.545  53.874 -55.851  1.00  0.00     0.019 C 
HETATM   24  C   UNL     1     -41.297  53.757 -54.712  1.00  0.00     0.019 C 
ENDBRANCH  19  22
ENDBRANCH   4  18
BRANCH   5  25
HETATM   25  C   UNL     1     -44.632  59.413 -54.567  1.00  0.00     0.169 C 
BRANCH  25  26
HETATM   26  C   UNL     1     -44.187  59.057 -55.966  1.00  0.00    -0.040 A 
HETATM   27  C   UNL     1     -43.049  59.578 -56.595  1.00  0.00     0.011 A 
HETATM   28  C   UNL     1     -42.752  59.240 -57.920  1.00  0.00     0.037 A 
HETATM   29  C   UNL     1     -43.580  58.382 -58.646  1.00  0.00     0.068 A 
HETATM   30  C   UNL     1     -44.707  57.849 -58.029  1.00  0.00     0.037 A 
HETATM   31  C   UNL     1     -45.004  58.182 -56.703  1.00  0.00     0.011 A 
BRANCH  29  32
HETATM   32  O   UNL     1     -43.183  58.153 -59.934  1.00  0.00    -0.356 OA
HETATM   33  C   UNL     1     -41.825  57.773 -60.132  1.00  0.00     0.210 C 
ENDBRANCH  29  32
ENDBRANCH  25  26
ENDBRANCH   5  25
TORSDOF 6
ENDMDL
MODEL 10
REMARK VINA RESULT:      -7.0      3.682      7.383
REMARK  6 active torsions:
REMARK  status: ('A' for Active; 'I' for Inactive)
REMARK    1  A    between atoms: C_3  and  C_4 
REMARK    2  A    between atoms: C_14  and  N_15 
REMARK       I    between atoms: N_15  and  C_16 
REMARK    3  A    between atoms: C_16  and  C_17 
REMARK    4  A    between atoms: N_21  and  C_22 
REMARK    5  A    between atoms: C_22  and  C_23 
REMARK    6  A    between atoms: C_26  and  O_27 
ROOT
HETATM    1  C   UNL     1     -44.736  60.675 -52.478  1.00  0.00     0.051 C 
HETATM    2  C   UNL     1     -44.827  59.748 -53.642  1.00  0.00    -0.022 A 
HETATM    3  C   UNL     1     -44.339  58.413 -53.729  1.00  0.00     0.062 A 
HETATM    4  C   UNL     1     -44.546  57.944 -55.020  1.00  0.00     0.125 A 
HETATM    5  N   UNL     1     -45.230  58.928 -55.710  1.00  0.00    -0.332 N 
HETATM    6  C   UNL     1     -45.393  60.038 -54.878  1.00  0.00     0.017 A 
HETATM    7  C   UNL     1     -46.035  61.308 -55.344  1.00  0.00     0.069 C 
ENDROOT
BRANCH   3   8
HETATM    8  C   UNL     1     -43.700  57.573 -52.664  1.00  0.00     0.143 A 
HETATM    9  N   UNL     1     -42.563  57.904 -52.072  1.00  0.00    -0.228 NA
HETATM   10  C   UNL     1     -42.242  56.829 -51.272  1.00  0.00     0.086 A 
HETATM   11  C   UNL     1     -43.226  55.851 -51.339  1.00  0.00     0.062 A 
HETATM   12  C   UNL     1     -41.114  56.607 -50.469  1.00  0.00     0.034 A 
HETATM   13  N   UNL     1     -44.152  56.361 -52.210  1.00  0.00    -0.338 N 
HETATM   14  C   UNL     1     -43.162  54.643 -50.641  1.00  0.00     0.032 A 
HETATM   15  H   UNL     1     -44.983  55.882 -52.517  1.00  0.00     0.167 HD
HETATM   16  C   UNL     1     -42.028  54.436 -49.850  1.00  0.00     0.002 A 
HETATM   17  C   UNL     1     -41.018  55.399 -49.764  1.00  0.00     0.002 A 
ENDBRANCH   3   8
BRANCH   4  18
HETATM   18  N   UNL     1     -44.000  56.721 -55.403  1.00  0.00    -0.312 N 
HETATM   19  C   UNL     1     -42.724  56.453 -55.965  1.00  0.00     0.226 C 
HETATM   20  O   UNL     1     -42.132  57.303 -56.608  1.00  0.00    -0.273 OA
HETATM   21  H   UNL     1     -44.670  55.947 -55.353  1.00  0.00     0.170 HD
BRANCH  19  22
HETATM   22  C   UNL     1     -42.173  55.060 -55.724  1.00  0.00     0.070 C 
HETATM   23  C   UNL     1     -40.974  55.161 -54.788  1.00  0.00     0.019 C 
HETATM   24  C   UNL     1     -43.220  54.089 -55.195  1.00  0.00     0.019 C 
ENDBRANCH  19  22
ENDBRANCH   4  18
BRANCH   5  25
HETATM   25  C   UNL     1     -45.674  58.918 -57.102  1.00  0.00     0.169 C 
BRANCH  25  26
HETATM   26  C   UNL     1     -44.597  59.130 -58.139  1.00  0.00    -0.040 A 
HETATM   27  C   UNL     1     -43.760  60.251 -58.199  1.00  0.00     0.011 A 
HETATM   28  C   UNL     1     -42.833  60.392 -59.238  1.00  0.00     0.037 A 
HETATM   29  C   UNL     1     -42.721  59.424 -60.237  1.00  0.00     0.068 A 
HETATM   30  C   UNL     1     -43.538  58.299 -60.183  1.00  0.00     0.037 A 
HETATM   31  C   UNL     1     -44.463  58.154 -59.143  1.00  0.00     0.011 A 
BRANCH  29  32
HETATM   32  O   UNL     1     -41.790  59.697 -61.200  1.00  0.00    -0.356 OA
HETATM   33  C   UNL     1     -41.718  61.041 -61.664  1.00  0.00     0.210 C 
ENDBRANCH  29  32
ENDBRANCH  25  26
ENDBRANCH   5  25
TORSDOF 6
ENDMDL
