MODEL 1
REMARK VINA RESULT:      -8.3      0.000      0.000
REMARK  7 active torsions:
REMARK  status: ('A' for Active; 'I' for Inactive)
REMARK    1  A    between atoms: C_5  and  O_6 
REMARK    2  A    between atoms: O_6  and  C_7 
REMARK    3  A    between atoms: C_7  and  C_8 
REMARK       I    between atoms: C_8  and  N_9 
REMARK    4  A    between atoms: N_9  and  C_10 
REMARK    5  A    between atoms: C_13  and  N_14 
REMARK    6  A    between atoms: N_14  and  C_15 
REMARK    7  A    between atoms: C_15  and  C_16 
ROOT
HETATM    1  C   UNL     1     -43.296  55.942 -50.774  1.00  0.00     0.034 A 
HETATM    2  C   UNL     1     -42.036  56.497 -50.559  1.00  0.00     0.031 A 
HETATM    3  C   UNL     1     -40.886  55.699 -50.638  1.00  0.00     0.026 A 
HETATM    4  C   UNL     1     -40.970  54.338 -50.945  1.00  0.00     0.008 A 
HETATM    5  C   UNL     1     -42.234  53.791 -51.176  1.00  0.00     0.026 A 
HETATM    6  C   UNL     1     -43.386  54.578 -51.067  1.00  0.00     0.031 A 
ENDROOT
BRANCH   1   7
HETATM    7  N   UNL     1     -44.504  56.643 -50.637  1.00  0.00    -0.325 N 
HETATM    8  C   UNL     1     -45.026  57.720 -51.295  1.00  0.00     0.246 C 
HETATM    9  O   UNL     1     -46.001  58.287 -50.786  1.00  0.00    -0.271 OA
HETATM   10  H   UNL     1     -45.140  56.306 -49.924  1.00  0.00     0.169 HD
BRANCH   8  11
HETATM   11  C   UNL     1     -44.483  58.187 -52.642  1.00  0.00     0.278 C 
BRANCH  11  12
HETATM   12  O   UNL     1     -44.733  57.197 -53.631  1.00  0.00    -0.342 OA
BRANCH  12  13
HETATM   13  C   UNL     1     -43.670  56.444 -54.040  1.00  0.00     0.069 A 
HETATM   14  C   UNL     1     -42.442  57.106 -54.022  1.00  0.00     0.037 A 
HETATM   15  C   UNL     1     -41.272  56.448 -54.403  1.00  0.00     0.009 A 
HETATM   16  C   UNL     1     -41.318  55.114 -54.819  1.00  0.00    -0.062 A 
HETATM   17  C   UNL     1     -40.072  54.392 -55.236  1.00  0.00     0.048 C 
HETATM   18  C   UNL     1     -42.557  54.460 -54.862  1.00  0.00     0.009 A 
HETATM   19  C   UNL     1     -43.728  55.122 -54.477  1.00  0.00     0.037 A 
ENDBRANCH  12  13
ENDBRANCH  11  12
ENDBRANCH   8  11
ENDBRANCH   1   7
BRANCH   4  20
HETATM   20  N   UNL     1     -39.829  53.523 -51.013  1.00  0.00    -0.289 NA
HETATM   21  H   UNL     1     -39.375  53.596 -51.921  1.00  0.00     0.128 HD
BRANCH  20  22
HETATM   22  C   UNL     1     -40.061  52.124 -50.655  1.00  0.00     0.132 C 
BRANCH  22  23
HETATM   23  C   UNL     1     -39.857  51.259 -51.869  1.00  0.00    -0.027 A 
HETATM   24  C   UNL     1     -39.607  49.895 -51.749  1.00  0.00     0.124 A 
HETATM   25  N   UNL     1     -39.425  49.062 -52.799  1.00  0.00    -0.273 NA
HETATM   26  C   UNL     1     -39.498  49.611 -54.030  1.00  0.00     0.116 A 
HETATM   27  C   UNL     1     -39.747  50.954 -54.260  1.00  0.00     0.020 A 
HETATM   28  C   UNL     1     -39.932  51.787 -53.161  1.00  0.00     0.011 A 
ENDBRANCH  22  23
ENDBRANCH  20  22
ENDBRANCH   4  20
TORSDOF 7
ENDMDL
MODEL 2
REMARK VINA RESULT:      -7.9      3.407      6.413
REMARK  7 active torsions:
REMARK  status: ('A' for Active; 'I' for Inactive)
REMARK    1  A    between atoms: C_5  and  O_6 
REMARK    2  A    between atoms: O_6  and  C_7 
REMARK    3  A    between atoms: C_7  and  C_8 
REMARK       I    between atoms: C_8  and  N_9 
REMARK    4  A    between atoms: N_9  and  C_10 
REMARK    5  A    between atoms: C_13  and  N_14 
REMARK    6  A    between atoms: N_14  and  C_15 
REMARK    7  A    between atoms: C_15  and  C_16 
ROOT
HETATM    1  C   UNL     1     -42.200  55.455 -51.270  1.00  0.00     0.034 A 
HETATM    2  C   UNL     1     -41.618  56.181 -52.307  1.00  0.00     0.031 A 
HETATM    3  C   UNL     1     -42.015  55.966 -53.634  1.00  0.00     0.026 A 
HETATM    4  C   UNL     1     -43.007  55.034 -53.950  1.00  0.00     0.008 A 
HETATM    5  C   UNL     1     -43.600  54.322 -52.905  1.00  0.00     0.026 A 
HETATM    6  C   UNL     1     -43.182  54.511 -51.583  1.00  0.00     0.031 A 
ENDROOT
BRANCH   1   7
HETATM    7  N   UNL     1     -41.811  55.544 -49.925  1.00  0.00    -0.325 N 
HETATM    8  C   UNL     1     -40.892  54.859 -49.182  1.00  0.00     0.246 C 
HETATM    9  O   UNL     1     -40.947  54.974 -47.951  1.00  0.00    -0.271 OA
HETATM   10  H   UNL     1     -42.280  56.248 -49.367  1.00  0.00     0.169 HD
BRANCH   8  11
HETATM   11  C   UNL     1     -39.788  54.027 -49.827  1.00  0.00     0.278 C 
BRANCH  11  12
HETATM   12  O   UNL     1     -40.193  52.668 -49.909  1.00  0.00    -0.342 OA
BRANCH  12  13
HETATM   13  C   UNL     1     -40.061  52.051 -51.119  1.00  0.00     0.069 A 
HETATM   14  C   UNL     1     -39.770  50.687 -51.053  1.00  0.00     0.037 A 
HETATM   15  C   UNL     1     -39.624  49.934 -52.219  1.00  0.00     0.009 A 
HETATM   16  C   UNL     1     -39.758  50.540 -53.471  1.00  0.00    -0.062 A 
HETATM   17  C   UNL     1     -39.598  49.746 -54.733  1.00  0.00     0.048 C 
HETATM   18  C   UNL     1     -40.022  51.914 -53.534  1.00  0.00     0.009 A 
HETATM   19  C   UNL     1     -40.172  52.668 -52.364  1.00  0.00     0.037 A 
ENDBRANCH  12  13
ENDBRANCH  11  12
ENDBRANCH   8  11
ENDBRANCH   1   7
BRANCH   4  20
HETATM   20  N   UNL     1     -43.405  54.798 -55.276  1.00  0.00    -0.289 NA
HETATM   21  H   UNL     1     -43.703  53.834 -55.407  1.00  0.00     0.128 HD
BRANCH  20  22
HETATM   22  C   UNL     1     -42.417  55.184 -56.283  1.00  0.00     0.132 C 
BRANCH  22  23
HETATM   23  C   UNL     1     -43.072  56.061 -57.313  1.00  0.00    -0.027 A 
HETATM   24  C   UNL     1     -43.726  57.235 -56.951  1.00  0.00     0.124 A 
HETATM   25  N   UNL     1     -44.326  58.072 -57.827  1.00  0.00    -0.273 NA
HETATM   26  C   UNL     1     -44.270  57.727 -59.131  1.00  0.00     0.116 A 
HETATM   27  C   UNL     1     -43.640  56.586 -59.599  1.00  0.00     0.020 A 
HETATM   28  C   UNL     1     -43.031  55.744 -58.674  1.00  0.00     0.011 A 
ENDBRANCH  22  23
ENDBRANCH  20  22
ENDBRANCH   4  20
TORSDOF 7
ENDMDL
MODEL 3
REMARK VINA RESULT:      -7.9      1.670      2.223
REMARK  7 active torsions:
REMARK  status: ('A' for Active; 'I' for Inactive)
REMARK    1  A    between atoms: C_5  and  O_6 
REMARK    2  A    between atoms: O_6  and  C_7 
REMARK    3  A    between atoms: C_7  and  C_8 
REMARK       I    between atoms: C_8  and  N_9 
REMARK    4  A    between atoms: N_9  and  C_10 
REMARK    5  A    between atoms: C_13  and  N_14 
REMARK    6  A    between atoms: N_14  and  C_15 
REMARK    7  A    between atoms: C_15  and  C_16 
ROOT
HETATM    1  C   UNL     1     -42.314  56.956 -50.767  1.00  0.00     0.034 A 
HETATM    2  C   UNL     1     -43.151  55.936 -51.214  1.00  0.00     0.031 A 
HETATM    3  C   UNL     1     -42.743  54.597 -51.136  1.00  0.00     0.026 A 
HETATM    4  C   UNL     1     -41.500  54.250 -50.601  1.00  0.00     0.008 A 
HETATM    5  C   UNL     1     -40.672  55.275 -50.138  1.00  0.00     0.026 A 
HETATM    6  C   UNL     1     -41.064  56.614 -50.243  1.00  0.00     0.031 A 
ENDROOT
BRANCH   1   7
HETATM    7  N   UNL     1     -42.603  58.324 -50.877  1.00  0.00    -0.325 N 
HETATM    8  C   UNL     1     -41.908  59.375 -51.406  1.00  0.00     0.246 C 
HETATM    9  O   UNL     1     -42.295  60.517 -51.131  1.00  0.00    -0.271 OA
HETATM   10  H   UNL     1     -43.497  58.626 -50.508  1.00  0.00     0.169 HD
BRANCH   8  11
HETATM   11  C   UNL     1     -40.734  59.170 -52.358  1.00  0.00     0.278 C 
BRANCH  11  12
HETATM   12  O   UNL     1     -41.207  59.084 -53.696  1.00  0.00    -0.342 OA
BRANCH  12  13
HETATM   13  C   UNL     1     -41.695  57.877 -54.106  1.00  0.00     0.069 A 
HETATM   14  C   UNL     1     -40.795  56.816 -54.005  1.00  0.00     0.037 A 
HETATM   15  C   UNL     1     -41.171  55.524 -54.377  1.00  0.00     0.009 A 
HETATM   16  C   UNL     1     -42.457  55.279 -54.868  1.00  0.00    -0.062 A 
HETATM   17  C   UNL     1     -42.876  53.899 -55.278  1.00  0.00     0.048 C 
HETATM   18  C   UNL     1     -43.350  56.352 -54.994  1.00  0.00     0.009 A 
HETATM   19  C   UNL     1     -42.971  57.645 -54.617  1.00  0.00     0.037 A 
ENDBRANCH  12  13
ENDBRANCH  11  12
ENDBRANCH   8  11
ENDBRANCH   1   7
BRANCH   4  20
HETATM   20  N   UNL     1     -41.071  52.914 -50.530  1.00  0.00    -0.289 NA
HETATM   21  H   UNL     1     -41.174  52.542 -49.589  1.00  0.00     0.128 HD
BRANCH  20  22
HETATM   22  C   UNL     1     -39.720  52.684 -51.040  1.00  0.00     0.132 C 
BRANCH  22  23
HETATM   23  C   UNL     1     -39.777  51.698 -52.174  1.00  0.00    -0.027 A 
HETATM   24  C   UNL     1     -39.546  50.342 -51.963  1.00  0.00     0.124 A 
HETATM   25  N   UNL     1     -39.592  49.403 -52.936  1.00  0.00    -0.273 NA
HETATM   26  C   UNL     1     -39.886  49.834 -54.181  1.00  0.00     0.116 A 
HETATM   27  C   UNL     1     -40.138  51.158 -54.498  1.00  0.00     0.020 A 
HETATM   28  C   UNL     1     -40.084  52.102 -53.476  1.00  0.00     0.011 A 
ENDBRANCH  22  23
ENDBRANCH  20  22
ENDBRANCH   4  20
TORSDOF 7
ENDMDL
MODEL 4
REMARK VINA RESULT:      -7.9      3.687      6.515
REMARK  7 active torsions:
REMARK  status: ('A' for Active; 'I' for Inactive)
REMARK    1  A    between atoms: C_5  and  O_6 
REMARK    2  A    between atoms: O_6  and  C_7 
REMARK    3  A    between atoms: C_7  and  C_8 
REMARK       I    between atoms: C_8  and  N_9 
REMARK    4  A    between atoms: N_9  and  C_10 
REMARK    5  A    between atoms: C_13  and  N_14 
REMARK    6  A    between atoms: N_14  and  C_15 
REMARK    7  A    between atoms: C_15  and  C_16 
ROOT
HETATM    1  C   UNL     1     -42.107  55.489 -51.610  1.00  0.00     0.034 A 
HETATM    2  C   UNL     1     -43.128  54.657 -52.064  1.00  0.00     0.031 A 
HETATM    3  C   UNL     1     -43.460  54.619 -53.425  1.00  0.00     0.026 A 
HETATM    4  C   UNL     1     -42.774  55.399 -54.359  1.00  0.00     0.008 A 
HETATM    5  C   UNL     1     -41.739  56.218 -53.902  1.00  0.00     0.026 A 
HETATM    6  C   UNL     1     -41.427  56.281 -52.539  1.00  0.00     0.031 A 
ENDROOT
BRANCH   1   7
HETATM    7  N   UNL     1     -41.759  55.653 -50.261  1.00  0.00    -0.325 N 
HETATM    8  C   UNL     1     -40.901  54.977 -49.440  1.00  0.00     0.246 C 
HETATM    9  O   UNL     1     -40.990  55.181 -48.223  1.00  0.00    -0.271 OA
HETATM   10  H   UNL     1     -42.210  56.416 -49.770  1.00  0.00     0.169 HD
BRANCH   8  11
HETATM   11  C   UNL     1     -39.820  54.051 -49.987  1.00  0.00     0.278 C 
BRANCH  11  12
HETATM   12  O   UNL     1     -40.246  52.699 -49.884  1.00  0.00    -0.342 OA
BRANCH  12  13
HETATM   13  C   UNL     1     -40.059  51.903 -50.977  1.00  0.00     0.069 A 
HETATM   14  C   UNL     1     -40.160  52.559 -52.204  1.00  0.00     0.037 A 
HETATM   15  C   UNL     1     -39.977  51.865 -53.401  1.00  0.00     0.009 A 
HETATM   16  C   UNL     1     -39.698  50.495 -53.384  1.00  0.00    -0.062 A 
HETATM   17  C   UNL     1     -39.504  49.732 -54.661  1.00  0.00     0.048 C 
HETATM   18  C   UNL     1     -39.625  49.833 -52.152  1.00  0.00     0.009 A 
HETATM   19  C   UNL     1     -39.806  50.532 -50.953  1.00  0.00     0.037 A 
ENDBRANCH  12  13
ENDBRANCH  11  12
ENDBRANCH   8  11
ENDBRANCH   1   7
BRANCH   4  20
HETATM   20  N   UNL     1     -43.105  55.382 -55.724  1.00  0.00    -0.289 NA
HETATM   21  H   UNL     1     -42.342  55.011 -56.286  1.00  0.00     0.128 HD
BRANCH  20  22
HETATM   22  C   UNL     1     -43.567  56.666 -56.251  1.00  0.00     0.132 C 
BRANCH  22  23
HETATM   23  C   UNL     1     -43.008  56.867 -57.633  1.00  0.00    -0.027 A 
HETATM   24  C   UNL     1     -43.134  55.886 -58.612  1.00  0.00     0.124 A 
HETATM   25  N   UNL     1     -42.663  56.007 -59.874  1.00  0.00    -0.273 NA
HETATM   26  C   UNL     1     -42.039  57.165 -60.180  1.00  0.00     0.116 A 
HETATM   27  C   UNL     1     -41.866  58.206 -59.283  1.00  0.00     0.020 A 
HETATM   28  C   UNL     1     -42.361  58.053 -57.992  1.00  0.00     0.011 A 
ENDBRANCH  22  23
ENDBRANCH  20  22
ENDBRANCH   4  20
TORSDOF 7
ENDMDL
MODEL 5
REMARK VINA RESULT:      -7.8      3.979      6.904
REMARK  7 active torsions:
REMARK  status: ('A' for Active; 'I' for Inactive)
REMARK    1  A    between atoms: C_5  and  O_6 
REMARK    2  A    between atoms: O_6  and  C_7 
REMARK    3  A    between atoms: C_7  and  C_8 
REMARK       I    between atoms: C_8  and  N_9 
REMARK    4  A    between atoms: N_9  and  C_10 
REMARK    5  A    between atoms: C_13  and  N_14 
REMARK    6  A    between atoms: N_14  and  C_15 
REMARK    7  A    between atoms: C_15  and  C_16 
ROOT
HETATM    1  C   UNL     1     -43.335  55.873 -53.866  1.00  0.00     0.034 A 
HETATM    2  C   UNL     1     -43.017  57.179 -54.234  1.00  0.00     0.031 A 
HETATM    3  C   UNL     1     -42.621  57.470 -55.546  1.00  0.00     0.026 A 
HETATM    4  C   UNL     1     -42.546  56.468 -56.518  1.00  0.00     0.008 A 
HETATM    5  C   UNL     1     -42.882  55.164 -56.149  1.00  0.00     0.026 A 
HETATM    6  C   UNL     1     -43.248  54.866 -54.831  1.00  0.00     0.031 A 
ENDROOT
BRANCH   1   7
HETATM    7  N   UNL     1     -43.663  55.475 -52.561  1.00  0.00    -0.325 N 
HETATM    8  C   UNL     1     -42.903  55.085 -51.496  1.00  0.00     0.246 C 
HETATM    9  O   UNL     1     -43.479  54.538 -50.548  1.00  0.00    -0.271 OA
HETATM   10  H   UNL     1     -44.650  55.468 -52.328  1.00  0.00     0.169 HD
BRANCH   8  11
HETATM   11  C   UNL     1     -41.404  55.363 -51.428  1.00  0.00     0.278 C 
BRANCH  11  12
HETATM   12  O   UNL     1     -40.721  54.210 -50.953  1.00  0.00    -0.342 OA
BRANCH  12  13
HETATM   13  C   UNL     1     -40.427  53.240 -51.868  1.00  0.00     0.069 A 
HETATM   14  C   UNL     1     -39.935  52.053 -51.325  1.00  0.00     0.037 A 
HETATM   15  C   UNL     1     -39.608  50.975 -52.149  1.00  0.00     0.009 A 
HETATM   16  C   UNL     1     -39.761  51.076 -53.535  1.00  0.00    -0.062 A 
HETATM   17  C   UNL     1     -39.410  49.930 -54.435  1.00  0.00     0.048 C 
HETATM   18  C   UNL     1     -40.230  52.279 -54.079  1.00  0.00     0.009 A 
HETATM   19  C   UNL     1     -40.560  53.358 -53.250  1.00  0.00     0.037 A 
ENDBRANCH  12  13
ENDBRANCH  11  12
ENDBRANCH   8  11
ENDBRANCH   1   7
BRANCH   4  20
HETATM   20  N   UNL     1     -42.136  56.743 -57.833  1.00  0.00    -0.289 NA
HETATM   21  H   UNL     1     -41.172  57.066 -57.861  1.00  0.00     0.128 HD
BRANCH  20  22
HETATM   22  C   UNL     1     -43.017  57.655 -58.564  1.00  0.00     0.132 C 
BRANCH  22  23
HETATM   23  C   UNL     1     -44.085  56.861 -59.263  1.00  0.00    -0.027 A 
HETATM   24  C   UNL     1     -45.412  57.280 -59.264  1.00  0.00     0.124 A 
HETATM   25  N   UNL     1     -46.418  56.619 -59.881  1.00  0.00    -0.273 NA
HETATM   26  C   UNL     1     -46.087  55.484 -60.534  1.00  0.00     0.116 A 
HETATM   27  C   UNL     1     -44.798  54.983 -60.600  1.00  0.00     0.020 A 
HETATM   28  C   UNL     1     -43.784  55.685 -59.957  1.00  0.00     0.011 A 
ENDBRANCH  22  23
ENDBRANCH  20  22
ENDBRANCH   4  20
TORSDOF 7
ENDMDL
MODEL 6
REMARK VINA RESULT:      -7.3      1.816      3.702
REMARK  7 active torsions:
REMARK  status: ('A' for Active; 'I' for Inactive)
REMARK    1  A    between atoms: C_5  and  O_6 
REMARK    2  A    between atoms: O_6  and  C_7 
REMARK    3  A    between atoms: C_7  and  C_8 
REMARK       I    between atoms: C_8  and  N_9 
REMARK    4  A    between atoms: N_9  and  C_10 
REMARK    5  A    between atoms: C_13  and  N_14 
REMARK    6  A    between atoms: N_14  and  C_15 
REMARK    7  A    between atoms: C_15  and  C_16 
ROOT
HETATM    1  C   UNL     1     -42.614  57.137 -54.739  1.00  0.00     0.034 A 
HETATM    2  C   UNL     1     -43.562  56.175 -55.080  1.00  0.00     0.031 A 
HETATM    3  C   UNL     1     -43.254  54.811 -54.988  1.00  0.00     0.026 A 
HETATM    4  C   UNL     1     -42.001  54.381 -54.544  1.00  0.00     0.008 A 
HETATM    5  C   UNL     1     -41.060  55.349 -54.187  1.00  0.00     0.026 A 
HETATM    6  C   UNL     1     -41.354  56.712 -54.308  1.00  0.00     0.031 A 
ENDROOT
BRANCH   1   7
HETATM    7  N   UNL     1     -42.804  58.521 -54.874  1.00  0.00    -0.325 N 
HETATM    8  C   UNL     1     -43.685  59.392 -54.299  1.00  0.00     0.246 C 
HETATM    9  O   UNL     1     -43.793  60.517 -54.804  1.00  0.00    -0.271 OA
HETATM   10  H   UNL     1     -42.179  59.000 -55.511  1.00  0.00     0.169 HD
BRANCH   8  11
HETATM   11  C   UNL     1     -44.469  59.037 -53.040  1.00  0.00     0.278 C 
BRANCH  11  12
HETATM   12  O   UNL     1     -43.631  59.161 -51.899  1.00  0.00    -0.342 OA
BRANCH  12  13
HETATM   13  C   UNL     1     -43.069  58.016 -51.412  1.00  0.00     0.069 A 
HETATM   14  C   UNL     1     -41.733  58.136 -51.027  1.00  0.00     0.037 A 
HETATM   15  C   UNL     1     -41.043  57.044 -50.499  1.00  0.00     0.009 A 
HETATM   16  C   UNL     1     -41.682  55.808 -50.359  1.00  0.00    -0.062 A 
HETATM   17  C   UNL     1     -40.954  54.623 -49.799  1.00  0.00     0.048 C 
HETATM   18  C   UNL     1     -43.014  55.683 -50.773  1.00  0.00     0.009 A 
HETATM   19  C   UNL     1     -43.706  56.781 -51.299  1.00  0.00     0.037 A 
ENDBRANCH  12  13
ENDBRANCH  11  12
ENDBRANCH   8  11
ENDBRANCH   1   7
BRANCH   4  20
HETATM   20  N   UNL     1     -41.673  53.018 -54.461  1.00  0.00    -0.289 NA
HETATM   21  H   UNL     1     -42.147  52.570 -53.681  1.00  0.00     0.128 HD
BRANCH  20  22
HETATM   22  C   UNL     1     -40.236  52.742 -54.429  1.00  0.00     0.132 C 
BRANCH  22  23
HETATM   23  C   UNL     1     -39.966  51.622 -53.462  1.00  0.00    -0.027 A 
HETATM   24  C   UNL     1     -39.848  50.306 -53.898  1.00  0.00     0.124 A 
HETATM   25  N   UNL     1     -39.597  49.256 -53.083  1.00  0.00    -0.273 NA
HETATM   26  C   UNL     1     -39.452  49.529 -51.769  1.00  0.00     0.116 A 
HETATM   27  C   UNL     1     -39.545  50.802 -51.232  1.00  0.00     0.020 A 
HETATM   28  C   UNL     1     -39.804  51.863 -52.095  1.00  0.00     0.011 A 
ENDBRANCH  22  23
ENDBRANCH  20  22
ENDBRANCH   4  20
TORSDOF 7
ENDMDL
MODEL 7
REMARK VINA RESULT:      -7.2      3.726      7.027
REMARK  7 active torsions:
REMARK  status: ('A' for Active; 'I' for Inactive)
REMARK    1  A    between atoms: C_5  and  O_6 
REMARK    2  A    between atoms: O_6  and  C_7 
REMARK    3  A    between atoms: C_7  and  C_8 
REMARK       I    between atoms: C_8  and  N_9 
REMARK    4  A    between atoms: N_9  and  C_10 
REMARK    5  A    between atoms: C_13  and  N_14 
REMARK    6  A    between atoms: N_14  and  C_15 
REMARK    7  A    between atoms: C_15  and  C_16 
ROOT
HETATM    1  C   UNL     1     -40.975  53.450 -54.195  1.00  0.00     0.034 A 
HETATM    2  C   UNL     1     -42.360  53.373 -54.319  1.00  0.00     0.031 A 
HETATM    3  C   UNL     1     -43.088  54.455 -54.833  1.00  0.00     0.026 A 
HETATM    4  C   UNL     1     -42.448  55.627 -55.243  1.00  0.00     0.008 A 
HETATM    5  C   UNL     1     -41.057  55.693 -55.133  1.00  0.00     0.026 A 
HETATM    6  C   UNL     1     -40.331  54.626 -54.592  1.00  0.00     0.031 A 
ENDROOT
BRANCH   1   7
HETATM    7  N   UNL     1     -40.174  52.452 -53.620  1.00  0.00    -0.325 N 
HETATM    8  C   UNL     1     -39.844  52.164 -52.326  1.00  0.00     0.246 C 
HETATM    9  O   UNL     1     -38.907  51.381 -52.132  1.00  0.00    -0.271 OA
HETATM   10  H   UNL     1     -39.744  51.795 -54.261  1.00  0.00     0.169 HD
BRANCH   8  11
HETATM   11  C   UNL     1     -40.633  52.725 -51.147  1.00  0.00     0.278 C 
BRANCH  11  12
HETATM   12  O   UNL     1     -40.318  54.099 -50.966  1.00  0.00    -0.342 OA
BRANCH  12  13
HETATM   13  C   UNL     1     -41.347  54.991 -51.058  1.00  0.00     0.069 A 
HETATM   14  C   UNL     1     -42.606  54.466 -50.762  1.00  0.00     0.037 A 
HETATM   15  C   UNL     1     -43.743  55.274 -50.804  1.00  0.00     0.009 A 
HETATM   16  C   UNL     1     -43.635  56.623 -51.155  1.00  0.00    -0.062 A 
HETATM   17  C   UNL     1     -44.847  57.504 -51.211  1.00  0.00     0.048 C 
HETATM   18  C   UNL     1     -42.375  57.140 -51.479  1.00  0.00     0.009 A 
HETATM   19  C   UNL     1     -41.235  56.329 -51.433  1.00  0.00     0.037 A 
ENDBRANCH  12  13
ENDBRANCH  11  12
ENDBRANCH   8  11
ENDBRANCH   1   7
BRANCH   4  20
HETATM   20  N   UNL     1     -43.165  56.725 -55.747  1.00  0.00    -0.289 NA
HETATM   21  H   UNL     1     -44.166  56.543 -55.752  1.00  0.00     0.128 HD
BRANCH  20  22
HETATM   22  C   UNL     1     -42.711  57.196 -57.055  1.00  0.00     0.132 C 
BRANCH  22  23
HETATM   23  C   UNL     1     -43.613  56.641 -58.124  1.00  0.00    -0.027 A 
HETATM   24  C   UNL     1     -44.735  57.340 -58.555  1.00  0.00     0.124 A 
HETATM   25  N   UNL     1     -45.580  56.903 -59.517  1.00  0.00    -0.273 NA
HETATM   26  C   UNL     1     -45.292  55.710 -60.081  1.00  0.00     0.116 A 
HETATM   27  C   UNL     1     -44.197  54.937 -59.729  1.00  0.00     0.020 A 
HETATM   28  C   UNL     1     -43.346  55.414 -58.737  1.00  0.00     0.011 A 
ENDBRANCH  22  23
ENDBRANCH  20  22
ENDBRANCH   4  20
TORSDOF 7
ENDMDL
MODEL 8
REMARK VINA RESULT:      -7.1      1.943      2.669
REMARK  7 active torsions:
REMARK  status: ('A' for Active; 'I' for Inactive)
REMARK    1  A    between atoms: C_5  and  O_6 
REMARK    2  A    between atoms: O_6  and  C_7 
REMARK    3  A    between atoms: C_7  and  C_8 
REMARK       I    between atoms: C_8  and  N_9 
REMARK    4  A    between atoms: N_9  and  C_10 
REMARK    5  A    between atoms: C_13  and  N_14 
REMARK    6  A    between atoms: N_14  and  C_15 
REMARK    7  A    between atoms: C_15  and  C_16 
ROOT
HETATM    1  C   UNL     1     -42.218  56.796 -51.732  1.00  0.00     0.034 A 
HETATM    2  C   UNL     1     -43.060  55.695 -51.590  1.00  0.00     0.031 A 
HETATM    3  C   UNL     1     -42.917  54.581 -52.429  1.00  0.00     0.026 A 
HETATM    4  C   UNL     1     -41.928  54.540 -53.415  1.00  0.00     0.008 A 
HETATM    5  C   UNL     1     -41.076  55.639 -53.541  1.00  0.00     0.026 A 
HETATM    6  C   UNL     1     -41.236  56.765 -52.726  1.00  0.00     0.031 A 
ENDROOT
BRANCH   1   7
HETATM    7  N   UNL     1     -42.336  57.984 -50.994  1.00  0.00    -0.325 N 
HETATM    8  C   UNL     1     -43.078  59.116 -51.179  1.00  0.00     0.246 C 
HETATM    9  O   UNL     1     -42.785  60.112 -50.506  1.00  0.00    -0.271 OA
HETATM   10  H   UNL     1     -41.780  58.045 -50.149  1.00  0.00     0.169 HD
BRANCH   8  11
HETATM   11  C   UNL     1     -44.273  59.154 -52.127  1.00  0.00     0.278 C 
BRANCH  11  12
HETATM   12  O   UNL     1     -43.850  59.576 -53.417  1.00  0.00    -0.342 OA
BRANCH  12  13
HETATM   13  C   UNL     1     -43.712  58.610 -54.373  1.00  0.00     0.069 A 
HETATM   14  C   UNL     1     -42.707  58.853 -55.310  1.00  0.00     0.037 A 
HETATM   15  C   UNL     1     -42.451  57.939 -56.333  1.00  0.00     0.009 A 
HETATM   16  C   UNL     1     -43.208  56.768 -56.437  1.00  0.00    -0.062 A 
HETATM   17  C   UNL     1     -42.950  55.778 -57.533  1.00  0.00     0.048 C 
HETATM   18  C   UNL     1     -44.234  56.541 -55.511  1.00  0.00     0.009 A 
HETATM   19  C   UNL     1     -44.487  57.457 -54.484  1.00  0.00     0.037 A 
ENDBRANCH  12  13
ENDBRANCH  11  12
ENDBRANCH   8  11
ENDBRANCH   1   7
BRANCH   4  20
HETATM   20  N   UNL     1     -41.783  53.436 -54.272  1.00  0.00    -0.289 NA
HETATM   21  H   UNL     1     -42.342  52.647 -53.957  1.00  0.00     0.128 HD
BRANCH  20  22
HETATM   22  C   UNL     1     -40.397  53.035 -54.512  1.00  0.00     0.132 C 
BRANCH  22  23
HETATM   23  C   UNL     1     -40.083  51.813 -53.692  1.00  0.00    -0.027 A 
HETATM   24  C   UNL     1     -40.043  50.548 -54.270  1.00  0.00     0.124 A 
HETATM   25  N   UNL     1     -39.758  49.412 -53.592  1.00  0.00    -0.273 NA
HETATM   26  C   UNL     1     -39.498  49.542 -52.273  1.00  0.00     0.116 A 
HETATM   27  C   UNL     1     -39.506  50.754 -51.603  1.00  0.00     0.020 A 
HETATM   28  C   UNL     1     -39.801  51.905 -52.326  1.00  0.00     0.011 A 
ENDBRANCH  22  23
ENDBRANCH  20  22
ENDBRANCH   4  20
TORSDOF 7
ENDMDL
MODEL 9
REMARK VINA RESULT:      -7.1      4.110      7.130
REMARK  7 active torsions:
REMARK  status: ('A' for Active; 'I' for Inactive)
REMARK    1  A    between atoms: C_5  and  O_6 
REMARK    2  A    between atoms: O_6  and  C_7 
REMARK    3  A    between atoms: C_7  and  C_8 
REMARK       I    between atoms: C_8  and  N_9 
REMARK    4  A    between atoms: N_9  and  C_10 
REMARK    5  A    between atoms: C_13  and  N_14 
REMARK    6  A    between atoms: N_14  and  C_15 
REMARK    7  A    between atoms: C_15  and  C_16 
ROOT
HETATM    1  C   UNL     1     -42.810  57.790 -53.517  1.00  0.00     0.034 A 
HETATM    2  C   UNL     1     -42.373  57.358 -54.768  1.00  0.00     0.031 A 
HETATM    3  C   UNL     1     -43.255  57.329 -55.856  1.00  0.00     0.026 A 
HETATM    4  C   UNL     1     -44.583  57.742 -55.722  1.00  0.00     0.008 A 
HETATM    5  C   UNL     1     -45.011  58.191 -54.471  1.00  0.00     0.026 A 
HETATM    6  C   UNL     1     -44.142  58.191 -53.375  1.00  0.00     0.031 A 
ENDROOT
BRANCH   1   7
HETATM    7  N   UNL     1     -42.024  57.777 -52.355  1.00  0.00    -0.325 N 
HETATM    8  C   UNL     1     -41.673  56.782 -51.489  1.00  0.00     0.246 C 
HETATM    9  O   UNL     1     -41.182  57.111 -50.402  1.00  0.00    -0.271 OA
HETATM   10  H   UNL     1     -41.616  58.663 -52.079  1.00  0.00     0.169 HD
BRANCH   8  11
HETATM   11  C   UNL     1     -41.811  55.306 -51.853  1.00  0.00     0.278 C 
BRANCH  11  12
HETATM   12  O   UNL     1     -40.650  54.598 -51.442  1.00  0.00    -0.342 OA
BRANCH  12  13
HETATM   13  C   UNL     1     -40.369  53.432 -52.096  1.00  0.00     0.069 A 
HETATM   14  C   UNL     1     -40.712  53.422 -53.448  1.00  0.00     0.037 A 
HETATM   15  C   UNL     1     -40.467  52.297 -54.237  1.00  0.00     0.009 A 
HETATM   16  C   UNL     1     -39.880  51.159 -53.676  1.00  0.00    -0.062 A 
HETATM   17  C   UNL     1     -39.613  49.939 -54.508  1.00  0.00     0.048 C 
HETATM   18  C   UNL     1     -39.562  51.162 -52.312  1.00  0.00     0.009 A 
HETATM   19  C   UNL     1     -39.806  52.293 -51.524  1.00  0.00     0.037 A 
ENDBRANCH  12  13
ENDBRANCH  11  12
ENDBRANCH   8  11
ENDBRANCH   1   7
BRANCH   4  20
HETATM   20  N   UNL     1     -45.482  57.706 -56.801  1.00  0.00    -0.289 NA
HETATM   21  H   UNL     1     -45.845  56.767 -56.950  1.00  0.00     0.128 HD
BRANCH  20  22
HETATM   22  C   UNL     1     -44.958  58.268 -58.045  1.00  0.00     0.132 C 
BRANCH  22  23
HETATM   23  C   UNL     1     -45.077  57.247 -59.142  1.00  0.00    -0.027 A 
HETATM   24  C   UNL     1     -43.949  56.675 -59.722  1.00  0.00     0.124 A 
HETATM   25  N   UNL     1     -43.987  55.746 -60.704  1.00  0.00    -0.273 NA
HETATM   26  C   UNL     1     -45.209  55.362 -61.129  1.00  0.00     0.116 A 
HETATM   27  C   UNL     1     -46.394  55.863 -60.616  1.00  0.00     0.020 A 
HETATM   28  C   UNL     1     -46.324  56.817 -59.606  1.00  0.00     0.011 A 
ENDBRANCH  22  23
ENDBRANCH  20  22
ENDBRANCH   4  20
TORSDOF 7
ENDMDL
MODEL 10
REMARK VINA RESULT:      -7.1      3.767      6.615
REMARK  7 active torsions:
REMARK  status: ('A' for Active; 'I' for Inactive)
REMARK    1  A    between atoms: C_5  and  O_6 
REMARK    2  A    between atoms: O_6  and  C_7 
REMARK    3  A    between atoms: C_7  and  C_8 
REMARK       I    between atoms: C_8  and  N_9 
REMARK    4  A    between atoms: N_9  and  C_10 
REMARK    5  A    between atoms: C_13  and  N_14 
REMARK    6  A    between atoms: N_14  and  C_15 
REMARK    7  A    between atoms: C_15  and  C_16 
ROOT
HETATM    1  C   UNL     1     -43.782  57.037 -53.768  1.00  0.00     0.034 A 
HETATM    2  C   UNL     1     -43.758  55.885 -54.551  1.00  0.00     0.031 A 
HETATM    3  C   UNL     1     -43.167  55.902 -55.822  1.00  0.00     0.026 A 
HETATM    4  C   UNL     1     -42.579  57.064 -56.330  1.00  0.00     0.008 A 
HETATM    5  C   UNL     1     -42.590  58.211 -55.534  1.00  0.00     0.026 A 
HETATM    6  C   UNL     1     -43.207  58.205 -54.278  1.00  0.00     0.031 A 
ENDROOT
BRANCH   1   7
HETATM    7  N   UNL     1     -44.419  57.135 -52.522  1.00  0.00    -0.325 N 
HETATM    8  C   UNL     1     -44.082  56.691 -51.275  1.00  0.00     0.246 C 
HETATM    9  O   UNL     1     -44.962  56.695 -50.406  1.00  0.00    -0.271 OA
HETATM   10  H   UNL     1     -45.302  57.632 -52.507  1.00  0.00     0.169 HD
BRANCH   8  11
HETATM   11  C   UNL     1     -42.660  56.262 -50.926  1.00  0.00     0.278 C 
BRANCH  11  12
HETATM   12  O   UNL     1     -42.653  54.900 -50.520  1.00  0.00    -0.342 OA
BRANCH  12  13
HETATM   13  C   UNL     1     -41.800  54.060 -51.177  1.00  0.00     0.069 A 
HETATM   14  C   UNL     1     -42.105  53.850 -52.522  1.00  0.00     0.037 A 
HETATM   15  C   UNL     1     -41.306  53.023 -53.313  1.00  0.00     0.009 A 
HETATM   16  C   UNL     1     -40.190  52.386 -52.761  1.00  0.00    -0.062 A 
HETATM   17  C   UNL     1     -39.323  51.491 -53.595  1.00  0.00     0.048 C 
HETATM   18  C   UNL     1     -39.902  52.578 -51.404  1.00  0.00     0.009 A 
HETATM   19  C   UNL     1     -40.704  53.409 -50.613  1.00  0.00     0.037 A 
ENDBRANCH  12  13
ENDBRANCH  11  12
ENDBRANCH   8  11
ENDBRANCH   1   7
BRANCH   4  20
HETATM   20  N   UNL     1     -41.996  57.100 -57.607  1.00  0.00    -0.289 NA
HETATM   21  H   UNL     1     -41.033  57.426 -57.565  1.00  0.00     0.128 HD
BRANCH  20  22
HETATM   22  C   UNL     1     -42.761  57.854 -58.600  1.00  0.00     0.132 C 
BRANCH  22  23
HETATM   23  C   UNL     1     -43.813  56.962 -59.201  1.00  0.00    -0.027 A 
HETATM   24  C   UNL     1     -45.140  57.370 -59.291  1.00  0.00     0.124 A 
HETATM   25  N   UNL     1     -46.130  56.622 -59.827  1.00  0.00    -0.273 NA
HETATM   26  C   UNL     1     -45.783  55.406 -60.301  1.00  0.00     0.116 A 
HETATM   27  C   UNL     1     -44.492  54.906 -60.265  1.00  0.00     0.020 A 
HETATM   28  C   UNL     1     -43.494  55.699 -59.708  1.00  0.00     0.011 A 
ENDBRANCH  22  23
ENDBRANCH  20  22
ENDBRANCH   4  20
TORSDOF 7
ENDMDL
