MODEL 1
REMARK VINA RESULT:      -8.3      0.000      0.000
REMARK  8 active torsions:
REMARK  status: ('A' for Active; 'I' for Inactive)
REMARK    1  A    between atoms: C_2  and  O_3 
REMARK    2  A    between atoms: O_3  and  C_4 
REMARK    3  A    between atoms: C_4  and  C_5 
REMARK    4  A    between atoms: C_6  and  O_7 
REMARK    5  A    between atoms: C_6  and  C_8 
REMARK    6  A    between atoms: C_16  and  C_17 
REMARK    7  A    between atoms: C_18  and  C_19 
REMARK    8  A    between atoms: N_26  and  C_27 
ROOT
HETATM    1  C   UNL     1     -43.485  58.526 -53.960  1.00  0.00     0.177 C 
HETATM    2  C   UNL     1     -42.811  58.839 -52.622  1.00  0.00     0.250 C 
HETATM    3  N   UNL     1     -43.554  58.321 -51.489  1.00  0.00    -0.303 N 
HETATM    4  C   UNL     1     -44.414  57.283 -51.527  1.00  0.00     0.319 C 
HETATM    5  O   UNL     1     -44.899  56.829 -50.498  1.00  0.00    -0.247 OA
HETATM    6  N   UNL     1     -44.735  56.785 -52.740  1.00  0.00    -0.333 N 
HETATM    7  C   UNL     1     -44.070  57.113 -53.989  1.00  0.00     0.142 C 
HETATM    8  H   UNL     1     -43.328  58.632 -50.551  1.00  0.00     0.167 HD
HETATM    9  H   UNL     1     -45.327  55.963 -52.707  1.00  0.00     0.165 HD
ENDROOT
BRANCH   7  10
HETATM   10  C   UNL     1     -43.071  56.023 -54.293  1.00  0.00     0.015 A 
HETATM   11  C   UNL     1     -42.456  55.653 -55.537  1.00  0.00     0.097 A 
HETATM   12  N   UNL     1     -41.628  54.608 -55.361  1.00  0.00    -0.167 NA
HETATM   13  N   UNL     1     -41.704  54.275 -54.057  1.00  0.00    -0.244 N 
HETATM   14  C   UNL     1     -42.573  55.097 -53.392  1.00  0.00     0.130 A 
BRANCH  11  15
HETATM   15  C   UNL     1     -42.618  56.197 -56.895  1.00  0.00    -0.005 A 
HETATM   16  C   UNL     1     -42.154  57.464 -57.268  1.00  0.00     0.014 A 
HETATM   17  C   UNL     1     -42.320  57.935 -58.577  1.00  0.00     0.001 A 
HETATM   18  C   UNL     1     -42.939  57.139 -59.537  1.00  0.00     0.000 A 
HETATM   19  C   UNL     1     -43.394  55.871 -59.192  1.00  0.00     0.001 A 
HETATM   20  C   UNL     1     -43.234  55.407 -57.884  1.00  0.00     0.014 A 
ENDBRANCH  11  15
BRANCH  13  21
HETATM   21  C   UNL     1     -40.958  53.183 -53.529  1.00  0.00     0.058 A 
HETATM   22  C   UNL     1     -40.582  53.194 -52.177  1.00  0.00     0.031 A 
HETATM   23  C   UNL     1     -39.849  52.132 -51.643  1.00  0.00     0.002 A 
HETATM   24  C   UNL     1     -39.485  51.056 -52.451  1.00  0.00     0.000 A 
HETATM   25  C   UNL     1     -39.850  51.041 -53.796  1.00  0.00     0.002 A 
HETATM   26  C   UNL     1     -40.587  52.098 -54.338  1.00  0.00     0.031 A 
ENDBRANCH  13  21
ENDBRANCH   7  10
BRANCH   1  27
HETATM   27  C   UNL     1     -44.581  59.496 -54.337  1.00  0.00     0.270 C 
HETATM   28  O   UNL     1     -45.512  59.763 -53.587  1.00  0.00    -0.265 OA
BRANCH  27  29
HETATM   29  O   UNL     1     -44.375  60.066 -55.550  1.00  0.00    -0.321 OA
BRANCH  29  30
HETATM   30  C   UNL     1     -45.460  60.006 -56.491  1.00  0.00     0.174 C 
HETATM   31  C   UNL     1     -45.680  58.582 -56.966  1.00  0.00     0.034 C 
ENDBRANCH  29  30
ENDBRANCH  27  29
ENDBRANCH   1  27
BRANCH   2  32
HETATM   32  O   UNL     1     -41.565  58.114 -52.578  1.00  0.00    -0.363 OA
HETATM   33  H   UNL     1     -40.868  58.733 -52.858  1.00  0.00     0.213 HD
ENDBRANCH   2  32
BRANCH   2  34
HETATM   34  C   UNL     1     -42.478  60.366 -52.487  1.00  0.00     0.439 C 
HETATM   35  F   UNL     1     -42.109  60.903 -53.670  1.00  0.00    -0.166 F 
HETATM   36  F   UNL     1     -43.499  61.096 -52.000  1.00  0.00    -0.166 F 
HETATM   37  F   UNL     1     -41.435  60.523 -51.629  1.00  0.00    -0.166 F 
ENDBRANCH   2  34
TORSDOF 8
ENDMDL
MODEL 2
REMARK VINA RESULT:      -8.2      2.037      5.801
REMARK  8 active torsions:
REMARK  status: ('A' for Active; 'I' for Inactive)
REMARK    1  A    between atoms: C_2  and  O_3 
REMARK    2  A    between atoms: O_3  and  C_4 
REMARK    3  A    between atoms: C_4  and  C_5 
REMARK    4  A    between atoms: C_6  and  O_7 
REMARK    5  A    between atoms: C_6  and  C_8 
REMARK    6  A    between atoms: C_16  and  C_17 
REMARK    7  A    between atoms: C_18  and  C_19 
REMARK    8  A    between atoms: N_26  and  C_27 
ROOT
HETATM    1  C   UNL     1     -42.508  57.492 -52.556  1.00  0.00     0.177 C 
HETATM    2  C   UNL     1     -43.788  58.321 -52.692  1.00  0.00     0.250 C 
HETATM    3  N   UNL     1     -43.554  59.606 -53.324  1.00  0.00    -0.303 N 
HETATM    4  C   UNL     1     -42.531  59.894 -54.155  1.00  0.00     0.319 C 
HETATM    5  O   UNL     1     -42.483  60.966 -54.745  1.00  0.00    -0.247 OA
HETATM    6  N   UNL     1     -41.557  58.968 -54.286  1.00  0.00    -0.333 N 
HETATM    7  C   UNL     1     -41.620  57.602 -53.795  1.00  0.00     0.142 C 
HETATM    8  H   UNL     1     -44.268  60.324 -53.288  1.00  0.00     0.167 HD
HETATM    9  H   UNL     1     -40.852  59.204 -54.975  1.00  0.00     0.165 HD
ENDROOT
BRANCH   7  10
HETATM   10  C   UNL     1     -42.021  56.706 -54.942  1.00  0.00     0.015 A 
HETATM   11  C   UNL     1     -41.866  55.288 -55.105  1.00  0.00     0.097 A 
HETATM   12  N   UNL     1     -42.355  54.894 -56.293  1.00  0.00    -0.167 NA
HETATM   13  N   UNL     1     -42.797  56.006 -56.913  1.00  0.00    -0.244 N 
HETATM   14  C   UNL     1     -42.598  57.112 -56.134  1.00  0.00     0.130 A 
BRANCH  11  15
HETATM   15  C   UNL     1     -41.257  54.274 -54.227  1.00  0.00    -0.005 A 
HETATM   16  C   UNL     1     -41.509  54.207 -52.852  1.00  0.00     0.014 A 
HETATM   17  C   UNL     1     -40.916  53.217 -52.059  1.00  0.00     0.001 A 
HETATM   18  C   UNL     1     -40.073  52.269 -52.632  1.00  0.00     0.000 A 
HETATM   19  C   UNL     1     -39.820  52.308 -53.999  1.00  0.00     0.001 A 
HETATM   20  C   UNL     1     -40.407  53.302 -54.786  1.00  0.00     0.014 A 
ENDBRANCH  11  15
BRANCH  13  21
HETATM   21  C   UNL     1     -43.367  55.947 -58.217  1.00  0.00     0.058 A 
HETATM   22  C   UNL     1     -43.387  57.102 -59.013  1.00  0.00     0.031 A 
HETATM   23  C   UNL     1     -43.942  57.064 -60.295  1.00  0.00     0.002 A 
HETATM   24  C   UNL     1     -44.482  55.877 -60.788  1.00  0.00     0.000 A 
HETATM   25  C   UNL     1     -44.469  54.727 -60.001  1.00  0.00     0.002 A 
HETATM   26  C   UNL     1     -43.912  54.756 -58.719  1.00  0.00     0.031 A 
ENDBRANCH  13  21
ENDBRANCH   7  10
BRANCH   1  27
HETATM   27  C   UNL     1     -41.674  57.844 -51.346  1.00  0.00     0.270 C 
HETATM   28  O   UNL     1     -41.459  57.050 -50.440  1.00  0.00    -0.265 OA
BRANCH  27  29
HETATM   29  O   UNL     1     -41.155  59.095 -51.420  1.00  0.00    -0.321 OA
BRANCH  29  30
HETATM   30  C   UNL     1     -40.426  59.567 -50.275  1.00  0.00     0.174 C 
HETATM   31  C   UNL     1     -38.935  59.577 -50.555  1.00  0.00     0.034 C 
ENDBRANCH  29  30
ENDBRANCH  27  29
ENDBRANCH   1  27
BRANCH   2  32
HETATM   32  O   UNL     1     -44.658  57.636 -53.616  1.00  0.00    -0.363 OA
HETATM   33  H   UNL     1     -44.921  58.287 -54.292  1.00  0.00     0.213 HD
ENDBRANCH   2  32
BRANCH   2  34
HETATM   34  C   UNL     1     -44.545  58.442 -51.324  1.00  0.00     0.439 C 
HETATM   35  F   UNL     1     -44.551  57.271 -50.651  1.00  0.00    -0.166 F 
HETATM   36  F   UNL     1     -44.035  59.386 -50.511  1.00  0.00    -0.166 F 
HETATM   37  F   UNL     1     -45.841  58.780 -51.558  1.00  0.00    -0.166 F 
ENDBRANCH   2  34
TORSDOF 8
ENDMDL
MODEL 3
REMARK VINA RESULT:      -7.9      2.514      4.876
REMARK  8 active torsions:
REMARK  status: ('A' for Active; 'I' for Inactive)
REMARK    1  A    between atoms: C_2  and  O_3 
REMARK    2  A    between atoms: O_3  and  C_4 
REMARK    3  A    between atoms: C_4  and  C_5 
REMARK    4  A    between atoms: C_6  and  O_7 
REMARK    5  A    between atoms: C_6  and  C_8 
REMARK    6  A    between atoms: C_16  and  C_17 
REMARK    7  A    between atoms: C_18  and  C_19 
REMARK    8  A    between atoms: N_26  and  C_27 
ROOT
HETATM    1  C   UNL     1     -43.174  58.243 -55.525  1.00  0.00     0.177 C 
HETATM    2  C   UNL     1     -44.418  57.459 -55.951  1.00  0.00     0.250 C 
HETATM    3  N   UNL     1     -44.213  56.713 -57.178  1.00  0.00    -0.303 N 
HETATM    4  C   UNL     1     -43.020  56.296 -57.649  1.00  0.00     0.319 C 
HETATM    5  O   UNL     1     -42.950  55.560 -58.626  1.00  0.00    -0.247 OA
HETATM    6  N   UNL     1     -41.912  56.742 -57.018  1.00  0.00    -0.333 N 
HETATM    7  C   UNL     1     -41.890  57.443 -55.747  1.00  0.00     0.142 C 
HETATM    8  H   UNL     1     -45.007  56.324 -57.672  1.00  0.00     0.167 HD
HETATM    9  H   UNL     1     -41.048  56.343 -57.367  1.00  0.00     0.165 HD
ENDROOT
BRANCH   7  10
HETATM   10  C   UNL     1     -41.573  56.444 -54.661  1.00  0.00     0.015 A 
HETATM   11  C   UNL     1     -41.602  56.589 -53.233  1.00  0.00     0.097 A 
HETATM   12  N   UNL     1     -41.232  55.444 -52.635  1.00  0.00    -0.167 NA
HETATM   13  N   UNL     1     -40.942  54.573 -53.621  1.00  0.00    -0.244 N 
HETATM   14  C   UNL     1     -41.123  55.147 -54.850  1.00  0.00     0.130 A 
BRANCH  11  15
HETATM   15  C   UNL     1     -41.925  57.749 -52.385  1.00  0.00    -0.005 A 
HETATM   16  C   UNL     1     -43.233  58.074 -52.007  1.00  0.00     0.014 A 
HETATM   17  C   UNL     1     -43.491  59.181 -51.188  1.00  0.00     0.001 A 
HETATM   18  C   UNL     1     -42.443  59.972 -50.724  1.00  0.00     0.000 A 
HETATM   19  C   UNL     1     -41.135  59.658 -51.076  1.00  0.00     0.001 A 
HETATM   20  C   UNL     1     -40.881  58.558 -51.899  1.00  0.00     0.014 A 
ENDBRANCH  11  15
BRANCH  13  21
HETATM   21  C   UNL     1     -40.494  53.252 -53.333  1.00  0.00     0.058 A 
HETATM   22  C   UNL     1     -40.436  52.302 -54.364  1.00  0.00     0.031 A 
HETATM   23  C   UNL     1     -39.999  51.002 -54.099  1.00  0.00     0.002 A 
HETATM   24  C   UNL     1     -39.622  50.641 -52.807  1.00  0.00     0.000 A 
HETATM   25  C   UNL     1     -39.681  51.578 -51.777  1.00  0.00     0.002 A 
HETATM   26  C   UNL     1     -40.113  52.882 -52.034  1.00  0.00     0.031 A 
ENDBRANCH  13  21
ENDBRANCH   7  10
BRANCH   1  27
HETATM   27  C   UNL     1     -43.023  59.578 -56.216  1.00  0.00     0.270 C 
HETATM   28  O   UNL     1     -42.656  59.679 -57.380  1.00  0.00    -0.265 OA
BRANCH  27  29
HETATM   29  O   UNL     1     -43.396  60.616 -55.428  1.00  0.00    -0.321 OA
BRANCH  29  30
HETATM   30  C   UNL     1     -42.543  60.929 -54.315  1.00  0.00     0.174 C 
HETATM   31  C   UNL     1     -43.053  62.151 -53.574  1.00  0.00     0.034 C 
ENDBRANCH  29  30
ENDBRANCH  27  29
ENDBRANCH   1  27
BRANCH   2  32
HETATM   32  O   UNL     1     -44.653  56.436 -54.962  1.00  0.00    -0.363 OA
HETATM   33  H   UNL     1     -45.609  56.441 -54.773  1.00  0.00     0.213 HD
ENDBRANCH   2  32
BRANCH   2  34
HETATM   34  C   UNL     1     -45.689  58.376 -55.999  1.00  0.00     0.439 C 
HETATM   35  F   UNL     1     -45.815  59.115 -54.876  1.00  0.00    -0.166 F 
HETATM   36  F   UNL     1     -45.705  59.215 -57.052  1.00  0.00    -0.166 F 
HETATM   37  F   UNL     1     -46.800  57.599 -56.098  1.00  0.00    -0.166 F 
ENDBRANCH   2  34
TORSDOF 8
ENDMDL
MODEL 4
REMARK VINA RESULT:      -7.9      3.392      7.178
REMARK  8 active torsions:
REMARK  status: ('A' for Active; 'I' for Inactive)
REMARK    1  A    between atoms: C_2  and  O_3 
REMARK    2  A    between atoms: O_3  and  C_4 
REMARK    3  A    between atoms: C_4  and  C_5 
REMARK    4  A    between atoms: C_6  and  O_7 
REMARK    5  A    between atoms: C_6  and  C_8 
REMARK    6  A    between atoms: C_16  and  C_17 
REMARK    7  A    between atoms: C_18  and  C_19 
REMARK    8  A    between atoms: N_26  and  C_27 
ROOT
HETATM    1  C   UNL     1     -42.249  55.599 -52.885  1.00  0.00     0.177 C 
HETATM    2  C   UNL     1     -41.372  54.591 -53.633  1.00  0.00     0.250 C 
HETATM    3  N   UNL     1     -42.110  53.846 -54.634  1.00  0.00    -0.303 N 
HETATM    4  C   UNL     1     -43.242  54.260 -55.241  1.00  0.00     0.319 C 
HETATM    5  O   UNL     1     -43.728  53.625 -56.168  1.00  0.00    -0.247 OA
HETATM    6  N   UNL     1     -43.825  55.382 -54.767  1.00  0.00    -0.333 N 
HETATM    7  C   UNL     1     -43.231  56.307 -53.819  1.00  0.00     0.142 C 
HETATM    8  H   UNL     1     -41.702  53.017 -55.050  1.00  0.00     0.167 HD
HETATM    9  H   UNL     1     -44.631  55.687 -55.302  1.00  0.00     0.165 HD
ENDROOT
BRANCH   7  10
HETATM   10  C   UNL     1     -42.644  57.464 -54.591  1.00  0.00     0.015 A 
HETATM   11  C   UNL     1     -41.859  58.576 -54.136  1.00  0.00     0.097 A 
HETATM   12  N   UNL     1     -41.552  59.389 -55.163  1.00  0.00    -0.167 NA
HETATM   13  N   UNL     1     -42.131  58.857 -56.258  1.00  0.00    -0.244 N 
HETATM   14  C   UNL     1     -42.806  57.708 -55.945  1.00  0.00     0.130 A 
BRANCH  11  15
HETATM   15  C   UNL     1     -41.398  58.948 -52.788  1.00  0.00    -0.005 A 
HETATM   16  C   UNL     1     -40.077  58.774 -52.360  1.00  0.00     0.014 A 
HETATM   17  C   UNL     1     -39.682  59.154 -51.071  1.00  0.00     0.001 A 
HETATM   18  C   UNL     1     -40.601  59.728 -50.194  1.00  0.00     0.000 A 
HETATM   19  C   UNL     1     -41.915  59.923 -50.604  1.00  0.00     0.001 A 
HETATM   20  C   UNL     1     -42.308  59.535 -51.888  1.00  0.00     0.014 A 
ENDBRANCH  11  15
BRANCH  13  21
HETATM   21  C   UNL     1     -42.019  59.484 -57.531  1.00  0.00     0.058 A 
HETATM   22  C   UNL     1     -42.268  58.738 -58.693  1.00  0.00     0.031 A 
HETATM   23  C   UNL     1     -42.162  59.337 -59.950  1.00  0.00     0.002 A 
HETATM   24  C   UNL     1     -41.806  60.680 -60.057  1.00  0.00     0.000 A 
HETATM   25  C   UNL     1     -41.553  61.427 -58.907  1.00  0.00     0.002 A 
HETATM   26  C   UNL     1     -41.660  60.836 -57.645  1.00  0.00     0.031 A 
ENDBRANCH  13  21
ENDBRANCH   7  10
BRANCH   1  27
HETATM   27  C   UNL     1     -43.035  54.999 -51.743  1.00  0.00     0.270 C 
HETATM   28  O   UNL     1     -43.606  53.919 -51.831  1.00  0.00    -0.265 OA
BRANCH  27  29
HETATM   29  O   UNL     1     -42.977  55.755 -50.619  1.00  0.00    -0.321 OA
BRANCH  29  30
HETATM   30  C   UNL     1     -41.670  56.103 -50.134  1.00  0.00     0.174 C 
HETATM   31  C   UNL     1     -41.217  55.127 -49.064  1.00  0.00     0.034 C 
ENDBRANCH  29  30
ENDBRANCH  27  29
ENDBRANCH   1  27
BRANCH   2  32
HETATM   32  O   UNL     1     -40.405  55.336 -54.401  1.00  0.00    -0.363 OA
HETATM   33  H   UNL     1     -40.869  55.673 -55.188  1.00  0.00     0.213 HD
ENDBRANCH   2  32
BRANCH   2  34
HETATM   34  C   UNL     1     -40.583  53.667 -52.642  1.00  0.00     0.439 C 
HETATM   35  F   UNL     1     -39.845  54.385 -51.769  1.00  0.00    -0.166 F 
HETATM   36  F   UNL     1     -41.375  52.840 -51.934  1.00  0.00    -0.166 F 
HETATM   37  F   UNL     1     -39.725  52.883 -53.348  1.00  0.00    -0.166 F 
ENDBRANCH   2  34
TORSDOF 8
ENDMDL
MODEL 5
REMARK VINA RESULT:      -7.8      2.516      4.704
REMARK  8 active torsions:
REMARK  status: ('A' for Active; 'I' for Inactive)
REMARK    1  A    between atoms: C_2  and  O_3 
REMARK    2  A    between atoms: O_3  and  C_4 
REMARK    3  A    between atoms: C_4  and  C_5 
REMARK    4  A    between atoms: C_6  and  O_7 
REMARK    5  A    between atoms: C_6  and  C_8 
REMARK    6  A    between atoms: C_16  and  C_17 
REMARK    7  A    between atoms: C_18  and  C_19 
REMARK    8  A    between atoms: N_26  and  C_27 
ROOT
HETATM    1  C   UNL     1     -42.958  58.131 -55.522  1.00  0.00     0.177 C 
HETATM    2  C   UNL     1     -44.287  57.451 -55.863  1.00  0.00     0.250 C 
HETATM    3  N   UNL     1     -44.218  56.680 -57.090  1.00  0.00    -0.303 N 
HETATM    4  C   UNL     1     -43.094  56.160 -57.625  1.00  0.00     0.319 C 
HETATM    5  O   UNL     1     -43.145  55.413 -58.594  1.00  0.00    -0.247 OA
HETATM    6  N   UNL     1     -41.917  56.517 -57.066  1.00  0.00    -0.333 N 
HETATM    7  C   UNL     1     -41.761  57.225 -55.808  1.00  0.00     0.142 C 
HETATM    8  H   UNL     1     -45.070  56.355 -57.531  1.00  0.00     0.167 HD
HETATM    9  H   UNL     1     -41.112  56.043 -57.460  1.00  0.00     0.165 HD
ENDROOT
BRANCH   7  10
HETATM   10  C   UNL     1     -41.463  56.212 -54.729  1.00  0.00     0.015 A 
HETATM   11  C   UNL     1     -41.469  56.353 -53.301  1.00  0.00     0.097 A 
HETATM   12  N   UNL     1     -41.130  55.194 -52.710  1.00  0.00    -0.167 NA
HETATM   13  N   UNL     1     -40.883  54.317 -53.703  1.00  0.00    -0.244 N 
HETATM   14  C   UNL     1     -41.061  54.901 -54.928  1.00  0.00     0.130 A 
BRANCH  11  15
HETATM   15  C   UNL     1     -41.742  57.521 -52.446  1.00  0.00    -0.005 A 
HETATM   16  C   UNL     1     -43.018  57.825 -51.958  1.00  0.00     0.014 A 
HETATM   17  C   UNL     1     -43.227  58.941 -51.137  1.00  0.00     0.001 A 
HETATM   18  C   UNL     1     -42.160  59.761 -50.780  1.00  0.00     0.000 A 
HETATM   19  C   UNL     1     -40.881  59.469 -51.242  1.00  0.00     0.001 A 
HETATM   20  C   UNL     1     -40.677  58.360 -52.067  1.00  0.00     0.014 A 
ENDBRANCH  11  15
BRANCH  13  21
HETATM   21  C   UNL     1     -40.477  52.981 -53.424  1.00  0.00     0.058 A 
HETATM   22  C   UNL     1     -40.061  52.643 -52.127  1.00  0.00     0.031 A 
HETATM   23  C   UNL     1     -39.658  51.338 -51.835  1.00  0.00     0.002 A 
HETATM   24  C   UNL     1     -39.664  50.365 -52.833  1.00  0.00     0.000 A 
HETATM   25  C   UNL     1     -40.072  50.694 -54.125  1.00  0.00     0.002 A 
HETATM   26  C   UNL     1     -40.480  51.996 -54.424  1.00  0.00     0.031 A 
ENDBRANCH  13  21
ENDBRANCH   7  10
BRANCH   1  27
HETATM   27  C   UNL     1     -42.738  59.443 -56.239  1.00  0.00     0.270 C 
HETATM   28  O   UNL     1     -42.752  60.521 -55.660  1.00  0.00    -0.265 OA
BRANCH  27  29
HETATM   29  O   UNL     1     -42.467  59.274 -57.557  1.00  0.00    -0.321 OA
BRANCH  29  30
HETATM   30  C   UNL     1     -41.690  60.299 -58.200  1.00  0.00     0.174 C 
HETATM   31  C   UNL     1     -42.036  60.390 -59.674  1.00  0.00     0.034 C 
ENDBRANCH  29  30
ENDBRANCH  27  29
ENDBRANCH   1  27
BRANCH   2  32
HETATM   32  O   UNL     1     -44.547  56.461 -54.848  1.00  0.00    -0.363 OA
HETATM   33  H   UNL     1     -45.231  56.830 -54.262  1.00  0.00     0.213 HD
ENDBRANCH   2  32
BRANCH   2  34
HETATM   34  C   UNL     1     -45.477  58.471 -55.849  1.00  0.00     0.439 C 
HETATM   35  F   UNL     1     -46.672  57.848 -55.939  1.00  0.00    -0.166 F 
HETATM   36  F   UNL     1     -45.500  59.254 -54.754  1.00  0.00    -0.166 F 
HETATM   37  F   UNL     1     -45.371  59.299 -56.923  1.00  0.00    -0.166 F 
ENDBRANCH   2  34
TORSDOF 8
ENDMDL
MODEL 6
REMARK VINA RESULT:      -7.2      2.894      6.461
REMARK  8 active torsions:
REMARK  status: ('A' for Active; 'I' for Inactive)
REMARK    1  A    between atoms: C_2  and  O_3 
REMARK    2  A    between atoms: O_3  and  C_4 
REMARK    3  A    between atoms: C_4  and  C_5 
REMARK    4  A    between atoms: C_6  and  O_7 
REMARK    5  A    between atoms: C_6  and  C_8 
REMARK    6  A    between atoms: C_16  and  C_17 
REMARK    7  A    between atoms: C_18  and  C_19 
REMARK    8  A    between atoms: N_26  and  C_27 
ROOT
HETATM    1  C   UNL     1     -42.040  55.863 -52.209  1.00  0.00     0.177 C 
HETATM    2  C   UNL     1     -43.501  55.531 -51.891  1.00  0.00     0.250 C 
HETATM    3  N   UNL     1     -44.287  56.711 -51.588  1.00  0.00    -0.303 N 
HETATM    4  C   UNL     1     -44.007  57.964 -52.001  1.00  0.00     0.319 C 
HETATM    5  O   UNL     1     -44.795  58.882 -51.808  1.00  0.00    -0.247 OA
HETATM    6  N   UNL     1     -42.819  58.168 -52.609  1.00  0.00    -0.333 N 
HETATM    7  C   UNL     1     -41.913  57.126 -53.061  1.00  0.00     0.142 C 
HETATM    8  H   UNL     1     -45.203  56.613 -51.166  1.00  0.00     0.167 HD
HETATM    9  H   UNL     1     -42.690  59.109 -52.961  1.00  0.00     0.165 HD
ENDROOT
BRANCH   7  10
HETATM   10  C   UNL     1     -42.136  56.916 -54.539  1.00  0.00     0.015 A 
HETATM   11  C   UNL     1     -41.892  55.760 -55.355  1.00  0.00     0.097 A 
HETATM   12  N   UNL     1     -42.223  56.008 -56.635  1.00  0.00    -0.167 NA
HETATM   13  N   UNL     1     -42.648  57.287 -56.679  1.00  0.00    -0.244 N 
HETATM   14  C   UNL     1     -42.594  57.863 -55.439  1.00  0.00     0.130 A 
BRANCH  11  15
HETATM   15  C   UNL     1     -41.336  54.438 -55.019  1.00  0.00    -0.005 A 
HETATM   16  C   UNL     1     -39.971  54.220 -54.800  1.00  0.00     0.014 A 
HETATM   17  C   UNL     1     -39.490  52.947 -54.470  1.00  0.00     0.001 A 
HETATM   18  C   UNL     1     -40.369  51.875 -54.341  1.00  0.00     0.000 A 
HETATM   19  C   UNL     1     -41.731  52.072 -54.540  1.00  0.00     0.001 A 
HETATM   20  C   UNL     1     -42.207  53.342 -54.877  1.00  0.00     0.014 A 
ENDBRANCH  11  15
BRANCH  13  21
HETATM   21  C   UNL     1     -43.062  57.885 -57.903  1.00  0.00     0.058 A 
HETATM   22  C   UNL     1     -42.127  58.585 -58.680  1.00  0.00     0.031 A 
HETATM   23  C   UNL     1     -42.516  59.178 -59.884  1.00  0.00     0.002 A 
HETATM   24  C   UNL     1     -43.837  59.081 -60.317  1.00  0.00     0.000 A 
HETATM   25  C   UNL     1     -44.772  58.391 -59.548  1.00  0.00     0.002 A 
HETATM   26  C   UNL     1     -44.391  57.791 -58.345  1.00  0.00     0.031 A 
ENDBRANCH  13  21
ENDBRANCH   7  10
BRANCH   1  27
HETATM   27  C   UNL     1     -41.169  56.031 -50.985  1.00  0.00     0.270 C 
HETATM   28  O   UNL     1     -41.277  56.986 -50.225  1.00  0.00    -0.265 OA
BRANCH  27  29
HETATM   29  O   UNL     1     -40.320  54.990 -50.805  1.00  0.00    -0.321 OA
BRANCH  29  30
HETATM   30  C   UNL     1     -39.927  54.694 -49.455  1.00  0.00     0.174 C 
HETATM   31  C   UNL     1     -40.374  53.300 -49.059  1.00  0.00     0.034 C 
ENDBRANCH  29  30
ENDBRANCH  27  29
ENDBRANCH   1  27
BRANCH   2  32
HETATM   32  O   UNL     1     -44.105  55.014 -53.094  1.00  0.00    -0.363 OA
HETATM   33  H   UNL     1     -44.190  55.762 -53.711  1.00  0.00     0.213 HD
ENDBRANCH   2  32
BRANCH   2  34
HETATM   34  C   UNL     1     -43.612  54.422 -50.787  1.00  0.00     0.439 C 
HETATM   35  F   UNL     1     -43.205  54.874 -49.582  1.00  0.00    -0.166 F 
HETATM   36  F   UNL     1     -44.857  53.929 -50.647  1.00  0.00    -0.166 F 
HETATM   37  F   UNL     1     -42.810  53.377 -51.120  1.00  0.00    -0.166 F 
ENDBRANCH   2  34
TORSDOF 8
ENDMDL
MODEL 7
REMARK VINA RESULT:      -7.1      2.474      6.126
REMARK  8 active torsions:
REMARK  status: ('A' for Active; 'I' for Inactive)
REMARK    1  A    between atoms: C_2  and  O_3 
REMARK    2  A    between atoms: O_3  and  C_4 
REMARK    3  A    between atoms: C_4  and  C_5 
REMARK    4  A    between atoms: C_6  and  O_7 
REMARK    5  A    between atoms: C_6  and  C_8 
REMARK    6  A    between atoms: C_16  and  C_17 
REMARK    7  A    between atoms: C_18  and  C_19 
REMARK    8  A    between atoms: N_26  and  C_27 
ROOT
HETATM    1  C   UNL     1     -43.059  58.203 -52.803  1.00  0.00     0.177 C 
HETATM    2  C   UNL     1     -44.301  59.098 -52.749  1.00  0.00     0.250 C 
HETATM    3  N   UNL     1     -43.973  60.509 -52.822  1.00  0.00    -0.303 N 
HETATM    4  C   UNL     1     -42.855  61.025 -53.372  1.00  0.00     0.319 C 
HETATM    5  O   UNL     1     -42.720  62.235 -53.507  1.00  0.00    -0.247 OA
HETATM    6  N   UNL     1     -41.887  60.159 -53.740  1.00  0.00    -0.333 N 
HETATM    7  C   UNL     1     -42.028  58.715 -53.809  1.00  0.00     0.142 C 
HETATM    8  H   UNL     1     -44.675  61.203 -52.593  1.00  0.00     0.167 HD
HETATM    9  H   UNL     1     -41.100  60.592 -54.211  1.00  0.00     0.165 HD
ENDROOT
BRANCH   7  10
HETATM   10  C   UNL     1     -42.303  58.335 -55.244  1.00  0.00     0.015 A 
HETATM   11  C   UNL     1     -42.262  57.051 -55.885  1.00  0.00     0.097 A 
HETATM   12  N   UNL     1     -42.567  57.165 -57.189  1.00  0.00    -0.167 NA
HETATM   13  N   UNL     1     -42.780  58.476 -57.419  1.00  0.00    -0.244 N 
HETATM   14  C   UNL     1     -42.616  59.206 -56.274  1.00  0.00     0.130 A 
BRANCH  11  15
HETATM   15  C   UNL     1     -41.922  55.718 -55.359  1.00  0.00    -0.005 A 
HETATM   16  C   UNL     1     -40.683  55.422 -54.779  1.00  0.00     0.014 A 
HETATM   17  C   UNL     1     -40.410  54.141 -54.281  1.00  0.00     0.001 A 
HETATM   18  C   UNL     1     -41.377  53.142 -54.342  1.00  0.00     0.000 A 
HETATM   19  C   UNL     1     -42.620  53.419 -54.900  1.00  0.00     0.001 A 
HETATM   20  C   UNL     1     -42.887  54.695 -55.404  1.00  0.00     0.014 A 
ENDBRANCH  11  15
BRANCH  13  21
HETATM   21  C   UNL     1     -43.110  58.953 -58.719  1.00  0.00     0.058 A 
HETATM   22  C   UNL     1     -42.129  59.598 -59.488  1.00  0.00     0.031 A 
HETATM   23  C   UNL     1     -42.435  60.073 -60.765  1.00  0.00     0.002 A 
HETATM   24  C   UNL     1     -43.719  59.911 -61.282  1.00  0.00     0.000 A 
HETATM   25  C   UNL     1     -44.700  59.275 -60.524  1.00  0.00     0.002 A 
HETATM   26  C   UNL     1     -44.401  58.793 -59.246  1.00  0.00     0.031 A 
ENDBRANCH  13  21
ENDBRANCH   7  10
BRANCH   1  27
HETATM   27  C   UNL     1     -42.369  58.030 -51.469  1.00  0.00     0.270 C 
HETATM   28  O   UNL     1     -41.982  58.980 -50.799  1.00  0.00    -0.265 OA
BRANCH  27  29
HETATM   29  O   UNL     1     -42.293  56.731 -51.089  1.00  0.00    -0.321 OA
BRANCH  29  30
HETATM   30  C   UNL     1     -43.005  55.774 -51.891  1.00  0.00     0.174 C 
HETATM   31  C   UNL     1     -43.197  54.474 -51.132  1.00  0.00     0.034 C 
ENDBRANCH  29  30
ENDBRANCH  27  29
ENDBRANCH   1  27
BRANCH   2  32
HETATM   32  O   UNL     1     -45.065  58.859 -53.948  1.00  0.00    -0.363 OA
HETATM   33  H   UNL     1     -45.815  58.291 -53.696  1.00  0.00     0.213 HD
ENDBRANCH   2  32
BRANCH   2  34
HETATM   34  C   UNL     1     -45.213  58.745 -51.524  1.00  0.00     0.439 C 
HETATM   35  F   UNL     1     -45.481  57.423 -51.465  1.00  0.00    -0.166 F 
HETATM   36  F   UNL     1     -44.688  59.115 -50.340  1.00  0.00    -0.166 F 
HETATM   37  F   UNL     1     -46.401  59.393 -51.649  1.00  0.00    -0.166 F 
ENDBRANCH   2  34
TORSDOF 8
ENDMDL
MODEL 8
REMARK VINA RESULT:      -7.0      3.074      6.265
REMARK  8 active torsions:
REMARK  status: ('A' for Active; 'I' for Inactive)
REMARK    1  A    between atoms: C_2  and  O_3 
REMARK    2  A    between atoms: O_3  and  C_4 
REMARK    3  A    between atoms: C_4  and  C_5 
REMARK    4  A    between atoms: C_6  and  O_7 
REMARK    5  A    between atoms: C_6  and  C_8 
REMARK    6  A    between atoms: C_16  and  C_17 
REMARK    7  A    between atoms: C_18  and  C_19 
REMARK    8  A    between atoms: N_26  and  C_27 
ROOT
HETATM    1  C   UNL     1     -43.251  57.363 -57.224  1.00  0.00     0.177 C 
HETATM    2  C   UNL     1     -43.128  58.819 -57.683  1.00  0.00     0.250 C 
HETATM    3  N   UNL     1     -44.415  59.480 -57.788  1.00  0.00    -0.303 N 
HETATM    4  C   UNL     1     -45.532  59.128 -57.119  1.00  0.00     0.319 C 
HETATM    5  O   UNL     1     -46.540  59.821 -57.169  1.00  0.00    -0.247 OA
HETATM    6  N   UNL     1     -45.499  57.975 -56.417  1.00  0.00    -0.333 N 
HETATM    7  C   UNL     1     -44.308  57.195 -56.132  1.00  0.00     0.142 C 
HETATM    8  H   UNL     1     -44.489  60.367 -58.272  1.00  0.00     0.167 HD
HETATM    9  H   UNL     1     -46.338  57.795 -55.878  1.00  0.00     0.165 HD
ENDROOT
BRANCH   7  10
HETATM   10  C   UNL     1     -43.837  57.542 -54.740  1.00  0.00     0.015 A 
HETATM   11  C   UNL     1     -42.876  56.888 -53.898  1.00  0.00     0.097 A 
HETATM   12  N   UNL     1     -42.767  57.528 -52.721  1.00  0.00    -0.167 NA
HETATM   13  N   UNL     1     -43.638  58.556 -52.762  1.00  0.00    -0.244 N 
HETATM   14  C   UNL     1     -44.306  58.583 -53.955  1.00  0.00     0.130 A 
BRANCH  11  15
HETATM   15  C   UNL     1     -42.070  55.674 -54.113  1.00  0.00    -0.005 A 
HETATM   16  C   UNL     1     -40.890  55.668 -54.865  1.00  0.00     0.014 A 
HETATM   17  C   UNL     1     -40.149  54.491 -55.031  1.00  0.00     0.001 A 
HETATM   18  C   UNL     1     -40.571  53.305 -54.436  1.00  0.00     0.000 A 
HETATM   19  C   UNL     1     -41.733  53.292 -53.672  1.00  0.00     0.001 A 
HETATM   20  C   UNL     1     -42.474  54.466 -53.514  1.00  0.00     0.014 A 
ENDBRANCH  11  15
BRANCH  13  21
HETATM   21  C   UNL     1     -43.792  59.438 -51.655  1.00  0.00     0.058 A 
HETATM   22  C   UNL     1     -42.707  60.227 -51.245  1.00  0.00     0.031 A 
HETATM   23  C   UNL     1     -42.839  61.098 -50.161  1.00  0.00     0.002 A 
HETATM   24  C   UNL     1     -44.051  61.184 -49.477  1.00  0.00     0.000 A 
HETATM   25  C   UNL     1     -45.132  60.400 -49.875  1.00  0.00     0.002 A 
HETATM   26  C   UNL     1     -45.009  59.529 -50.962  1.00  0.00     0.031 A 
ENDBRANCH  13  21
ENDBRANCH   7  10
BRANCH   1  27
HETATM   27  C   UNL     1     -43.568  56.393 -58.339  1.00  0.00     0.270 C 
HETATM   28  O   UNL     1     -42.801  55.499 -58.672  1.00  0.00    -0.265 OA
BRANCH  27  29
HETATM   29  O   UNL     1     -44.802  56.592 -58.865  1.00  0.00    -0.321 OA
BRANCH  29  30
HETATM   30  C   UNL     1     -45.071  55.990 -60.142  1.00  0.00     0.174 C 
HETATM   31  C   UNL     1     -46.540  56.120 -60.498  1.00  0.00     0.034 C 
ENDBRANCH  29  30
ENDBRANCH  27  29
ENDBRANCH   1  27
BRANCH   2  32
HETATM   32  O   UNL     1     -42.448  59.551 -56.642  1.00  0.00    -0.363 OA
HETATM   33  H   UNL     1     -41.679  59.981 -57.056  1.00  0.00     0.213 HD
ENDBRANCH   2  32
BRANCH   2  34
HETATM   34  C   UNL     1     -42.269  58.941 -58.989  1.00  0.00     0.439 C 
HETATM   35  F   UNL     1     -41.241  58.065 -58.995  1.00  0.00    -0.166 F 
HETATM   36  F   UNL     1     -42.980  58.753 -60.117  1.00  0.00    -0.166 F 
HETATM   37  F   UNL     1     -41.738  60.190 -59.061  1.00  0.00    -0.166 F 
ENDBRANCH   2  34
TORSDOF 8
ENDMDL
MODEL 9
REMARK VINA RESULT:      -7.0      3.109      6.663
REMARK  8 active torsions:
REMARK  status: ('A' for Active; 'I' for Inactive)
REMARK    1  A    between atoms: C_2  and  O_3 
REMARK    2  A    between atoms: O_3  and  C_4 
REMARK    3  A    between atoms: C_4  and  C_5 
REMARK    4  A    between atoms: C_6  and  O_7 
REMARK    5  A    between atoms: C_6  and  C_8 
REMARK    6  A    between atoms: C_16  and  C_17 
REMARK    7  A    between atoms: C_18  and  C_19 
REMARK    8  A    between atoms: N_26  and  C_27 
ROOT
HETATM    1  C   UNL     1     -42.918  55.799 -52.688  1.00  0.00     0.177 C 
HETATM    2  C   UNL     1     -43.429  55.961 -51.254  1.00  0.00     0.250 C 
HETATM    3  N   UNL     1     -42.592  56.840 -50.460  1.00  0.00    -0.303 N 
HETATM    4  C   UNL     1     -41.788  57.806 -50.950  1.00  0.00     0.319 C 
HETATM    5  O   UNL     1     -41.215  58.588 -50.201  1.00  0.00    -0.247 OA
HETATM    6  N   UNL     1     -41.623  57.858 -52.289  1.00  0.00    -0.333 N 
HETATM    7  C   UNL     1     -42.404  57.118 -53.265  1.00  0.00     0.142 C 
HETATM    8  H   UNL     1     -42.701  56.868 -49.453  1.00  0.00     0.167 HD
HETATM    9  H   UNL     1     -41.068  58.644 -52.607  1.00  0.00     0.165 HD
ENDROOT
BRANCH   7  10
HETATM   10  C   UNL     1     -43.477  58.033 -53.803  1.00  0.00     0.015 A 
HETATM   11  C   UNL     1     -44.084  58.082 -55.103  1.00  0.00     0.097 A 
HETATM   12  N   UNL     1     -44.997  59.067 -55.161  1.00  0.00    -0.167 NA
HETATM   13  N   UNL     1     -44.986  59.670 -53.955  1.00  0.00    -0.244 N 
HETATM   14  C   UNL     1     -44.074  59.081 -53.122  1.00  0.00     0.130 A 
BRANCH  11  15
HETATM   15  C   UNL     1     -43.839  57.282 -56.315  1.00  0.00    -0.005 A 
HETATM   16  C   UNL     1     -43.114  56.086 -56.304  1.00  0.00     0.014 A 
HETATM   17  C   UNL     1     -42.918  55.351 -57.481  1.00  0.00     0.001 A 
HETATM   18  C   UNL     1     -43.458  55.796 -58.685  1.00  0.00     0.000 A 
HETATM   19  C   UNL     1     -44.195  56.975 -58.716  1.00  0.00     0.001 A 
HETATM   20  C   UNL     1     -44.382  57.709 -57.542  1.00  0.00     0.014 A 
ENDBRANCH  11  15
BRANCH  13  21
HETATM   21  C   UNL     1     -45.832  60.781 -53.678  1.00  0.00     0.058 A 
HETATM   22  C   UNL     1     -46.414  60.904 -52.407  1.00  0.00     0.031 A 
HETATM   23  C   UNL     1     -47.247  61.987 -52.117  1.00  0.00     0.002 A 
HETATM   24  C   UNL     1     -47.508  62.950 -53.091  1.00  0.00     0.000 A 
HETATM   25  C   UNL     1     -46.937  62.831 -54.357  1.00  0.00     0.002 A 
HETATM   26  C   UNL     1     -46.099  61.753 -54.654  1.00  0.00     0.031 A 
ENDBRANCH  13  21
ENDBRANCH   7  10
BRANCH   1  27
HETATM   27  C   UNL     1     -41.827  54.763 -52.837  1.00  0.00     0.270 C 
HETATM   28  O   UNL     1     -40.824  54.757 -52.135  1.00  0.00    -0.265 OA
BRANCH  27  29
HETATM   29  O   UNL     1     -42.121  53.831 -53.777  1.00  0.00    -0.321 OA
BRANCH  29  30
HETATM   30  C   UNL     1     -41.021  53.083 -54.320  1.00  0.00     0.174 C 
HETATM   31  C   UNL     1     -40.199  53.943 -55.262  1.00  0.00     0.034 C 
ENDBRANCH  29  30
ENDBRANCH  27  29
ENDBRANCH   1  27
BRANCH   2  32
HETATM   32  O   UNL     1     -44.694  56.651 -51.314  1.00  0.00    -0.363 OA
HETATM   33  H   UNL     1     -44.583  57.487 -50.828  1.00  0.00     0.213 HD
ENDBRANCH   2  32
BRANCH   2  34
HETATM   34  C   UNL     1     -43.677  54.571 -50.570  1.00  0.00     0.439 C 
HETATM   35  F   UNL     1     -44.789  54.582 -49.804  1.00  0.00    -0.166 F 
HETATM   36  F   UNL     1     -43.787  53.555 -51.446  1.00  0.00    -0.166 F 
HETATM   37  F   UNL     1     -42.628  54.279 -49.756  1.00  0.00    -0.166 F 
ENDBRANCH   2  34
TORSDOF 8
ENDMDL
MODEL 10
REMARK VINA RESULT:      -6.9      2.361      4.684
REMARK  8 active torsions:
REMARK  status: ('A' for Active; 'I' for Inactive)
REMARK    1  A    between atoms: C_2  and  O_3 
REMARK    2  A    between atoms: O_3  and  C_4 
REMARK    3  A    between atoms: C_4  and  C_5 
REMARK    4  A    between atoms: C_6  and  O_7 
REMARK    5  A    between atoms: C_6  and  C_8 
REMARK    6  A    between atoms: C_16  and  C_17 
REMARK    7  A    between atoms: C_18  and  C_19 
REMARK    8  A    between atoms: N_26  and  C_27 
ROOT
HETATM    1  C   UNL     1     -43.697  57.604 -56.700  1.00  0.00     0.177 C 
HETATM    2  C   UNL     1     -42.833  58.856 -56.524  1.00  0.00     0.250 C 
HETATM    3  N   UNL     1     -43.487  59.877 -55.729  1.00  0.00    -0.303 N 
HETATM    4  C   UNL     1     -44.459  59.656 -54.820  1.00  0.00     0.319 C 
HETATM    5  O   UNL     1     -44.865  60.560 -54.100  1.00  0.00    -0.247 OA
HETATM    6  N   UNL     1     -44.980  58.412 -54.756  1.00  0.00    -0.333 N 
HETATM    7  C   UNL     1     -44.439  57.236 -55.415  1.00  0.00     0.142 C 
HETATM    8  H   UNL     1     -43.115  60.819 -55.710  1.00  0.00     0.167 HD
HETATM    9  H   UNL     1     -45.655  58.283 -54.011  1.00  0.00     0.165 HD
ENDROOT
BRANCH   7  10
HETATM   10  C   UNL     1     -43.617  56.468 -54.408  1.00  0.00     0.015 A 
HETATM   11  C   UNL     1     -43.370  56.734 -53.020  1.00  0.00     0.097 A 
HETATM   12  N   UNL     1     -42.564  55.795 -52.495  1.00  0.00    -0.167 NA
HETATM   13  N   UNL     1     -42.262  54.946 -53.498  1.00  0.00    -0.244 N 
HETATM   14  C   UNL     1     -42.868  55.331 -54.663  1.00  0.00     0.130 A 
BRANCH  11  15
HETATM   15  C   UNL     1     -43.817  57.837 -52.152  1.00  0.00    -0.005 A 
HETATM   16  C   UNL     1     -45.105  57.904 -51.608  1.00  0.00     0.014 A 
HETATM   17  C   UNL     1     -45.481  58.967 -50.778  1.00  0.00     0.001 A 
HETATM   18  C   UNL     1     -44.570  59.973 -50.466  1.00  0.00     0.000 A 
HETATM   19  C   UNL     1     -43.280  59.918 -50.983  1.00  0.00     0.001 A 
HETATM   20  C   UNL     1     -42.910  58.860 -51.819  1.00  0.00     0.014 A 
ENDBRANCH  11  15
BRANCH  13  21
HETATM   21  C   UNL     1     -41.402  53.831 -53.288  1.00  0.00     0.058 A 
HETATM   22  C   UNL     1     -40.858  53.609 -52.013  1.00  0.00     0.031 A 
HETATM   23  C   UNL     1     -40.012  52.521 -51.789  1.00  0.00     0.002 A 
HETATM   24  C   UNL     1     -39.701  51.651 -52.832  1.00  0.00     0.000 A 
HETATM   25  C   UNL     1     -40.233  51.867 -54.101  1.00  0.00     0.002 A 
HETATM   26  C   UNL     1     -41.084  52.951 -54.333  1.00  0.00     0.031 A 
ENDBRANCH  13  21
ENDBRANCH   7  10
BRANCH   1  27
HETATM   27  C   UNL     1     -44.711  57.710 -57.815  1.00  0.00     0.270 C 
HETATM   28  O   UNL     1     -45.707  58.418 -57.735  1.00  0.00    -0.265 OA
BRANCH  27  29
HETATM   29  O   UNL     1     -44.357  56.991 -58.909  1.00  0.00    -0.321 OA
BRANCH  29  30
HETATM   30  C   UNL     1     -43.752  55.708 -58.678  1.00  0.00     0.174 C 
HETATM   31  C   UNL     1     -44.359  54.656 -59.587  1.00  0.00     0.034 C 
ENDBRANCH  29  30
ENDBRANCH  27  29
ENDBRANCH   1  27
BRANCH   2  32
HETATM   32  O   UNL     1     -41.683  58.488 -55.735  1.00  0.00    -0.363 OA
HETATM   33  H   UNL     1     -41.653  59.100 -54.978  1.00  0.00     0.213 HD
ENDBRANCH   2  32
BRANCH   2  34
HETATM   34  C   UNL     1     -42.313  59.395 -57.902  1.00  0.00     0.439 C 
HETATM   35  F   UNL     1     -41.750  58.415 -58.642  1.00  0.00    -0.166 F 
HETATM   36  F   UNL     1     -43.272  59.978 -58.646  1.00  0.00    -0.166 F 
HETATM   37  F   UNL     1     -41.357  60.336 -57.683  1.00  0.00    -0.166 F 
ENDBRANCH   2  34
TORSDOF 8
ENDMDL
