MODEL 1
REMARK VINA RESULT:      -7.9      0.000      0.000
REMARK  9 active torsions:
REMARK  status: ('A' for Active; 'I' for Inactive)
REMARK    1  A    between atoms: C_4  and  C_5 
REMARK    2  A    between atoms: C_6  and  N_7 
REMARK    3  A    between atoms: N_7  and  S_8 
REMARK    4  A    between atoms: C_17  and  C_18 
REMARK    5  A    between atoms: C_18  and  N_19 
REMARK    6  A    between atoms: N_19  and  C_21 
REMARK    7  A    between atoms: C_21  and  C_22 
REMARK    8  A    between atoms: C_24  and  C_25 
REMARK    9  A    between atoms: C_25  and  N_26 
ROOT
HETATM    1  C   UNL     1     -42.713  56.022 -56.539  1.00  0.00     0.079 C 
HETATM    2  C   UNL     1     -42.071  55.637 -55.268  1.00  0.00     0.078 A 
HETATM    3  O   UNL     1     -41.581  54.361 -55.177  1.00  0.00    -0.294 OA
HETATM    4  C   UNL     1     -41.078  54.265 -53.903  1.00  0.00     0.182 A 
HETATM    5  N   UNL     1     -41.175  55.391 -53.227  1.00  0.00    -0.224 NA
HETATM    6  C   UNL     1     -41.851  56.252 -54.058  1.00  0.00     0.092 A 
ENDROOT
BRANCH   6   7
HETATM    7  C   UNL     1     -42.257  57.578 -53.529  1.00  0.00     0.296 C 
BRANCH   7   8
HETATM    8  N   UNL     1     -41.286  58.666 -53.950  1.00  0.00    -0.065 N 
HETATM    9  H   UNL     1     -40.892  58.281 -54.832  1.00  0.00     0.280 HD
HETATM   10  C   UNL     1     -40.149  58.842 -53.008  1.00  0.00     0.270 C 
BRANCH   8  11
HETATM   11  C   UNL     1     -41.908  59.960 -54.420  1.00  0.00     0.280 C 
BRANCH  11  12
HETATM   12  C   UNL     1     -42.869  59.866 -55.574  1.00  0.00     0.009 A 
HETATM   13  S   UNL     1     -42.313  59.583 -57.171  1.00  0.00    -0.096 SA
HETATM   14  C   UNL     1     -43.910  59.439 -57.786  1.00  0.00     0.009 A 
HETATM   15  C   UNL     1     -44.847  59.672 -56.801  1.00  0.00     0.017 A 
HETATM   16  C   UNL     1     -44.250  59.899 -55.526  1.00  0.00     0.017 A 
BRANCH  14  17
HETATM   17  C   UNL     1     -44.148  59.090 -59.227  1.00  0.00     0.280 C 
BRANCH  17  18
HETATM   18  N   UNL     1     -44.568  57.648 -59.433  1.00  0.00    -0.067 N 
HETATM   19  H   UNL     1     -44.777  57.282 -58.495  1.00  0.00     0.280 HD
HETATM   20  C   UNL     1     -45.825  57.507 -60.264  1.00  0.00     0.235 C 
HETATM   21  C   UNL     1     -46.251  56.045 -60.285  1.00  0.00     0.028 C 
HETATM   22  C   UNL     1     -45.138  55.142 -60.804  1.00  0.00     0.003 C 
HETATM   23  C   UNL     1     -43.845  55.354 -60.024  1.00  0.00     0.028 C 
HETATM   24  C   UNL     1     -43.435  56.819 -59.996  1.00  0.00     0.235 C 
ENDBRANCH  17  18
ENDBRANCH  14  17
ENDBRANCH  11  12
ENDBRANCH   8  11
ENDBRANCH   7   8
ENDBRANCH   6   7
BRANCH   4  25
HETATM   25  C   UNL     1     -40.547  52.969 -53.483  1.00  0.00     0.044 A 
HETATM   26  C   UNL     1     -40.005  52.750 -52.196  1.00  0.00     0.057 A 
HETATM   27  C   UNL     1     -39.490  51.491 -51.852  1.00  0.00     0.031 A 
HETATM   28  C   UNL     1     -39.512  50.442 -52.768  1.00  0.00     0.002 A 
HETATM   29  C   UNL     1     -40.046  50.641 -54.036  1.00  0.00     0.001 A 
HETATM   30  C   UNL     1     -40.557  51.892 -54.390  1.00  0.00     0.018 A 
BRANCH  26  31
HETATM   31  N   UNL     1     -39.914  53.784 -51.203  1.00  0.00    -0.284 N 
HETATM   32  H   UNL     1     -38.968  53.966 -50.866  1.00  0.00     0.178 HD
BRANCH  31  33
HETATM   33  S   UNL     1     -41.060  53.851 -49.968  1.00  0.00     0.227 S 
HETATM   34  C   UNL     1     -41.149  55.591 -49.591  1.00  0.00     0.186 C 
HETATM   35  O   UNL     1     -42.309  53.458 -50.597  1.00  0.00    -0.206 OA
HETATM   36  O   UNL     1     -40.614  53.124 -48.801  1.00  0.00    -0.206 OA
ENDBRANCH  31  33
ENDBRANCH  26  31
ENDBRANCH   4  25
TORSDOF 9
ENDMDL
MODEL 2
REMARK VINA RESULT:      -7.7      2.947      7.630
REMARK  9 active torsions:
REMARK  status: ('A' for Active; 'I' for Inactive)
REMARK    1  A    between atoms: C_4  and  C_5 
REMARK    2  A    between atoms: C_6  and  N_7 
REMARK    3  A    between atoms: N_7  and  S_8 
REMARK    4  A    between atoms: C_17  and  C_18 
REMARK    5  A    between atoms: C_18  and  N_19 
REMARK    6  A    between atoms: N_19  and  C_21 
REMARK    7  A    between atoms: C_21  and  C_22 
REMARK    8  A    between atoms: C_24  and  C_25 
REMARK    9  A    between atoms: C_25  and  N_26 
ROOT
HETATM    1  C   UNL     1     -41.691  59.707 -57.649  1.00  0.00     0.079 C 
HETATM    2  C   UNL     1     -42.149  59.215 -56.337  1.00  0.00     0.078 A 
HETATM    3  O   UNL     1     -41.469  59.655 -55.233  1.00  0.00    -0.294 OA
HETATM    4  C   UNL     1     -42.074  59.029 -54.170  1.00  0.00     0.182 A 
HETATM    5  N   UNL     1     -43.098  58.284 -54.531  1.00  0.00    -0.224 NA
HETATM    6  C   UNL     1     -43.124  58.348 -55.903  1.00  0.00     0.092 A 
ENDROOT
BRANCH   6   7
HETATM    7  C   UNL     1     -44.085  57.486 -56.637  1.00  0.00     0.296 C 
BRANCH   7   8
HETATM    8  N   UNL     1     -43.367  56.453 -57.487  1.00  0.00    -0.065 N 
HETATM    9  H   UNL     1     -42.378  56.770 -57.433  1.00  0.00     0.280 HD
HETATM   10  C   UNL     1     -43.757  56.493 -58.922  1.00  0.00     0.270 C 
BRANCH   8  11
HETATM   11  C   UNL     1     -43.285  55.061 -56.906  1.00  0.00     0.280 C 
BRANCH  11  12
HETATM   12  C   UNL     1     -42.321  54.862 -55.768  1.00  0.00     0.009 A 
HETATM   13  S   UNL     1     -42.638  53.724 -54.526  1.00  0.00    -0.096 SA
HETATM   14  C   UNL     1     -41.100  53.966 -53.802  1.00  0.00     0.009 A 
HETATM   15  C   UNL     1     -40.389  54.949 -54.459  1.00  0.00     0.017 A 
HETATM   16  C   UNL     1     -41.082  55.451 -55.598  1.00  0.00     0.017 A 
BRANCH  14  17
HETATM   17  C   UNL     1     -40.674  53.152 -52.613  1.00  0.00     0.280 C 
BRANCH  17  18
HETATM   18  N   UNL     1     -40.499  53.977 -51.353  1.00  0.00    -0.067 N 
HETATM   19  H   UNL     1     -39.637  54.519 -51.493  1.00  0.00     0.280 HD
HETATM   20  C   UNL     1     -41.624  54.963 -51.126  1.00  0.00     0.235 C 
HETATM   21  C   UNL     1     -41.284  55.844 -49.932  1.00  0.00     0.028 C 
HETATM   22  C   UNL     1     -41.011  55.017 -48.682  1.00  0.00     0.003 C 
HETATM   23  C   UNL     1     -39.943  53.961 -48.940  1.00  0.00     0.028 C 
HETATM   24  C   UNL     1     -40.283  53.094 -50.144  1.00  0.00     0.235 C 
ENDBRANCH  17  18
ENDBRANCH  14  17
ENDBRANCH  11  12
ENDBRANCH   8  11
ENDBRANCH   7   8
ENDBRANCH   6   7
BRANCH   4  25
HETATM   25  C   UNL     1     -41.503  59.249 -52.842  1.00  0.00     0.044 A 
HETATM   26  C   UNL     1     -42.209  59.910 -51.812  1.00  0.00     0.057 A 
HETATM   27  C   UNL     1     -41.605  60.114 -50.561  1.00  0.00     0.031 A 
HETATM   28  C   UNL     1     -40.310  59.662 -50.318  1.00  0.00     0.002 A 
HETATM   29  C   UNL     1     -39.605  59.007 -51.321  1.00  0.00     0.001 A 
HETATM   30  C   UNL     1     -40.195  58.804 -52.570  1.00  0.00     0.018 A 
BRANCH  26  31
HETATM   31  N   UNL     1     -43.534  60.434 -51.987  1.00  0.00    -0.284 N 
HETATM   32  H   UNL     1     -43.643  61.412 -51.715  1.00  0.00     0.178 HD
BRANCH  31  33
HETATM   33  S   UNL     1     -44.863  59.493 -51.549  1.00  0.00     0.227 S 
HETATM   34  C   UNL     1     -45.433  60.268 -50.048  1.00  0.00     0.186 C 
HETATM   35  O   UNL     1     -45.849  59.735 -52.588  1.00  0.00    -0.206 OA
HETATM   36  O   UNL     1     -44.470  58.130 -51.272  1.00  0.00    -0.206 OA
ENDBRANCH  31  33
ENDBRANCH  26  31
ENDBRANCH   4  25
TORSDOF 9
ENDMDL
MODEL 3
REMARK VINA RESULT:      -7.6      1.848      2.828
REMARK  9 active torsions:
REMARK  status: ('A' for Active; 'I' for Inactive)
REMARK    1  A    between atoms: C_4  and  C_5 
REMARK    2  A    between atoms: C_6  and  N_7 
REMARK    3  A    between atoms: N_7  and  S_8 
REMARK    4  A    between atoms: C_17  and  C_18 
REMARK    5  A    between atoms: C_18  and  N_19 
REMARK    6  A    between atoms: N_19  and  C_21 
REMARK    7  A    between atoms: C_21  and  C_22 
REMARK    8  A    between atoms: C_24  and  C_25 
REMARK    9  A    between atoms: C_25  and  N_26 
ROOT
HETATM    1  C   UNL     1     -40.762  59.063 -50.113  1.00  0.00     0.079 C 
HETATM    2  C   UNL     1     -41.484  58.181 -51.048  1.00  0.00     0.078 A 
HETATM    3  O   UNL     1     -40.809  57.088 -51.523  1.00  0.00    -0.294 OA
HETATM    4  C   UNL     1     -41.689  56.473 -52.380  1.00  0.00     0.182 A 
HETATM    5  N   UNL     1     -42.860  57.072 -52.428  1.00  0.00    -0.224 NA
HETATM    6  C   UNL     1     -42.728  58.185 -51.633  1.00  0.00     0.092 A 
ENDROOT
BRANCH   6   7
HETATM    7  C   UNL     1     -43.842  59.166 -51.593  1.00  0.00     0.296 C 
BRANCH   7   8
HETATM    8  N   UNL     1     -43.667  60.248 -52.643  1.00  0.00    -0.065 N 
HETATM    9  H   UNL     1     -42.726  60.033 -53.028  1.00  0.00     0.280 HD
HETATM   10  C   UNL     1     -43.599  61.620 -52.073  1.00  0.00     0.270 C 
BRANCH   8  11
HETATM   11  C   UNL     1     -44.544  60.129 -53.867  1.00  0.00     0.280 C 
BRANCH  11  12
HETATM   12  C   UNL     1     -43.908  59.538 -55.096  1.00  0.00     0.009 A 
HETATM   13  S   UNL     1     -44.825  59.241 -56.513  1.00  0.00    -0.096 SA
HETATM   14  C   UNL     1     -43.435  58.788 -57.414  1.00  0.00     0.009 A 
HETATM   15  C   UNL     1     -42.304  58.798 -56.624  1.00  0.00     0.017 A 
HETATM   16  C   UNL     1     -42.572  59.246 -55.298  1.00  0.00     0.017 A 
BRANCH  14  17
HETATM   17  C   UNL     1     -43.542  58.453 -58.874  1.00  0.00     0.280 C 
BRANCH  17  18
HETATM   18  N   UNL     1     -44.273  57.151 -59.138  1.00  0.00    -0.067 N 
HETATM   19  H   UNL     1     -44.725  56.900 -58.249  1.00  0.00     0.280 HD
HETATM   20  C   UNL     1     -45.364  57.282 -60.179  1.00  0.00     0.235 C 
HETATM   21  C   UNL     1     -46.137  55.972 -60.262  1.00  0.00     0.028 C 
HETATM   22  C   UNL     1     -45.219  54.795 -60.566  1.00  0.00     0.003 C 
HETATM   23  C   UNL     1     -44.066  54.721 -59.570  1.00  0.00     0.028 C 
HETATM   24  C   UNL     1     -43.308  56.038 -59.482  1.00  0.00     0.235 C 
ENDBRANCH  17  18
ENDBRANCH  14  17
ENDBRANCH  11  12
ENDBRANCH   8  11
ENDBRANCH   7   8
ENDBRANCH   6   7
BRANCH   4  25
HETATM   25  C   UNL     1     -41.211  55.299 -53.110  1.00  0.00     0.044 A 
HETATM   26  C   UNL     1     -41.169  54.010 -52.532  1.00  0.00     0.057 A 
HETATM   27  C   UNL     1     -40.681  52.921 -53.271  1.00  0.00     0.031 A 
HETATM   28  C   UNL     1     -40.241  53.095 -54.581  1.00  0.00     0.002 A 
HETATM   29  C   UNL     1     -40.280  54.356 -55.164  1.00  0.00     0.001 A 
HETATM   30  C   UNL     1     -40.758  55.447 -54.435  1.00  0.00     0.018 A 
BRANCH  26  31
HETATM   31  N   UNL     1     -41.574  53.749 -51.179  1.00  0.00    -0.284 N 
HETATM   32  H   UNL     1     -42.396  54.272 -50.875  1.00  0.00     0.178 HD
BRANCH  31  33
HETATM   33  S   UNL     1     -40.405  53.627 -49.972  1.00  0.00     0.227 S 
HETATM   34  C   UNL     1     -41.030  54.699 -48.691  1.00  0.00     0.186 C 
HETATM   35  O   UNL     1     -40.497  52.256 -49.501  1.00  0.00    -0.206 OA
HETATM   36  O   UNL     1     -39.125  54.117 -50.432  1.00  0.00    -0.206 OA
ENDBRANCH  31  33
ENDBRANCH  26  31
ENDBRANCH   4  25
TORSDOF 9
ENDMDL
MODEL 4
REMARK VINA RESULT:      -7.6      3.361      9.248
REMARK  9 active torsions:
REMARK  status: ('A' for Active; 'I' for Inactive)
REMARK    1  A    between atoms: C_4  and  C_5 
REMARK    2  A    between atoms: C_6  and  N_7 
REMARK    3  A    between atoms: N_7  and  S_8 
REMARK    4  A    between atoms: C_17  and  C_18 
REMARK    5  A    between atoms: C_18  and  N_19 
REMARK    6  A    between atoms: N_19  and  C_21 
REMARK    7  A    between atoms: C_21  and  C_22 
REMARK    8  A    between atoms: C_24  and  C_25 
REMARK    9  A    between atoms: C_25  and  N_26 
ROOT
HETATM    1  C   UNL     1     -43.398  61.192 -58.043  1.00  0.00     0.079 C 
HETATM    2  C   UNL     1     -44.293  60.021 -58.065  1.00  0.00     0.078 A 
HETATM    3  O   UNL     1     -44.947  59.757 -59.240  1.00  0.00    -0.294 OA
HETATM    4  C   UNL     1     -45.722  58.654 -58.973  1.00  0.00     0.182 A 
HETATM    5  N   UNL     1     -45.557  58.195 -57.750  1.00  0.00    -0.224 NA
HETATM    6  C   UNL     1     -44.698  59.082 -57.146  1.00  0.00     0.092 A 
ENDROOT
BRANCH   6   7
HETATM    7  C   UNL     1     -44.422  58.928 -55.696  1.00  0.00     0.296 C 
BRANCH   7   8
HETATM    8  N   UNL     1     -43.009  58.433 -55.448  1.00  0.00    -0.065 N 
HETATM    9  H   UNL     1     -43.105  57.935 -54.540  1.00  0.00     0.280 HD
HETATM   10  C   UNL     1     -42.025  59.529 -55.239  1.00  0.00     0.270 C 
BRANCH   8  11
HETATM   11  C   UNL     1     -42.525  57.332 -56.362  1.00  0.00     0.280 C 
BRANCH  11  12
HETATM   12  C   UNL     1     -42.263  55.994 -55.725  1.00  0.00     0.009 A 
HETATM   13  S   UNL     1     -41.040  55.800 -54.540  1.00  0.00    -0.096 SA
HETATM   14  C   UNL     1     -41.491  54.173 -54.226  1.00  0.00     0.009 A 
HETATM   15  C   UNL     1     -42.512  53.768 -55.062  1.00  0.00     0.017 A 
HETATM   16  C   UNL     1     -42.968  54.819 -55.910  1.00  0.00     0.017 A 
BRANCH  14  17
HETATM   17  C   UNL     1     -40.806  53.381 -53.149  1.00  0.00     0.280 C 
BRANCH  17  18
HETATM   18  N   UNL     1     -40.780  54.089 -51.809  1.00  0.00    -0.067 N 
HETATM   19  H   UNL     1     -40.459  55.046 -52.006  1.00  0.00     0.280 HD
HETATM   20  C   UNL     1     -42.144  54.192 -51.163  1.00  0.00     0.235 C 
HETATM   21  C   UNL     1     -42.041  55.047 -49.907  1.00  0.00     0.028 C 
HETATM   22  C   UNL     1     -41.007  54.495 -48.933  1.00  0.00     0.003 C 
HETATM   23  C   UNL     1     -39.655  54.303 -49.612  1.00  0.00     0.028 C 
HETATM   24  C   UNL     1     -39.770  53.460 -50.874  1.00  0.00     0.235 C 
ENDBRANCH  17  18
ENDBRANCH  14  17
ENDBRANCH  11  12
ENDBRANCH   8  11
ENDBRANCH   7   8
ENDBRANCH   6   7
BRANCH   4  25
HETATM   25  C   UNL     1     -46.606  58.178 -60.036  1.00  0.00     0.044 A 
HETATM   26  C   UNL     1     -46.796  56.805 -60.308  1.00  0.00     0.057 A 
HETATM   27  C   UNL     1     -47.641  56.402 -61.355  1.00  0.00     0.031 A 
HETATM   28  C   UNL     1     -48.305  57.349 -62.132  1.00  0.00     0.002 A 
HETATM   29  C   UNL     1     -48.131  58.704 -61.873  1.00  0.00     0.001 A 
HETATM   30  C   UNL     1     -47.289  59.113 -60.838  1.00  0.00     0.018 A 
BRANCH  26  31
HETATM   31  N   UNL     1     -46.127  55.765 -59.577  1.00  0.00    -0.284 N 
HETATM   32  H   UNL     1     -45.972  55.973 -58.590  1.00  0.00     0.178 HD
BRANCH  31  33
HETATM   33  S   UNL     1     -44.818  54.968 -60.279  1.00  0.00     0.227 S 
HETATM   34  C   UNL     1     -43.442  56.040 -59.905  1.00  0.00     0.186 C 
HETATM   35  O   UNL     1     -44.666  53.748 -59.506  1.00  0.00    -0.206 OA
HETATM   36  O   UNL     1     -44.976  54.865 -61.712  1.00  0.00    -0.206 OA
ENDBRANCH  31  33
ENDBRANCH  26  31
ENDBRANCH   4  25
TORSDOF 9
ENDMDL
MODEL 5
REMARK VINA RESULT:      -7.5      2.699      5.544
REMARK  9 active torsions:
REMARK  status: ('A' for Active; 'I' for Inactive)
REMARK    1  A    between atoms: C_4  and  C_5 
REMARK    2  A    between atoms: C_6  and  N_7 
REMARK    3  A    between atoms: N_7  and  S_8 
REMARK    4  A    between atoms: C_17  and  C_18 
REMARK    5  A    between atoms: C_18  and  N_19 
REMARK    6  A    between atoms: N_19  and  C_21 
REMARK    7  A    between atoms: C_21  and  C_22 
REMARK    8  A    between atoms: C_24  and  C_25 
REMARK    9  A    between atoms: C_25  and  N_26 
ROOT
HETATM    1  C   UNL     1     -44.757  56.587 -54.439  1.00  0.00     0.079 C 
HETATM    2  C   UNL     1     -43.579  55.799 -54.845  1.00  0.00     0.078 A 
HETATM    3  O   UNL     1     -43.048  54.946 -53.915  1.00  0.00    -0.294 OA
HETATM    4  C   UNL     1     -41.963  54.375 -54.536  1.00  0.00     0.182 A 
HETATM    5  N   UNL     1     -41.820  54.772 -55.783  1.00  0.00    -0.224 NA
HETATM    6  C   UNL     1     -42.801  55.714 -55.976  1.00  0.00     0.092 A 
ENDROOT
BRANCH   6   7
HETATM    7  C   UNL     1     -42.818  56.473 -57.252  1.00  0.00     0.296 C 
BRANCH   7   8
HETATM    8  N   UNL     1     -43.134  57.940 -57.023  1.00  0.00    -0.065 N 
HETATM    9  H   UNL     1     -43.766  57.904 -56.198  1.00  0.00     0.280 HD
HETATM   10  C   UNL     1     -43.906  58.559 -58.133  1.00  0.00     0.270 C 
BRANCH   8  11
HETATM   11  C   UNL     1     -41.995  58.789 -56.511  1.00  0.00     0.280 C 
BRANCH  11  12
HETATM   12  C   UNL     1     -42.188  59.437 -55.166  1.00  0.00     0.009 A 
HETATM   13  S   UNL     1     -41.713  58.643 -53.723  1.00  0.00    -0.096 SA
HETATM   14  C   UNL     1     -42.072  60.015 -52.756  1.00  0.00     0.009 A 
HETATM   15  C   UNL     1     -42.610  61.034 -53.516  1.00  0.00     0.017 A 
HETATM   16  C   UNL     1     -42.660  60.709 -54.902  1.00  0.00     0.017 A 
BRANCH  14  17
HETATM   17  C   UNL     1     -41.788  60.010 -51.281  1.00  0.00     0.280 C 
BRANCH  17  18
HETATM   18  N   UNL     1     -43.034  60.164 -50.431  1.00  0.00    -0.067 N 
HETATM   19  H   UNL     1     -42.862  59.608 -49.583  1.00  0.00     0.280 HD
HETATM   20  C   UNL     1     -43.284  61.590 -49.994  1.00  0.00     0.235 C 
HETATM   21  C   UNL     1     -44.459  61.619 -49.025  1.00  0.00     0.028 C 
HETATM   22  C   UNL     1     -45.709  60.999 -49.637  1.00  0.00     0.003 C 
HETATM   23  C   UNL     1     -45.429  59.595 -50.162  1.00  0.00     0.028 C 
HETATM   24  C   UNL     1     -44.245  59.573 -51.118  1.00  0.00     0.235 C 
ENDBRANCH  17  18
ENDBRANCH  14  17
ENDBRANCH  11  12
ENDBRANCH   8  11
ENDBRANCH   7   8
ENDBRANCH   6   7
BRANCH   4  25
HETATM   25  C   UNL     1     -41.138  53.461 -53.748  1.00  0.00     0.044 A 
HETATM   26  C   UNL     1     -40.674  53.782 -52.452  1.00  0.00     0.057 A 
HETATM   27  C   UNL     1     -39.867  52.876 -51.747  1.00  0.00     0.031 A 
HETATM   28  C   UNL     1     -39.519  51.650 -52.310  1.00  0.00     0.002 A 
HETATM   29  C   UNL     1     -39.972  51.319 -53.582  1.00  0.00     0.001 A 
HETATM   30  C   UNL     1     -40.771  52.216 -54.294  1.00  0.00     0.018 A 
BRANCH  26  31
HETATM   31  N   UNL     1     -40.959  55.035 -51.810  1.00  0.00    -0.284 N 
HETATM   32  H   UNL     1     -40.134  55.590 -51.578  1.00  0.00     0.178 HD
BRANCH  31  33
HETATM   33  S   UNL     1     -42.137  55.102 -50.607  1.00  0.00     0.227 S 
HETATM   34  C   UNL     1     -41.192  54.940 -49.103  1.00  0.00     0.186 C 
HETATM   35  O   UNL     1     -42.659  56.456 -50.672  1.00  0.00    -0.206 OA
HETATM   36  O   UNL     1     -43.063  53.998 -50.719  1.00  0.00    -0.206 OA
ENDBRANCH  31  33
ENDBRANCH  26  31
ENDBRANCH   4  25
TORSDOF 9
ENDMDL
MODEL 6
REMARK VINA RESULT:      -7.4      3.384      7.808
REMARK  9 active torsions:
REMARK  status: ('A' for Active; 'I' for Inactive)
REMARK    1  A    between atoms: C_4  and  C_5 
REMARK    2  A    between atoms: C_6  and  N_7 
REMARK    3  A    between atoms: N_7  and  S_8 
REMARK    4  A    between atoms: C_17  and  C_18 
REMARK    5  A    between atoms: C_18  and  N_19 
REMARK    6  A    between atoms: N_19  and  C_21 
REMARK    7  A    between atoms: C_21  and  C_22 
REMARK    8  A    between atoms: C_24  and  C_25 
REMARK    9  A    between atoms: C_25  and  N_26 
ROOT
HETATM    1  C   UNL     1     -42.208  60.648 -57.156  1.00  0.00     0.079 C 
HETATM    2  C   UNL     1     -42.317  59.767 -55.979  1.00  0.00     0.078 A 
HETATM    3  O   UNL     1     -41.669  60.163 -54.840  1.00  0.00    -0.294 OA
HETATM    4  C   UNL     1     -41.907  59.161 -53.930  1.00  0.00     0.182 A 
HETATM    5  N   UNL     1     -42.687  58.213 -54.405  1.00  0.00    -0.224 NA
HETATM    6  C   UNL     1     -42.910  58.554 -55.717  1.00  0.00     0.092 A 
ENDROOT
BRANCH   6   7
HETATM    7  C   UNL     1     -43.642  57.598 -56.585  1.00  0.00     0.296 C 
BRANCH   7   8
HETATM    8  N   UNL     1     -42.691  56.667 -57.314  1.00  0.00    -0.065 N 
HETATM    9  H   UNL     1     -41.782  56.873 -56.852  1.00  0.00     0.280 HD
HETATM   10  C   UNL     1     -42.528  56.996 -58.755  1.00  0.00     0.270 C 
BRANCH   8  11
HETATM   11  C   UNL     1     -42.862  55.193 -57.031  1.00  0.00     0.280 C 
BRANCH  11  12
HETATM   12  C   UNL     1     -42.609  54.745 -55.616  1.00  0.00     0.009 A 
HETATM   13  S   UNL     1     -41.028  54.356 -55.080  1.00  0.00    -0.096 SA
HETATM   14  C   UNL     1     -41.545  54.148 -53.455  1.00  0.00     0.009 A 
HETATM   15  C   UNL     1     -42.911  54.307 -53.342  1.00  0.00     0.017 A 
HETATM   16  C   UNL     1     -43.520  54.667 -54.580  1.00  0.00     0.017 A 
BRANCH  14  17
HETATM   17  C   UNL     1     -40.554  53.846 -52.367  1.00  0.00     0.280 C 
BRANCH  17  18
HETATM   18  N   UNL     1     -40.488  52.374 -52.009  1.00  0.00    -0.067 N 
HETATM   19  H   UNL     1     -41.437  52.008 -52.163  1.00  0.00     0.280 HD
HETATM   20  C   UNL     1     -39.549  51.587 -52.896  1.00  0.00     0.235 C 
HETATM   21  C   UNL     1     -39.667  50.106 -52.562  1.00  0.00     0.028 C 
HETATM   22  C   UNL     1     -39.393  49.838 -51.087  1.00  0.00     0.003 C 
HETATM   23  C   UNL     1     -40.276  50.702 -50.194  1.00  0.00     0.028 C 
HETATM   24  C   UNL     1     -40.163  52.179 -50.544  1.00  0.00     0.235 C 
ENDBRANCH  17  18
ENDBRANCH  14  17
ENDBRANCH  11  12
ENDBRANCH   8  11
ENDBRANCH   7   8
ENDBRANCH   6   7
BRANCH   4  25
HETATM   25  C   UNL     1     -41.264  59.272 -52.621  1.00  0.00     0.044 A 
HETATM   26  C   UNL     1     -41.982  59.595 -51.447  1.00  0.00     0.057 A 
HETATM   27  C   UNL     1     -41.313  59.710 -50.219  1.00  0.00     0.031 A 
HETATM   28  C   UNL     1     -39.938  59.499 -50.140  1.00  0.00     0.002 A 
HETATM   29  C   UNL     1     -39.219  59.175 -51.286  1.00  0.00     0.001 A 
HETATM   30  C   UNL     1     -39.876  59.065 -52.513  1.00  0.00     0.018 A 
BRANCH  26  31
HETATM   31  N   UNL     1     -43.394  59.859 -51.445  1.00  0.00    -0.284 N 
HETATM   32  H   UNL     1     -43.945  59.224 -52.023  1.00  0.00     0.178 HD
BRANCH  31  33
HETATM   33  S   UNL     1     -43.941  61.451 -51.538  1.00  0.00     0.227 S 
HETATM   34  C   UNL     1     -45.547  61.285 -52.295  1.00  0.00     0.186 C 
HETATM   35  O   UNL     1     -44.130  61.861 -50.158  1.00  0.00    -0.206 OA
HETATM   36  O   UNL     1     -43.085  62.249 -52.386  1.00  0.00    -0.206 OA
ENDBRANCH  31  33
ENDBRANCH  26  31
ENDBRANCH   4  25
TORSDOF 9
ENDMDL
MODEL 7
REMARK VINA RESULT:      -7.4      4.198      7.035
REMARK  9 active torsions:
REMARK  status: ('A' for Active; 'I' for Inactive)
REMARK    1  A    between atoms: C_4  and  C_5 
REMARK    2  A    between atoms: C_6  and  N_7 
REMARK    3  A    between atoms: N_7  and  S_8 
REMARK    4  A    between atoms: C_17  and  C_18 
REMARK    5  A    between atoms: C_18  and  N_19 
REMARK    6  A    between atoms: N_19  and  C_21 
REMARK    7  A    between atoms: C_21  and  C_22 
REMARK    8  A    between atoms: C_24  and  C_25 
REMARK    9  A    between atoms: C_25  and  N_26 
ROOT
HETATM    1  C   UNL     1     -42.850  55.683 -57.028  1.00  0.00     0.079 C 
HETATM    2  C   UNL     1     -42.680  55.359 -55.599  1.00  0.00     0.078 A 
HETATM    3  O   UNL     1     -41.751  54.404 -55.282  1.00  0.00    -0.294 OA
HETATM    4  C   UNL     1     -41.823  54.281 -53.915  1.00  0.00     0.182 A 
HETATM    5  N   UNL     1     -42.682  55.117 -53.370  1.00  0.00    -0.224 NA
HETATM    6  C   UNL     1     -43.271  55.767 -54.427  1.00  0.00     0.092 A 
ENDROOT
BRANCH   6   7
HETATM    7  C   UNL     1     -44.407  56.684 -54.153  1.00  0.00     0.296 C 
BRANCH   7   8
HETATM    8  N   UNL     1     -43.954  58.132 -54.108  1.00  0.00    -0.065 N 
HETATM    9  H   UNL     1     -44.785  58.611 -53.705  1.00  0.00     0.280 HD
HETATM   10  C   UNL     1     -43.724  58.723 -55.453  1.00  0.00     0.270 C 
BRANCH   8  11
HETATM   11  C   UNL     1     -42.881  58.457 -53.096  1.00  0.00     0.280 C 
BRANCH  11  12
HETATM   12  C   UNL     1     -43.234  59.473 -52.043  1.00  0.00     0.009 A 
HETATM   13  S   UNL     1     -44.846  60.020 -51.843  1.00  0.00    -0.096 SA
HETATM   14  C   UNL     1     -44.448  60.930 -50.443  1.00  0.00     0.009 A 
HETATM   15  C   UNL     1     -43.095  60.871 -50.177  1.00  0.00     0.017 A 
HETATM   16  C   UNL     1     -42.401  60.020 -51.085  1.00  0.00     0.017 A 
BRANCH  14  17
HETATM   17  C   UNL     1     -45.513  61.654 -49.670  1.00  0.00     0.280 C 
BRANCH  17  18
HETATM   18  N   UNL     1     -45.100  61.989 -48.250  1.00  0.00    -0.067 N 
HETATM   19  H   UNL     1     -44.077  62.093 -48.275  1.00  0.00     0.280 HD
HETATM   20  C   UNL     1     -45.677  63.297 -47.755  1.00  0.00     0.235 C 
HETATM   21  C   UNL     1     -45.087  63.621 -46.389  1.00  0.00     0.028 C 
HETATM   22  C   UNL     1     -45.328  62.495 -45.390  1.00  0.00     0.003 C 
HETATM   23  C   UNL     1     -44.829  61.160 -45.932  1.00  0.00     0.028 C 
HETATM   24  C   UNL     1     -45.413  60.851 -47.303  1.00  0.00     0.235 C 
ENDBRANCH  17  18
ENDBRANCH  14  17
ENDBRANCH  11  12
ENDBRANCH   8  11
ENDBRANCH   7   8
ENDBRANCH   6   7
BRANCH   4  25
HETATM   25  C   UNL     1     -40.986  53.261 -53.285  1.00  0.00     0.044 A 
HETATM   26  C   UNL     1     -40.910  53.101 -51.883  1.00  0.00     0.057 A 
HETATM   27  C   UNL     1     -40.074  52.119 -51.329  1.00  0.00     0.031 A 
HETATM   28  C   UNL     1     -39.317  51.287 -52.152  1.00  0.00     0.002 A 
HETATM   29  C   UNL     1     -39.385  51.431 -53.533  1.00  0.00     0.001 A 
HETATM   30  C   UNL     1     -40.210  52.409 -54.093  1.00  0.00     0.018 A 
BRANCH  26  31
HETATM   31  N   UNL     1     -41.632  53.934 -50.962  1.00  0.00    -0.284 N 
HETATM   32  H   UNL     1     -42.408  54.451 -51.378  1.00  0.00     0.178 HD
BRANCH  31  33
HETATM   33  S   UNL     1     -40.782  54.848 -49.829  1.00  0.00     0.227 S 
HETATM   34  C   UNL     1     -41.125  56.527 -50.323  1.00  0.00     0.186 C 
HETATM   35  O   UNL     1     -41.458  54.599 -48.568  1.00  0.00    -0.206 OA
HETATM   36  O   UNL     1     -39.361  54.598 -49.915  1.00  0.00    -0.206 OA
ENDBRANCH  31  33
ENDBRANCH  26  31
ENDBRANCH   4  25
TORSDOF 9
ENDMDL
MODEL 8
REMARK VINA RESULT:      -7.2      3.363      8.891
REMARK  9 active torsions:
REMARK  status: ('A' for Active; 'I' for Inactive)
REMARK    1  A    between atoms: C_4  and  C_5 
REMARK    2  A    between atoms: C_6  and  N_7 
REMARK    3  A    between atoms: N_7  and  S_8 
REMARK    4  A    between atoms: C_17  and  C_18 
REMARK    5  A    between atoms: C_18  and  N_19 
REMARK    6  A    between atoms: N_19  and  C_21 
REMARK    7  A    between atoms: C_21  and  C_22 
REMARK    8  A    between atoms: C_24  and  C_25 
REMARK    9  A    between atoms: C_25  and  N_26 
ROOT
HETATM    1  C   UNL     1     -42.284  60.577 -59.138  1.00  0.00     0.079 C 
HETATM    2  C   UNL     1     -43.584  59.955 -58.825  1.00  0.00     0.078 A 
HETATM    3  O   UNL     1     -44.267  59.379 -59.863  1.00  0.00    -0.294 OA
HETATM    4  C   UNL     1     -45.434  58.915 -59.305  1.00  0.00     0.182 A 
HETATM    5  N   UNL     1     -45.495  59.116 -58.005  1.00  0.00    -0.224 NA
HETATM    6  C   UNL     1     -44.358  59.821 -57.696  1.00  0.00     0.092 A 
ENDROOT
BRANCH   6   7
HETATM    7  C   UNL     1     -44.196  60.339 -56.314  1.00  0.00     0.296 C 
BRANCH   7   8
HETATM    8  N   UNL     1     -43.985  59.212 -55.319  1.00  0.00    -0.065 N 
HETATM    9  H   UNL     1     -44.692  58.513 -55.624  1.00  0.00     0.280 HD
HETATM   10  C   UNL     1     -44.323  59.588 -53.920  1.00  0.00     0.270 C 
BRANCH   8  11
HETATM   11  C   UNL     1     -42.695  58.440 -55.459  1.00  0.00     0.280 C 
BRANCH  11  12
HETATM   12  C   UNL     1     -42.579  57.172 -54.658  1.00  0.00     0.009 A 
HETATM   13  S   UNL     1     -41.161  56.816 -53.762  1.00  0.00    -0.096 SA
HETATM   14  C   UNL     1     -41.863  55.417 -53.056  1.00  0.00     0.009 A 
HETATM   15  C   UNL     1     -43.131  55.191 -53.550  1.00  0.00     0.017 A 
HETATM   16  C   UNL     1     -43.550  56.208 -54.456  1.00  0.00     0.017 A 
BRANCH  14  17
HETATM   17  C   UNL     1     -41.112  54.616 -52.031  1.00  0.00     0.280 C 
BRANCH  17  18
HETATM   18  N   UNL     1     -40.839  53.190 -52.467  1.00  0.00    -0.067 N 
HETATM   19  H   UNL     1     -41.723  52.683 -52.332  1.00  0.00     0.280 HD
HETATM   20  C   UNL     1     -40.469  53.075 -53.930  1.00  0.00     0.235 C 
HETATM   21  C   UNL     1     -40.366  51.604 -54.307  1.00  0.00     0.028 C 
HETATM   22  C   UNL     1     -39.368  50.865 -53.424  1.00  0.00     0.003 C 
HETATM   23  C   UNL     1     -39.688  51.059 -51.946  1.00  0.00     0.028 C 
HETATM   24  C   UNL     1     -39.804  52.532 -51.581  1.00  0.00     0.235 C 
ENDBRANCH  17  18
ENDBRANCH  14  17
ENDBRANCH  11  12
ENDBRANCH   8  11
ENDBRANCH   7   8
ENDBRANCH   6   7
BRANCH   4  25
HETATM   25  C   UNL     1     -46.416  58.310 -60.203  1.00  0.00     0.044 A 
HETATM   26  C   UNL     1     -46.697  56.924 -60.198  1.00  0.00     0.057 A 
HETATM   27  C   UNL     1     -47.635  56.391 -61.096  1.00  0.00     0.031 A 
HETATM   28  C   UNL     1     -48.305  57.219 -61.995  1.00  0.00     0.002 A 
HETATM   29  C   UNL     1     -48.042  58.584 -62.008  1.00  0.00     0.001 A 
HETATM   30  C   UNL     1     -47.106  59.123 -61.122  1.00  0.00     0.018 A 
BRANCH  26  31
HETATM   31  N   UNL     1     -46.031  55.997 -59.328  1.00  0.00    -0.284 N 
HETATM   32  H   UNL     1     -46.050  56.254 -58.340  1.00  0.00     0.178 HD
BRANCH  31  33
HETATM   33  S   UNL     1     -44.550  55.339 -59.793  1.00  0.00     0.227 S 
HETATM   34  C   UNL     1     -43.425  55.955 -58.555  1.00  0.00     0.186 C 
HETATM   35  O   UNL     1     -44.701  53.908 -59.598  1.00  0.00    -0.206 OA
HETATM   36  O   UNL     1     -44.150  55.821 -61.095  1.00  0.00    -0.206 OA
ENDBRANCH  31  33
ENDBRANCH  26  31
ENDBRANCH   4  25
TORSDOF 9
ENDMDL
MODEL 9
REMARK VINA RESULT:      -7.2      2.926      8.203
REMARK  9 active torsions:
REMARK  status: ('A' for Active; 'I' for Inactive)
REMARK    1  A    between atoms: C_4  and  C_5 
REMARK    2  A    between atoms: C_6  and  N_7 
REMARK    3  A    between atoms: N_7  and  S_8 
REMARK    4  A    between atoms: C_17  and  C_18 
REMARK    5  A    between atoms: C_18  and  N_19 
REMARK    6  A    between atoms: N_19  and  C_21 
REMARK    7  A    between atoms: C_21  and  C_22 
REMARK    8  A    between atoms: C_24  and  C_25 
REMARK    9  A    between atoms: C_25  and  N_26 
ROOT
HETATM    1  C   UNL     1     -41.039  56.930 -54.208  1.00  0.00     0.079 C 
HETATM    2  C   UNL     1     -42.133  57.406 -55.075  1.00  0.00     0.078 A 
HETATM    3  O   UNL     1     -42.372  56.698 -56.223  1.00  0.00    -0.294 OA
HETATM    4  C   UNL     1     -43.400  57.366 -56.844  1.00  0.00     0.182 A 
HETATM    5  N   UNL     1     -43.840  58.391 -56.144  1.00  0.00    -0.224 NA
HETATM    6  C   UNL     1     -43.012  58.462 -55.050  1.00  0.00     0.092 A 
ENDROOT
BRANCH   6   7
HETATM    7  C   UNL     1     -43.152  59.616 -54.127  1.00  0.00     0.296 C 
BRANCH   7   8
HETATM    8  N   UNL     1     -43.948  59.245 -52.888  1.00  0.00    -0.065 N 
HETATM    9  H   UNL     1     -44.071  58.219 -53.004  1.00  0.00     0.280 HD
HETATM   10  C   UNL     1     -45.308  59.845 -52.857  1.00  0.00     0.270 C 
BRANCH   8  11
HETATM   11  C   UNL     1     -43.204  59.328 -51.576  1.00  0.00     0.280 C 
BRANCH  11  12
HETATM   12  C   UNL     1     -42.528  58.068 -51.104  1.00  0.00     0.009 A 
HETATM   13  S   UNL     1     -43.310  56.547 -51.217  1.00  0.00    -0.096 SA
HETATM   14  C   UNL     1     -41.911  55.700 -50.692  1.00  0.00     0.009 A 
HETATM   15  C   UNL     1     -40.891  56.573 -50.372  1.00  0.00     0.017 A 
HETATM   16  C   UNL     1     -41.239  57.932 -50.625  1.00  0.00     0.017 A 
BRANCH  14  17
HETATM   17  C   UNL     1     -41.899  54.200 -50.635  1.00  0.00     0.280 C 
BRANCH  17  18
HETATM   18  N   UNL     1     -40.913  53.571 -51.601  1.00  0.00    -0.067 N 
HETATM   19  H   UNL     1     -40.122  54.226 -51.656  1.00  0.00     0.280 HD
HETATM   20  C   UNL     1     -40.370  52.245 -51.117  1.00  0.00     0.235 C 
HETATM   21  C   UNL     1     -39.281  51.771 -52.071  1.00  0.00     0.028 C 
HETATM   22  C   UNL     1     -39.792  51.673 -53.504  1.00  0.00     0.003 C 
HETATM   23  C   UNL     1     -40.424  52.984 -53.957  1.00  0.00     0.028 C 
HETATM   24  C   UNL     1     -41.500  53.457 -52.990  1.00  0.00     0.235 C 
ENDBRANCH  17  18
ENDBRANCH  14  17
ENDBRANCH  11  12
ENDBRANCH   8  11
ENDBRANCH   7   8
ENDBRANCH   6   7
BRANCH   4  25
HETATM   25  C   UNL     1     -43.828  56.878 -58.154  1.00  0.00     0.044 A 
HETATM   26  C   UNL     1     -44.544  57.684 -59.068  1.00  0.00     0.057 A 
HETATM   27  C   UNL     1     -44.950  57.159 -60.304  1.00  0.00     0.031 A 
HETATM   28  C   UNL     1     -44.646  55.844 -60.649  1.00  0.00     0.002 A 
HETATM   29  C   UNL     1     -43.939  55.041 -59.762  1.00  0.00     0.001 A 
HETATM   30  C   UNL     1     -43.536  55.553 -58.527  1.00  0.00     0.018 A 
BRANCH  26  31
HETATM   31  N   UNL     1     -44.925  59.039 -58.780  1.00  0.00    -0.284 N 
HETATM   32  H   UNL     1     -44.308  59.523 -58.128  1.00  0.00     0.178 HD
BRANCH  31  33
HETATM   33  S   UNL     1     -46.550  59.407 -58.522  1.00  0.00     0.227 S 
HETATM   34  C   UNL     1     -47.152  57.984 -57.632  1.00  0.00     0.186 C 
HETATM   35  O   UNL     1     -46.535  60.539 -57.613  1.00  0.00    -0.206 OA
HETATM   36  O   UNL     1     -47.262  59.533 -59.773  1.00  0.00    -0.206 OA
ENDBRANCH  31  33
ENDBRANCH  26  31
ENDBRANCH   4  25
TORSDOF 9
ENDMDL
MODEL 10
REMARK VINA RESULT:      -7.1      3.329      8.276
REMARK  9 active torsions:
REMARK  status: ('A' for Active; 'I' for Inactive)
REMARK    1  A    between atoms: C_4  and  C_5 
REMARK    2  A    between atoms: C_6  and  N_7 
REMARK    3  A    between atoms: N_7  and  S_8 
REMARK    4  A    between atoms: C_17  and  C_18 
REMARK    5  A    between atoms: C_18  and  N_19 
REMARK    6  A    between atoms: N_19  and  C_21 
REMARK    7  A    between atoms: C_21  and  C_22 
REMARK    8  A    between atoms: C_24  and  C_25 
REMARK    9  A    between atoms: C_25  and  N_26 
ROOT
HETATM    1  C   UNL     1     -44.843  58.484 -54.671  1.00  0.00     0.079 C 
HETATM    2  C   UNL     1     -43.715  59.126 -55.372  1.00  0.00     0.078 A 
HETATM    3  O   UNL     1     -43.801  59.223 -56.735  1.00  0.00    -0.294 OA
HETATM    4  C   UNL     1     -42.626  59.820 -57.123  1.00  0.00     0.182 A 
HETATM    5  N   UNL     1     -41.854  60.139 -56.105  1.00  0.00    -0.224 NA
HETATM    6  C   UNL     1     -42.504  59.657 -54.995  1.00  0.00     0.092 A 
ENDROOT
BRANCH   6   7
HETATM    7  C   UNL     1     -41.815  59.726 -53.682  1.00  0.00     0.296 C 
BRANCH   7   8
HETATM    8  N   UNL     1     -42.762  60.164 -52.579  1.00  0.00    -0.065 N 
HETATM    9  H   UNL     1     -43.670  59.771 -52.898  1.00  0.00     0.280 HD
HETATM   10  C   UNL     1     -42.933  61.640 -52.498  1.00  0.00     0.270 C 
BRANCH   8  11
HETATM   11  C   UNL     1     -42.577  59.488 -51.241  1.00  0.00     0.280 C 
BRANCH  11  12
HETATM   12  C   UNL     1     -42.594  57.983 -51.240  1.00  0.00     0.009 A 
HETATM   13  S   UNL     1     -41.155  57.080 -51.012  1.00  0.00    -0.096 SA
HETATM   14  C   UNL     1     -42.004  55.589 -50.960  1.00  0.00     0.009 A 
HETATM   15  C   UNL     1     -43.353  55.775 -51.182  1.00  0.00     0.017 A 
HETATM   16  C   UNL     1     -43.695  57.151 -51.325  1.00  0.00     0.017 A 
BRANCH  14  17
HETATM   17  C   UNL     1     -41.279  54.302 -50.689  1.00  0.00     0.280 C 
BRANCH  17  18
HETATM   18  N   UNL     1     -40.701  53.665 -51.938  1.00  0.00    -0.067 N 
HETATM   19  H   UNL     1     -39.917  54.267 -52.220  1.00  0.00     0.280 HD
HETATM   20  C   UNL     1     -40.144  52.279 -51.696  1.00  0.00     0.235 C 
HETATM   21  C   UNL     1     -39.453  51.789 -52.961  1.00  0.00     0.028 C 
HETATM   22  C   UNL     1     -40.394  51.806 -54.159  1.00  0.00     0.003 C 
HETATM   23  C   UNL     1     -41.027  53.181 -54.345  1.00  0.00     0.028 C 
HETATM   24  C   UNL     1     -41.703  53.669 -53.072  1.00  0.00     0.235 C 
ENDBRANCH  17  18
ENDBRANCH  14  17
ENDBRANCH  11  12
ENDBRANCH   8  11
ENDBRANCH   7   8
ENDBRANCH   6   7
BRANCH   4  25
HETATM   25  C   UNL     1     -42.395  59.988 -58.557  1.00  0.00     0.044 A 
HETATM   26  C   UNL     1     -42.054  58.908 -59.403  1.00  0.00     0.057 A 
HETATM   27  C   UNL     1     -41.822  59.129 -60.770  1.00  0.00     0.031 A 
HETATM   28  C   UNL     1     -41.933  60.409 -61.309  1.00  0.00     0.002 A 
HETATM   29  C   UNL     1     -42.271  61.479 -60.489  1.00  0.00     0.001 A 
HETATM   30  C   UNL     1     -42.498  61.271 -59.127  1.00  0.00     0.018 A 
BRANCH  26  31
HETATM   31  N   UNL     1     -41.889  57.564 -58.924  1.00  0.00    -0.284 N 
HETATM   32  H   UNL     1     -40.987  57.142 -59.148  1.00  0.00     0.178 HD
BRANCH  31  33
HETATM   33  S   UNL     1     -43.164  56.471 -59.066  1.00  0.00     0.227 S 
HETATM   34  C   UNL     1     -43.145  55.620 -57.499  1.00  0.00     0.186 C 
HETATM   35  O   UNL     1     -44.358  57.296 -59.121  1.00  0.00    -0.206 OA
HETATM   36  O   UNL     1     -42.926  55.526 -60.134  1.00  0.00    -0.206 OA
ENDBRANCH  31  33
ENDBRANCH  26  31
ENDBRANCH   4  25
TORSDOF 9
ENDMDL
