MODEL 1
REMARK VINA RESULT:      -7.7      0.000      0.000
REMARK  3 active torsions:
REMARK  status: ('A' for Active; 'I' for Inactive)
REMARK    1  A    between atoms: C_3  and  N_4 
REMARK       I    between atoms: N_4  and  C_5 
REMARK       I    between atoms: C_5  and  N_6 
REMARK    2  A    between atoms: N_6  and  C_7 
REMARK    3  A    between atoms: C_15  and  C_16 
ROOT
HETATM    1  N   UNL     1     -41.037  54.496 -52.846  1.00  0.00    -0.309 N 
HETATM    2  C   UNL     1     -42.291  55.003 -53.034  1.00  0.00     0.326 C 
HETATM    3  N   UNL     1     -42.464  56.326 -52.733  1.00  0.00    -0.292 N 
HETATM    4  O   UNL     1     -43.271  54.387 -53.448  1.00  0.00    -0.247 OA
HETATM    5  H   UNL     1     -40.368  55.178 -52.499  1.00  0.00     0.170 HD
HETATM    6  H   UNL     1     -43.412  56.632 -52.897  1.00  0.00     0.172 HD
ENDROOT
BRANCH   1   7
HETATM    7  C   UNL     1     -40.572  53.189 -53.067  1.00  0.00     0.037 A 
HETATM    8  C   UNL     1     -40.278  52.666 -54.326  1.00  0.00     0.029 A 
HETATM    9  C   UNL     1     -39.820  51.352 -54.458  1.00  0.00     0.003 A 
HETATM   10  C   UNL     1     -39.650  50.549 -53.332  1.00  0.00     0.016 A 
HETATM   11  C   UNL     1     -39.932  51.056 -52.057  1.00  0.00     0.050 A 
HETATM   12  C   UNL     1     -40.399  52.376 -51.938  1.00  0.00     0.045 A 
BRANCH  11  13
HETATM   13  C   UNL     1     -39.764  50.184 -50.839  1.00  0.00     0.417 C 
HETATM   14  F   UNL     1     -38.481  49.765 -50.643  1.00  0.00    -0.166 F 
HETATM   15  F   UNL     1     -40.126  50.820 -49.691  1.00  0.00    -0.166 F 
HETATM   16  F   UNL     1     -40.519  49.050 -50.893  1.00  0.00    -0.166 F 
ENDBRANCH  11  13
ENDBRANCH   1   7
BRANCH   3  17
HETATM   17  C   UNL     1     -41.538  57.257 -52.250  1.00  0.00     0.148 A 
HETATM   18  N   UNL     1     -41.239  57.302 -50.930  1.00  0.00    -0.240 NA
HETATM   19  C   UNL     1     -40.330  58.239 -50.560  1.00  0.00     0.138 A 
HETATM   20  C   UNL     1     -39.736  59.102 -51.465  1.00  0.00     0.135 A 
HETATM   21  N   UNL     1     -40.023  59.068 -52.783  1.00  0.00    -0.268 NA
HETATM   22  C   UNL     1     -40.932  58.131 -53.152  1.00  0.00     0.166 A 
ENDBRANCH   3  17
TORSDOF 3
ENDMDL
MODEL 2
REMARK VINA RESULT:      -7.5      2.805      3.885
REMARK  3 active torsions:
REMARK  status: ('A' for Active; 'I' for Inactive)
REMARK    1  A    between atoms: C_3  and  N_4 
REMARK       I    between atoms: N_4  and  C_5 
REMARK       I    between atoms: C_5  and  N_6 
REMARK    2  A    between atoms: N_6  and  C_7 
REMARK    3  A    between atoms: C_15  and  C_16 
ROOT
HETATM    1  N   UNL     1     -41.881  54.595 -53.782  1.00  0.00    -0.309 N 
HETATM    2  C   UNL     1     -43.004  55.222 -53.325  1.00  0.00     0.326 C 
HETATM    3  N   UNL     1     -43.611  56.091 -54.190  1.00  0.00    -0.292 N 
HETATM    4  O   UNL     1     -43.518  55.080 -52.217  1.00  0.00    -0.247 OA
HETATM    5  H   UNL     1     -41.626  54.853 -54.732  1.00  0.00     0.170 HD
HETATM    6  H   UNL     1     -44.433  56.517 -53.787  1.00  0.00     0.172 HD
ENDROOT
BRANCH   1   7
HETATM    7  C   UNL     1     -41.059  53.665 -53.123  1.00  0.00     0.037 A 
HETATM    8  C   UNL     1     -40.442  53.900 -51.894  1.00  0.00     0.029 A 
HETATM    9  C   UNL     1     -39.637  52.921 -51.306  1.00  0.00     0.003 A 
HETATM   10  C   UNL     1     -39.442  51.696 -51.942  1.00  0.00     0.016 A 
HETATM   11  C   UNL     1     -40.057  51.435 -53.173  1.00  0.00     0.050 A 
HETATM   12  C   UNL     1     -40.859  52.432 -53.757  1.00  0.00     0.045 A 
BRANCH  11  13
HETATM   13  C   UNL     1     -39.834  50.118 -53.869  1.00  0.00     0.417 C 
HETATM   14  F   UNL     1     -39.630  49.077 -53.011  1.00  0.00    -0.166 F 
HETATM   15  F   UNL     1     -40.892  49.755 -54.647  1.00  0.00    -0.166 F 
HETATM   16  F   UNL     1     -38.751  50.132 -54.695  1.00  0.00    -0.166 F 
ENDBRANCH  11  13
ENDBRANCH   1   7
BRANCH   3  17
HETATM   17  C   UNL     1     -43.250  56.444 -55.494  1.00  0.00     0.148 A 
HETATM   18  N   UNL     1     -43.191  55.502 -56.467  1.00  0.00    -0.240 NA
HETATM   19  C   UNL     1     -42.832  55.944 -57.698  1.00  0.00     0.138 A 
HETATM   20  C   UNL     1     -42.540  57.271 -57.960  1.00  0.00     0.135 A 
HETATM   21  N   UNL     1     -42.595  58.221 -57.002  1.00  0.00    -0.268 NA
HETATM   22  C   UNL     1     -42.954  57.778 -55.771  1.00  0.00     0.166 A 
ENDBRANCH   3  17
TORSDOF 3
ENDMDL
MODEL 3
REMARK VINA RESULT:      -7.2      2.993      3.777
REMARK  3 active torsions:
REMARK  status: ('A' for Active; 'I' for Inactive)
REMARK    1  A    between atoms: C_3  and  N_4 
REMARK       I    between atoms: N_4  and  C_5 
REMARK       I    between atoms: C_5  and  N_6 
REMARK    2  A    between atoms: N_6  and  C_7 
REMARK    3  A    between atoms: C_15  and  C_16 
ROOT
HETATM    1  N   UNL     1     -42.735  55.482 -51.511  1.00  0.00    -0.309 N 
HETATM    2  C   UNL     1     -43.939  55.473 -50.867  1.00  0.00     0.326 C 
HETATM    3  N   UNL     1     -44.740  56.566 -51.059  1.00  0.00    -0.292 N 
HETATM    4  O   UNL     1     -44.369  54.581 -50.138  1.00  0.00    -0.247 OA
HETATM    5  H   UNL     1     -42.575  56.317 -52.069  1.00  0.00     0.170 HD
HETATM    6  H   UNL     1     -45.612  56.491 -50.554  1.00  0.00     0.172 HD
ENDROOT
BRANCH   1   7
HETATM    7  C   UNL     1     -41.721  54.509 -51.499  1.00  0.00     0.037 A 
HETATM    8  C   UNL     1     -40.951  54.197 -50.378  1.00  0.00     0.029 A 
HETATM    9  C   UNL     1     -39.958  53.216 -50.452  1.00  0.00     0.003 A 
HETATM   10  C   UNL     1     -39.728  52.536 -51.646  1.00  0.00     0.016 A 
HETATM   11  C   UNL     1     -40.494  52.828 -52.782  1.00  0.00     0.050 A 
HETATM   12  C   UNL     1     -41.484  53.823 -52.697  1.00  0.00     0.045 A 
BRANCH  11  13
HETATM   13  C   UNL     1     -40.234  52.106 -54.079  1.00  0.00     0.417 C 
HETATM   14  F   UNL     1     -40.002  52.943 -55.130  1.00  0.00    -0.166 F 
HETATM   15  F   UNL     1     -39.148  51.288 -54.009  1.00  0.00    -0.166 F 
HETATM   16  F   UNL     1     -41.275  51.314 -54.460  1.00  0.00    -0.166 F 
ENDBRANCH  11  13
ENDBRANCH   1   7
BRANCH   3  17
HETATM   17  C   UNL     1     -44.509  57.713 -51.824  1.00  0.00     0.148 A 
HETATM   18  N   UNL     1     -44.352  57.620 -53.167  1.00  0.00    -0.240 NA
HETATM   19  C   UNL     1     -44.133  58.789 -53.821  1.00  0.00     0.138 A 
HETATM   20  C   UNL     1     -44.072  60.009 -53.169  1.00  0.00     0.135 A 
HETATM   21  N   UNL     1     -44.227  60.118 -51.833  1.00  0.00    -0.268 NA
HETATM   22  C   UNL     1     -44.446  58.949 -51.181  1.00  0.00     0.166 A 
ENDBRANCH   3  17
TORSDOF 3
ENDMDL
MODEL 4
REMARK VINA RESULT:      -7.1      4.938      6.401
REMARK  3 active torsions:
REMARK  status: ('A' for Active; 'I' for Inactive)
REMARK    1  A    between atoms: C_3  and  N_4 
REMARK       I    between atoms: N_4  and  C_5 
REMARK       I    between atoms: C_5  and  N_6 
REMARK    2  A    between atoms: N_6  and  C_7 
REMARK    3  A    between atoms: C_15  and  C_16 
ROOT
HETATM    1  N   UNL     1     -43.351  55.790 -56.256  1.00  0.00    -0.309 N 
HETATM    2  C   UNL     1     -42.981  57.025 -56.706  1.00  0.00     0.326 C 
HETATM    3  N   UNL     1     -43.427  57.379 -57.950  1.00  0.00    -0.292 N 
HETATM    4  O   UNL     1     -42.291  57.844 -56.101  1.00  0.00    -0.247 OA
HETATM    5  H   UNL     1     -43.927  55.271 -56.914  1.00  0.00     0.170 HD
HETATM    6  H   UNL     1     -43.116  58.302 -58.217  1.00  0.00     0.172 HD
ENDROOT
BRANCH   1   7
HETATM    7  C   UNL     1     -43.043  55.167 -55.035  1.00  0.00     0.037 A 
HETATM    8  C   UNL     1     -43.641  55.495 -53.818  1.00  0.00     0.029 A 
HETATM    9  C   UNL     1     -43.276  54.827 -52.647  1.00  0.00     0.003 A 
HETATM   10  C   UNL     1     -42.311  53.821 -52.681  1.00  0.00     0.016 A 
HETATM   11  C   UNL     1     -41.703  53.471 -53.894  1.00  0.00     0.050 A 
HETATM   12  C   UNL     1     -42.074  54.156 -55.063  1.00  0.00     0.045 A 
BRANCH  11  13
HETATM   13  C   UNL     1     -40.648  52.396 -53.930  1.00  0.00     0.417 C 
HETATM   14  F   UNL     1     -41.088  51.219 -54.459  1.00  0.00    -0.166 F 
HETATM   15  F   UNL     1     -39.565  52.755 -54.674  1.00  0.00    -0.166 F 
HETATM   16  F   UNL     1     -40.165  52.087 -52.694  1.00  0.00    -0.166 F 
ENDBRANCH  11  13
ENDBRANCH   1   7
BRANCH   3  17
HETATM   17  C   UNL     1     -44.215  56.656 -58.851  1.00  0.00     0.148 A 
HETATM   18  N   UNL     1     -43.780  55.470 -59.343  1.00  0.00    -0.240 NA
HETATM   19  C   UNL     1     -44.616  54.846 -60.210  1.00  0.00     0.138 A 
HETATM   20  C   UNL     1     -45.841  55.374 -60.577  1.00  0.00     0.135 A 
HETATM   21  N   UNL     1     -46.289  56.553 -60.095  1.00  0.00    -0.268 NA
HETATM   22  C   UNL     1     -45.452  57.177 -59.229  1.00  0.00     0.166 A 
ENDBRANCH   3  17
TORSDOF 3
ENDMDL
MODEL 5
REMARK VINA RESULT:      -7.1      2.657      3.317
REMARK  3 active torsions:
REMARK  status: ('A' for Active; 'I' for Inactive)
REMARK    1  A    between atoms: C_3  and  N_4 
REMARK       I    between atoms: N_4  and  C_5 
REMARK       I    between atoms: C_5  and  N_6 
REMARK    2  A    between atoms: N_6  and  C_7 
REMARK    3  A    between atoms: C_15  and  C_16 
ROOT
HETATM    1  N   UNL     1     -41.802  54.867 -54.682  1.00  0.00    -0.309 N 
HETATM    2  C   UNL     1     -42.893  54.714 -55.489  1.00  0.00     0.326 C 
HETATM    3  N   UNL     1     -43.368  55.846 -56.091  1.00  0.00    -0.292 N 
HETATM    4  O   UNL     1     -43.483  53.661 -55.725  1.00  0.00    -0.247 OA
HETATM    5  H   UNL     1     -41.466  55.825 -54.626  1.00  0.00     0.170 HD
HETATM    6  H   UNL     1     -44.173  55.659 -56.672  1.00  0.00     0.172 HD
ENDROOT
BRANCH   1   7
HETATM    7  C   UNL     1     -41.108  53.894 -53.943  1.00  0.00     0.037 A 
HETATM    8  C   UNL     1     -40.432  52.815 -54.513  1.00  0.00     0.029 A 
HETATM    9  C   UNL     1     -39.766  51.890 -53.704  1.00  0.00     0.003 A 
HETATM   10  C   UNL     1     -39.769  52.036 -52.318  1.00  0.00     0.016 A 
HETATM   11  C   UNL     1     -40.435  53.116 -51.725  1.00  0.00     0.050 A 
HETATM   12  C   UNL     1     -41.107  54.035 -52.549  1.00  0.00     0.045 A 
BRANCH  11  13
HETATM   13  C   UNL     1     -40.453  53.266 -50.226  1.00  0.00     0.417 C 
HETATM   14  F   UNL     1     -39.400  53.983 -49.739  1.00  0.00    -0.166 F 
HETATM   15  F   UNL     1     -41.572  53.902 -49.781  1.00  0.00    -0.166 F 
HETATM   16  F   UNL     1     -40.419  52.070 -49.574  1.00  0.00    -0.166 F 
ENDBRANCH  11  13
ENDBRANCH   1   7
BRANCH   3  17
HETATM   17  C   UNL     1     -42.902  57.163 -56.004  1.00  0.00     0.148 A 
HETATM   18  N   UNL     1     -42.647  57.719 -54.795  1.00  0.00    -0.240 NA
HETATM   19  C   UNL     1     -42.199  59.000 -54.815  1.00  0.00     0.138 A 
HETATM   20  C   UNL     1     -42.010  59.706 -55.990  1.00  0.00     0.135 A 
HETATM   21  N   UNL     1     -42.259  59.166 -57.201  1.00  0.00    -0.268 NA
HETATM   22  C   UNL     1     -42.707  57.886 -57.180  1.00  0.00     0.166 A 
ENDBRANCH   3  17
TORSDOF 3
ENDMDL
MODEL 6
REMARK VINA RESULT:      -7.0      3.989      4.975
REMARK  3 active torsions:
REMARK  status: ('A' for Active; 'I' for Inactive)
REMARK    1  A    between atoms: C_3  and  N_4 
REMARK       I    between atoms: N_4  and  C_5 
REMARK       I    between atoms: C_5  and  N_6 
REMARK    2  A    between atoms: N_6  and  C_7 
REMARK    3  A    between atoms: C_15  and  C_16 
ROOT
HETATM    1  N   UNL     1     -42.119  54.960 -55.723  1.00  0.00    -0.309 N 
HETATM    2  C   UNL     1     -43.212  54.447 -56.361  1.00  0.00     0.326 C 
HETATM    3  N   UNL     1     -43.558  55.036 -57.546  1.00  0.00    -0.292 N 
HETATM    4  O   UNL     1     -43.909  53.511 -55.972  1.00  0.00    -0.247 OA
HETATM    5  H   UNL     1     -41.682  55.734 -56.218  1.00  0.00     0.170 HD
HETATM    6  H   UNL     1     -44.373  54.606 -57.960  1.00  0.00     0.172 HD
ENDROOT
BRANCH   1   7
HETATM    7  C   UNL     1     -41.539  54.563 -54.507  1.00  0.00     0.037 A 
HETATM    8  C   UNL     1     -41.503  55.360 -53.362  1.00  0.00     0.029 A 
HETATM    9  C   UNL     1     -40.904  54.890 -52.190  1.00  0.00     0.003 A 
HETATM   10  C   UNL     1     -40.337  53.617 -52.151  1.00  0.00     0.016 A 
HETATM   11  C   UNL     1     -40.369  52.797 -53.287  1.00  0.00     0.050 A 
HETATM   12  C   UNL     1     -40.967  53.285 -54.461  1.00  0.00     0.045 A 
BRANCH  11  13
HETATM   13  C   UNL     1     -39.742  51.427 -53.251  1.00  0.00     0.417 C 
HETATM   14  F   UNL     1     -40.485  50.473 -53.881  1.00  0.00    -0.166 F 
HETATM   15  F   UNL     1     -38.519  51.400 -53.850  1.00  0.00    -0.166 F 
HETATM   16  F   UNL     1     -39.548  50.967 -51.984  1.00  0.00    -0.166 F 
ENDBRANCH  11  13
ENDBRANCH   1   7
BRANCH   3  17
HETATM   17  C   UNL     1     -42.954  56.105 -58.217  1.00  0.00     0.148 A 
HETATM   18  N   UNL     1     -42.613  57.231 -57.544  1.00  0.00    -0.240 NA
HETATM   19  C   UNL     1     -42.035  58.210 -58.283  1.00  0.00     0.138 A 
HETATM   20  C   UNL     1     -41.800  58.081 -59.642  1.00  0.00     0.135 A 
HETATM   21  N   UNL     1     -42.134  56.966 -60.325  1.00  0.00    -0.268 NA
HETATM   22  C   UNL     1     -42.712  55.988 -59.585  1.00  0.00     0.166 A 
ENDBRANCH   3  17
TORSDOF 3
ENDMDL
MODEL 7
REMARK VINA RESULT:      -6.7      2.928      3.599
REMARK  3 active torsions:
REMARK  status: ('A' for Active; 'I' for Inactive)
REMARK    1  A    between atoms: C_3  and  N_4 
REMARK       I    between atoms: N_4  and  C_5 
REMARK       I    between atoms: C_5  and  N_6 
REMARK    2  A    between atoms: N_6  and  C_7 
REMARK    3  A    between atoms: C_15  and  C_16 
ROOT
HETATM    1  N   UNL     1     -42.850  55.256 -53.253  1.00  0.00    -0.309 N 
HETATM    2  C   UNL     1     -43.669  55.055 -54.327  1.00  0.00     0.326 C 
HETATM    3  N   UNL     1     -44.540  56.066 -54.626  1.00  0.00    -0.292 N 
HETATM    4  O   UNL     1     -43.696  54.058 -55.046  1.00  0.00    -0.247 OA
HETATM    5  H   UNL     1     -42.988  56.154 -52.795  1.00  0.00     0.170 HD
HETATM    6  H   UNL     1     -45.112  55.850 -55.429  1.00  0.00     0.172 HD
ENDROOT
BRANCH   1   7
HETATM    7  C   UNL     1     -41.871  54.402 -52.718  1.00  0.00     0.037 A 
HETATM    8  C   UNL     1     -41.183  53.440 -53.459  1.00  0.00     0.029 A 
HETATM    9  C   UNL     1     -40.224  52.628 -52.848  1.00  0.00     0.003 A 
HETATM   10  C   UNL     1     -39.940  52.773 -51.491  1.00  0.00     0.016 A 
HETATM   11  C   UNL     1     -40.613  53.737 -50.729  1.00  0.00     0.050 A 
HETATM   12  C   UNL     1     -41.582  54.541 -51.354  1.00  0.00     0.045 A 
BRANCH  11  13
HETATM   13  C   UNL     1     -40.320  53.882 -49.259  1.00  0.00     0.417 C 
HETATM   14  F   UNL     1     -39.031  54.243 -48.995  1.00  0.00    -0.166 F 
HETATM   15  F   UNL     1     -41.099  54.829 -48.665  1.00  0.00    -0.166 F 
HETATM   16  F   UNL     1     -40.532  52.732 -48.561  1.00  0.00    -0.166 F 
ENDBRANCH  11  13
ENDBRANCH   1   7
BRANCH   3  17
HETATM   17  C   UNL     1     -44.726  57.297 -53.988  1.00  0.00     0.148 A 
HETATM   18  N   UNL     1     -44.702  57.377 -52.635  1.00  0.00    -0.240 NA
HETATM   19  C   UNL     1     -44.893  58.614 -52.111  1.00  0.00     0.138 A 
HETATM   20  C   UNL     1     -45.100  59.734 -52.897  1.00  0.00     0.135 A 
HETATM   21  N   UNL     1     -45.126  59.671 -54.245  1.00  0.00    -0.268 NA
HETATM   22  C   UNL     1     -44.935  58.434 -54.768  1.00  0.00     0.166 A 
ENDBRANCH   3  17
TORSDOF 3
ENDMDL
MODEL 8
REMARK VINA RESULT:      -6.7     14.063     15.050
REMARK  3 active torsions:
REMARK  status: ('A' for Active; 'I' for Inactive)
REMARK    1  A    between atoms: C_3  and  N_4 
REMARK       I    between atoms: N_4  and  C_5 
REMARK       I    between atoms: C_5  and  N_6 
REMARK    2  A    between atoms: N_6  and  C_7 
REMARK    3  A    between atoms: C_15  and  C_16 
ROOT
HETATM    1  N   UNL     1     -37.739  41.168 -55.533  1.00  0.00    -0.309 N 
HETATM    2  C   UNL     1     -38.847  41.302 -54.747  1.00  0.00     0.326 C 
HETATM    3  N   UNL     1     -38.631  41.388 -53.400  1.00  0.00    -0.292 N 
HETATM    4  O   UNL     1     -40.013  41.354 -55.135  1.00  0.00    -0.247 OA
HETATM    5  H   UNL     1     -36.866  41.149 -55.011  1.00  0.00     0.170 HD
HETATM    6  H   UNL     1     -39.492  41.485 -52.882  1.00  0.00     0.172 HD
ENDROOT
BRANCH   1   7
HETATM    7  C   UNL     1     -37.656  41.057 -56.932  1.00  0.00     0.037 A 
HETATM    8  C   UNL     1     -37.137  42.048 -57.765  1.00  0.00     0.029 A 
HETATM    9  C   UNL     1     -37.094  41.858 -59.149  1.00  0.00     0.003 A 
HETATM   10  C   UNL     1     -37.566  40.674 -59.713  1.00  0.00     0.016 A 
HETATM   11  C   UNL     1     -38.085  39.662 -58.894  1.00  0.00     0.050 A 
HETATM   12  C   UNL     1     -38.131  39.869 -57.504  1.00  0.00     0.045 A 
BRANCH  11  13
HETATM   13  C   UNL     1     -38.612  38.389 -59.503  1.00  0.00     0.417 C 
HETATM   14  F   UNL     1     -38.965  37.450 -58.579  1.00  0.00    -0.166 F 
HETATM   15  F   UNL     1     -39.723  38.597 -60.263  1.00  0.00    -0.166 F 
HETATM   16  F   UNL     1     -37.709  37.781 -60.321  1.00  0.00    -0.166 F 
ENDBRANCH  11  13
ENDBRANCH   1   7
BRANCH   3  17
HETATM   17  C   UNL     1     -37.426  41.356 -52.688  1.00  0.00     0.148 A 
HETATM   18  N   UNL     1     -36.432  42.226 -52.987  1.00  0.00    -0.240 NA
HETATM   19  C   UNL     1     -35.304  42.115 -52.242  1.00  0.00     0.138 A 
HETATM   20  C   UNL     1     -35.163  41.176 -51.235  1.00  0.00     0.135 A 
HETATM   21  N   UNL     1     -36.145  40.303 -50.925  1.00  0.00    -0.268 NA
HETATM   22  C   UNL     1     -37.272  40.414 -51.672  1.00  0.00     0.166 A 
ENDBRANCH   3  17
TORSDOF 3
ENDMDL
MODEL 9
REMARK VINA RESULT:      -6.6      3.163      4.310
REMARK  3 active torsions:
REMARK  status: ('A' for Active; 'I' for Inactive)
REMARK    1  A    between atoms: C_3  and  N_4 
REMARK       I    between atoms: N_4  and  C_5 
REMARK       I    between atoms: C_5  and  N_6 
REMARK    2  A    between atoms: N_6  and  C_7 
REMARK    3  A    between atoms: C_15  and  C_16 
ROOT
HETATM    1  N   UNL     1     -41.420  57.283 -52.473  1.00  0.00    -0.309 N 
HETATM    2  C   UNL     1     -40.875  58.342 -51.806  1.00  0.00     0.326 C 
HETATM    3  N   UNL     1     -41.124  59.583 -52.326  1.00  0.00    -0.292 N 
HETATM    4  O   UNL     1     -40.186  58.286 -50.789  1.00  0.00    -0.247 OA
HETATM    5  H   UNL     1     -41.960  57.550 -53.293  1.00  0.00     0.170 HD
HETATM    6  H   UNL     1     -40.691  60.316 -51.783  1.00  0.00     0.172 HD
ENDROOT
BRANCH   1   7
HETATM    7  C   UNL     1     -41.332  55.913 -52.175  1.00  0.00     0.037 A 
HETATM    8  C   UNL     1     -41.598  55.367 -50.919  1.00  0.00     0.029 A 
HETATM    9  C   UNL     1     -41.485  53.990 -50.706  1.00  0.00     0.003 A 
HETATM   10  C   UNL     1     -41.106  53.146 -51.749  1.00  0.00     0.016 A 
HETATM   11  C   UNL     1     -40.841  53.672 -53.020  1.00  0.00     0.050 A 
HETATM   12  C   UNL     1     -40.951  55.059 -53.218  1.00  0.00     0.045 A 
BRANCH  11  13
HETATM   13  C   UNL     1     -40.415  52.762 -54.143  1.00  0.00     0.417 C 
HETATM   14  F   UNL     1     -40.097  53.427 -55.291  1.00  0.00    -0.166 F 
HETATM   15  F   UNL     1     -39.316  52.023 -53.825  1.00  0.00    -0.166 F 
HETATM   16  F   UNL     1     -41.380  51.865 -54.492  1.00  0.00    -0.166 F 
ENDBRANCH  11  13
ENDBRANCH   1   7
BRANCH   3  17
HETATM   17  C   UNL     1     -41.863  59.940 -53.458  1.00  0.00     0.148 A 
HETATM   18  N   UNL     1     -41.448  59.566 -54.693  1.00  0.00    -0.240 NA
HETATM   19  C   UNL     1     -42.232  59.961 -55.727  1.00  0.00     0.138 A 
HETATM   20  C   UNL     1     -43.389  60.700 -55.547  1.00  0.00     0.135 A 
HETATM   21  N   UNL     1     -43.816  61.080 -54.324  1.00  0.00    -0.268 NA
HETATM   22  C   UNL     1     -43.030  60.684 -53.291  1.00  0.00     0.166 A 
ENDBRANCH   3  17
TORSDOF 3
ENDMDL
MODEL 10
REMARK VINA RESULT:      -6.6      4.663      5.879
REMARK  3 active torsions:
REMARK  status: ('A' for Active; 'I' for Inactive)
REMARK    1  A    between atoms: C_3  and  N_4 
REMARK       I    between atoms: N_4  and  C_5 
REMARK       I    between atoms: C_5  and  N_6 
REMARK    2  A    between atoms: N_6  and  C_7 
REMARK    3  A    between atoms: C_15  and  C_16 
ROOT
HETATM    1  N   UNL     1     -42.243  55.853 -56.146  1.00  0.00    -0.309 N 
HETATM    2  C   UNL     1     -42.277  57.217 -56.129  1.00  0.00     0.326 C 
HETATM    3  N   UNL     1     -42.861  57.825 -57.207  1.00  0.00    -0.292 N 
HETATM    4  O   UNL     1     -41.837  57.946 -55.242  1.00  0.00    -0.247 OA
HETATM    5  H   UNL     1     -42.667  55.442 -56.975  1.00  0.00     0.170 HD
HETATM    6  H   UNL     1     -42.851  58.832 -57.127  1.00  0.00     0.172 HD
ENDROOT
BRANCH   1   7
HETATM    7  C   UNL     1     -41.713  54.971 -55.189  1.00  0.00     0.037 A 
HETATM    8  C   UNL     1     -40.614  54.141 -55.415  1.00  0.00     0.029 A 
HETATM    9  C   UNL     1     -40.150  53.290 -54.409  1.00  0.00     0.003 A 
HETATM   10  C   UNL     1     -40.778  53.263 -53.165  1.00  0.00     0.016 A 
HETATM   11  C   UNL     1     -41.878  54.094 -52.913  1.00  0.00     0.050 A 
HETATM   12  C   UNL     1     -42.340  54.939 -53.937  1.00  0.00     0.045 A 
BRANCH  11  13
HETATM   13  C   UNL     1     -42.568  54.054 -51.574  1.00  0.00     0.417 C 
HETATM   14  F   UNL     1     -42.712  55.282 -51.000  1.00  0.00    -0.166 F 
HETATM   15  F   UNL     1     -43.823  53.531 -51.652  1.00  0.00    -0.166 F 
HETATM   16  F   UNL     1     -41.903  53.294 -50.659  1.00  0.00    -0.166 F 
ENDBRANCH  11  13
ENDBRANCH   1   7
BRANCH   3  17
HETATM   17  C   UNL     1     -43.437  57.253 -58.346  1.00  0.00     0.148 A 
HETATM   18  N   UNL     1     -44.783  57.123 -58.441  1.00  0.00    -0.240 NA
HETATM   19  C   UNL     1     -45.244  56.556 -59.584  1.00  0.00     0.138 A 
HETATM   20  C   UNL     1     -44.404  56.132 -60.599  1.00  0.00     0.135 A 
HETATM   21  N   UNL     1     -43.062  56.256 -60.520  1.00  0.00    -0.268 NA
HETATM   22  C   UNL     1     -42.602  56.822 -59.376  1.00  0.00     0.166 A 
ENDBRANCH   3  17
TORSDOF 3
ENDMDL
