MODEL 1
REMARK VINA RESULT:      -7.8      0.000      0.000
REMARK  7 active torsions:
REMARK  status: ('A' for Active; 'I' for Inactive)
REMARK    1  A    between atoms: C_2  and  N_3 
REMARK    2  A    between atoms: N_3  and  C_4 
REMARK    3  A    between atoms: C_6  and  N_7 
REMARK    4  A    between atoms: N_7  and  C_8 
REMARK    5  A    between atoms: C_8  and  C_9 
REMARK    6  A    between atoms: C_10  and  O_11 
REMARK    7  A    between atoms: C_14  and  O_15 
ROOT
HETATM    1  C   UNL     1     -40.507  53.492 -53.257  1.00  0.00     0.135 A 
HETATM    2  N   UNL     1     -40.421  54.258 -52.155  1.00  0.00    -0.052 NA
HETATM    3  C   UNL     1     -40.067  53.689 -50.993  1.00  0.00     0.702 A 
HETATM    4  N   UNL     1     -39.792  52.391 -50.899  1.00  0.00    -0.189 N 
HETATM    5  H   UNL     1     -39.508  52.038 -49.997  1.00  0.00     0.184 HD
HETATM    6  C   UNL     1     -39.835  51.586 -51.966  1.00  0.00     0.062 A 
HETATM    7  C   UNL     1     -40.196  52.119 -53.219  1.00  0.00     0.032 A 
HETATM    8  C   UNL     1     -39.507  50.228 -51.834  1.00  0.00     0.031 A 
HETATM    9  C   UNL     1     -39.524  49.389 -52.949  1.00  0.00     0.002 A 
HETATM   10  C   UNL     1     -39.865  49.901 -54.197  1.00  0.00     0.001 A 
HETATM   11  C   UNL     1     -40.197  51.251 -54.335  1.00  0.00     0.017 A 
ENDROOT
BRANCH   3  12
HETATM   12  N   UNL     1     -39.932  54.441 -49.855  1.00  0.00    -0.220 N 
HETATM   13  H   UNL     1     -39.124  54.395 -49.252  1.00  0.00     0.178 HD
BRANCH  12  14
HETATM   14  C   UNL     1     -41.111  55.047 -49.241  1.00  0.00     0.179 C 
BRANCH  14  15
HETATM   15  C   UNL     1     -41.688  56.156 -50.102  1.00  0.00    -0.006 A 
HETATM   16  C   UNL     1     -42.967  55.988 -50.674  1.00  0.00     0.078 A 
HETATM   17  C   UNL     1     -43.504  56.979 -51.509  1.00  0.00     0.074 A 
HETATM   18  C   UNL     1     -42.769  58.129 -51.803  1.00  0.00     0.070 A 
HETATM   19  C   UNL     1     -41.498  58.289 -51.253  1.00  0.00     0.037 A 
HETATM   20  C   UNL     1     -40.957  57.311 -50.420  1.00  0.00     0.014 A 
BRANCH  16  21
HETATM   21  O   UNL     1     -43.606  54.816 -50.351  1.00  0.00    -0.355 OA
HETATM   22  C   UNL     1     -43.822  53.875 -51.397  1.00  0.00     0.210 C 
ENDBRANCH  16  21
BRANCH  18  23
HETATM   23  O   UNL     1     -43.170  59.163 -52.604  1.00  0.00    -0.356 OA
HETATM   24  C   UNL     1     -42.217  60.182 -52.877  1.00  0.00     0.210 C 
ENDBRANCH  18  23
ENDBRANCH  14  15
ENDBRANCH  12  14
ENDBRANCH   3  12
BRANCH   1  25
HETATM   25  N   UNL     1     -40.844  54.097 -54.471  1.00  0.00    -0.272 NA
HETATM   26  H   UNL     1     -40.759  53.455 -55.256  1.00  0.00     0.129 HD
BRANCH  25  27
HETATM   27  C   UNL     1     -42.076  54.894 -54.544  1.00  0.00     0.053 C 
HETATM   28  C   UNL     1     -43.039  54.311 -55.580  1.00  0.00     0.026 C 
HETATM   29  C   UNL     1     -41.692  56.322 -54.933  1.00  0.00     0.026 C 
ENDBRANCH  25  27
ENDBRANCH   1  25
TORSDOF 7
ENDMDL
MODEL 2
REMARK VINA RESULT:      -7.6      1.823      3.953
REMARK  7 active torsions:
REMARK  status: ('A' for Active; 'I' for Inactive)
REMARK    1  A    between atoms: C_2  and  N_3 
REMARK    2  A    between atoms: N_3  and  C_4 
REMARK    3  A    between atoms: C_6  and  N_7 
REMARK    4  A    between atoms: N_7  and  C_8 
REMARK    5  A    between atoms: C_8  and  C_9 
REMARK    6  A    between atoms: C_10  and  O_11 
REMARK    7  A    between atoms: C_14  and  O_15 
ROOT
HETATM    1  C   UNL     1     -42.102  53.933 -51.352  1.00  0.00     0.135 A 
HETATM    2  N   UNL     1     -43.020  54.682 -51.988  1.00  0.00    -0.052 NA
HETATM    3  C   UNL     1     -43.048  54.680 -53.329  1.00  0.00     0.702 A 
HETATM    4  N   UNL     1     -42.199  53.952 -54.050  1.00  0.00    -0.189 N 
HETATM    5  H   UNL     1     -42.296  53.980 -55.054  1.00  0.00     0.184 HD
HETATM    6  C   UNL     1     -41.283  53.167 -53.472  1.00  0.00     0.062 A 
HETATM    7  C   UNL     1     -41.200  53.120 -52.068  1.00  0.00     0.032 A 
HETATM    8  C   UNL     1     -40.425  52.389 -54.266  1.00  0.00     0.031 A 
HETATM    9  C   UNL     1     -39.485  51.548 -53.669  1.00  0.00     0.002 A 
HETATM   10  C   UNL     1     -39.400  51.478 -52.282  1.00  0.00     0.001 A 
HETATM   11  C   UNL     1     -40.246  52.253 -51.486  1.00  0.00     0.017 A 
ENDROOT
BRANCH   3  12
HETATM   12  N   UNL     1     -43.990  55.401 -54.014  1.00  0.00    -0.220 N 
HETATM   13  H   UNL     1     -44.851  55.003 -54.359  1.00  0.00     0.178 HD
BRANCH  12  14
HETATM   14  C   UNL     1     -43.626  56.677 -54.625  1.00  0.00     0.179 C 
BRANCH  14  15
HETATM   15  C   UNL     1     -42.736  57.504 -53.716  1.00  0.00    -0.006 A 
HETATM   16  C   UNL     1     -43.306  58.158 -52.603  1.00  0.00     0.078 A 
HETATM   17  C   UNL     1     -42.513  58.964 -51.773  1.00  0.00     0.074 A 
HETATM   18  C   UNL     1     -41.158  59.147 -52.052  1.00  0.00     0.070 A 
HETATM   19  C   UNL     1     -40.596  58.515 -53.161  1.00  0.00     0.037 A 
HETATM   20  C   UNL     1     -41.374  57.711 -53.991  1.00  0.00     0.014 A 
BRANCH  16  21
HETATM   21  O   UNL     1     -44.650  57.941 -52.421  1.00  0.00    -0.355 OA
HETATM   22  C   UNL     1     -45.102  57.692 -51.094  1.00  0.00     0.210 C 
ENDBRANCH  16  21
BRANCH  18  23
HETATM   23  O   UNL     1     -40.279  59.908 -51.332  1.00  0.00    -0.356 OA
HETATM   24  C   UNL     1     -39.110  59.264 -50.841  1.00  0.00     0.210 C 
ENDBRANCH  18  23
ENDBRANCH  14  15
ENDBRANCH  12  14
ENDBRANCH   3  12
BRANCH   1  25
HETATM   25  N   UNL     1     -42.099  53.914 -49.955  1.00  0.00    -0.272 NA
HETATM   26  H   UNL     1     -41.900  52.988 -49.584  1.00  0.00     0.129 HD
BRANCH  25  27
HETATM   27  C   UNL     1     -41.363  54.963 -49.237  1.00  0.00     0.053 C 
HETATM   28  C   UNL     1     -40.662  55.903 -50.218  1.00  0.00     0.026 C 
HETATM   29  C   UNL     1     -40.330  54.282 -48.338  1.00  0.00     0.026 C 
ENDBRANCH  25  27
ENDBRANCH   1  25
TORSDOF 7
ENDMDL
MODEL 3
REMARK VINA RESULT:      -7.6      1.228      2.067
REMARK  7 active torsions:
REMARK  status: ('A' for Active; 'I' for Inactive)
REMARK    1  A    between atoms: C_2  and  N_3 
REMARK    2  A    between atoms: N_3  and  C_4 
REMARK    3  A    between atoms: C_6  and  N_7 
REMARK    4  A    between atoms: N_7  and  C_8 
REMARK    5  A    between atoms: C_8  and  C_9 
REMARK    6  A    between atoms: C_10  and  O_11 
REMARK    7  A    between atoms: C_14  and  O_15 
ROOT
HETATM    1  C   UNL     1     -40.720  53.595 -53.442  1.00  0.00     0.135 A 
HETATM    2  N   UNL     1     -40.652  54.475 -52.428  1.00  0.00    -0.052 NA
HETATM    3  C   UNL     1     -40.250  54.048 -51.221  1.00  0.00     0.702 A 
HETATM    4  N   UNL     1     -39.910  52.780 -50.999  1.00  0.00    -0.189 N 
HETATM    5  H   UNL     1     -39.594  52.537 -50.072  1.00  0.00     0.184 HD
HETATM    6  C   UNL     1     -39.934  51.867 -51.976  1.00  0.00     0.062 A 
HETATM    7  C   UNL     1     -40.342  52.249 -53.268  1.00  0.00     0.032 A 
HETATM    8  C   UNL     1     -39.537  50.547 -51.711  1.00  0.00     0.031 A 
HETATM    9  C   UNL     1     -39.534  49.596 -52.733  1.00  0.00     0.002 A 
HETATM   10  C   UNL     1     -39.921  49.959 -54.019  1.00  0.00     0.001 A 
HETATM   11  C   UNL     1     -40.321  51.270 -54.289  1.00  0.00     0.017 A 
ENDROOT
BRANCH   3  12
HETATM   12  N   UNL     1     -40.132  54.919 -50.170  1.00  0.00    -0.220 N 
HETATM   13  H   UNL     1     -39.289  55.018 -49.624  1.00  0.00     0.178 HD
BRANCH  12  14
HETATM   14  C   UNL     1     -41.332  55.459 -49.535  1.00  0.00     0.179 C 
BRANCH  14  15
HETATM   15  C   UNL     1     -42.141  56.314 -50.493  1.00  0.00    -0.006 A 
HETATM   16  C   UNL     1     -41.601  57.535 -50.949  1.00  0.00     0.078 A 
HETATM   17  C   UNL     1     -42.347  58.364 -51.799  1.00  0.00     0.074 A 
HETATM   18  C   UNL     1     -43.639  58.002 -52.184  1.00  0.00     0.070 A 
HETATM   19  C   UNL     1     -44.181  56.804 -51.721  1.00  0.00     0.037 A 
HETATM   20  C   UNL     1     -43.447  55.972 -50.877  1.00  0.00     0.014 A 
BRANCH  16  21
HETATM   21  O   UNL     1     -40.336  57.822 -50.499  1.00  0.00    -0.355 OA
HETATM   22  C   UNL     1     -39.763  59.064 -50.894  1.00  0.00     0.210 C 
ENDBRANCH  16  21
BRANCH  18  23
HETATM   23  O   UNL     1     -44.472  58.719 -52.998  1.00  0.00    -0.356 OA
HETATM   24  C   UNL     1     -44.872  58.109 -54.219  1.00  0.00     0.210 C 
ENDBRANCH  18  23
ENDBRANCH  14  15
ENDBRANCH  12  14
ENDBRANCH   3  12
BRANCH   1  25
HETATM   25  N   UNL     1     -41.108  54.053 -54.704  1.00  0.00    -0.272 NA
HETATM   26  H   UNL     1     -41.236  53.291 -55.366  1.00  0.00     0.129 HD
BRANCH  25  27
HETATM   27  C   UNL     1     -42.188  55.045 -54.793  1.00  0.00     0.053 C 
HETATM   28  C   UNL     1     -43.543  54.399 -54.505  1.00  0.00     0.026 C 
HETATM   29  C   UNL     1     -42.176  55.628 -56.207  1.00  0.00     0.026 C 
ENDBRANCH  25  27
ENDBRANCH   1  25
TORSDOF 7
ENDMDL
MODEL 4
REMARK VINA RESULT:      -7.4      1.995      4.390
REMARK  7 active torsions:
REMARK  status: ('A' for Active; 'I' for Inactive)
REMARK    1  A    between atoms: C_2  and  N_3 
REMARK    2  A    between atoms: N_3  and  C_4 
REMARK    3  A    between atoms: C_6  and  N_7 
REMARK    4  A    between atoms: N_7  and  C_8 
REMARK    5  A    between atoms: C_8  and  C_9 
REMARK    6  A    between atoms: C_10  and  O_11 
REMARK    7  A    between atoms: C_14  and  O_15 
ROOT
HETATM    1  C   UNL     1     -40.314  53.588 -52.280  1.00  0.00     0.135 A 
HETATM    2  N   UNL     1     -40.616  54.448 -53.269  1.00  0.00    -0.052 NA
HETATM    3  C   UNL     1     -40.629  54.006 -54.536  1.00  0.00     0.702 A 
HETATM    4  N   UNL     1     -40.359  52.740 -54.843  1.00  0.00    -0.189 N 
HETATM    5  H   UNL     1     -40.412  52.474 -55.815  1.00  0.00     0.184 HD
HETATM    6  C   UNL     1     -40.078  51.835 -53.899  1.00  0.00     0.062 A 
HETATM    7  C   UNL     1     -40.051  52.230 -52.548  1.00  0.00     0.032 A 
HETATM    8  C   UNL     1     -39.830  50.500 -54.259  1.00  0.00     0.031 A 
HETATM    9  C   UNL     1     -39.563  49.546 -53.278  1.00  0.00     0.002 A 
HETATM   10  C   UNL     1     -39.547  49.916 -51.937  1.00  0.00     0.001 A 
HETATM   11  C   UNL     1     -39.788  51.242 -51.571  1.00  0.00     0.017 A 
ENDROOT
BRANCH   3  12
HETATM   12  N   UNL     1     -40.966  54.841 -55.569  1.00  0.00    -0.220 N 
HETATM   13  H   UNL     1     -40.397  55.622 -55.859  1.00  0.00     0.178 HD
BRANCH  12  14
HETATM   14  C   UNL     1     -42.348  54.890 -56.041  1.00  0.00     0.179 C 
BRANCH  14  15
HETATM   15  C   UNL     1     -43.103  56.069 -55.457  1.00  0.00    -0.006 A 
HETATM   16  C   UNL     1     -42.975  57.337 -56.063  1.00  0.00     0.078 A 
HETATM   17  C   UNL     1     -43.628  58.451 -55.516  1.00  0.00     0.074 A 
HETATM   18  C   UNL     1     -44.391  58.323 -54.355  1.00  0.00     0.070 A 
HETATM   19  C   UNL     1     -44.506  57.075 -53.745  1.00  0.00     0.037 A 
HETATM   20  C   UNL     1     -43.862  55.961 -54.281  1.00  0.00     0.014 A 
BRANCH  16  21
HETATM   21  O   UNL     1     -42.185  57.373 -57.186  1.00  0.00    -0.355 OA
HETATM   22  C   UNL     1     -42.796  57.773 -58.408  1.00  0.00     0.210 C 
ENDBRANCH  16  21
BRANCH  18  23
HETATM   23  O   UNL     1     -45.069  59.326 -53.718  1.00  0.00    -0.356 OA
HETATM   24  C   UNL     1     -45.180  59.239 -52.302  1.00  0.00     0.210 C 
ENDBRANCH  18  23
ENDBRANCH  14  15
ENDBRANCH  12  14
ENDBRANCH   3  12
BRANCH   1  25
HETATM   25  N   UNL     1     -40.335  54.047 -50.961  1.00  0.00    -0.272 NA
HETATM   26  H   UNL     1     -39.415  54.345 -50.644  1.00  0.00     0.129 HD
BRANCH  25  27
HETATM   27  C   UNL     1     -41.386  54.991 -50.559  1.00  0.00     0.053 C 
HETATM   28  C   UNL     1     -41.209  55.413 -49.100  1.00  0.00     0.026 C 
HETATM   29  C   UNL     1     -42.737  54.298 -50.742  1.00  0.00     0.026 C 
ENDBRANCH  25  27
ENDBRANCH   1  25
TORSDOF 7
ENDMDL
MODEL 5
REMARK VINA RESULT:      -7.4      3.009      5.586
REMARK  7 active torsions:
REMARK  status: ('A' for Active; 'I' for Inactive)
REMARK    1  A    between atoms: C_2  and  N_3 
REMARK    2  A    between atoms: N_3  and  C_4 
REMARK    3  A    between atoms: C_6  and  N_7 
REMARK    4  A    between atoms: N_7  and  C_8 
REMARK    5  A    between atoms: C_8  and  C_9 
REMARK    6  A    between atoms: C_10  and  O_11 
REMARK    7  A    between atoms: C_14  and  O_15 
ROOT
HETATM    1  C   UNL     1     -40.461  53.700 -52.473  1.00  0.00     0.135 A 
HETATM    2  N   UNL     1     -40.812  54.481 -53.509  1.00  0.00    -0.052 NA
HETATM    3  C   UNL     1     -40.803  53.966 -54.747  1.00  0.00     0.702 A 
HETATM    4  N   UNL     1     -40.463  52.700 -54.981  1.00  0.00    -0.189 N 
HETATM    5  H   UNL     1     -40.504  52.374 -55.935  1.00  0.00     0.184 HD
HETATM    6  C   UNL     1     -40.130  51.869 -53.987  1.00  0.00     0.062 A 
HETATM    7  C   UNL     1     -40.122  52.345 -52.662  1.00  0.00     0.032 A 
HETATM    8  C   UNL     1     -39.808  50.532 -54.269  1.00  0.00     0.031 A 
HETATM    9  C   UNL     1     -39.486  49.654 -53.235  1.00  0.00     0.002 A 
HETATM   10  C   UNL     1     -39.487  50.103 -51.918  1.00  0.00     0.001 A 
HETATM   11  C   UNL     1     -39.802  51.433 -51.630  1.00  0.00     0.017 A 
ENDROOT
BRANCH   3  12
HETATM   12  N   UNL     1     -41.190  54.718 -55.826  1.00  0.00    -0.220 N 
HETATM   13  H   UNL     1     -40.556  55.302 -56.350  1.00  0.00     0.178 HD
BRANCH  12  14
HETATM   14  C   UNL     1     -42.604  55.024 -56.028  1.00  0.00     0.179 C 
BRANCH  14  15
HETATM   15  C   UNL     1     -42.826  55.870 -57.268  1.00  0.00    -0.006 A 
HETATM   16  C   UNL     1     -42.581  57.258 -57.208  1.00  0.00     0.078 A 
HETATM   17  C   UNL     1     -42.821  58.068 -58.328  1.00  0.00     0.074 A 
HETATM   18  C   UNL     1     -43.327  57.513 -59.505  1.00  0.00     0.070 A 
HETATM   19  C   UNL     1     -43.585  56.145 -59.561  1.00  0.00     0.037 A 
HETATM   20  C   UNL     1     -43.349  55.331 -58.455  1.00  0.00     0.014 A 
BRANCH  16  21
HETATM   21  O   UNL     1     -42.110  57.719 -56.003  1.00  0.00    -0.355 OA
HETATM   22  C   UNL     1     -42.480  59.038 -55.613  1.00  0.00     0.210 C 
ENDBRANCH  16  21
BRANCH  18  23
HETATM   23  O   UNL     1     -43.611  58.189 -60.660  1.00  0.00    -0.356 OA
HETATM   24  C   UNL     1     -44.425  59.350 -60.551  1.00  0.00     0.210 C 
ENDBRANCH  18  23
ENDBRANCH  14  15
ENDBRANCH  12  14
ENDBRANCH   3  12
BRANCH   1  25
HETATM   25  N   UNL     1     -40.504  54.234 -51.183  1.00  0.00    -0.272 NA
HETATM   26  H   UNL     1     -39.605  54.614 -50.894  1.00  0.00     0.129 HD
BRANCH  25  27
HETATM   27  C   UNL     1     -41.617  55.124 -50.825  1.00  0.00     0.053 C 
HETATM   28  C   UNL     1     -41.361  55.799 -49.478  1.00  0.00     0.026 C 
HETATM   29  C   UNL     1     -42.891  54.281 -50.754  1.00  0.00     0.026 C 
ENDBRANCH  25  27
ENDBRANCH   1  25
TORSDOF 7
ENDMDL
MODEL 6
REMARK VINA RESULT:      -7.3      2.832      5.800
REMARK  7 active torsions:
REMARK  status: ('A' for Active; 'I' for Inactive)
REMARK    1  A    between atoms: C_2  and  N_3 
REMARK    2  A    between atoms: N_3  and  C_4 
REMARK    3  A    between atoms: C_6  and  N_7 
REMARK    4  A    between atoms: N_7  and  C_8 
REMARK    5  A    between atoms: C_8  and  C_9 
REMARK    6  A    between atoms: C_10  and  O_11 
REMARK    7  A    between atoms: C_14  and  O_15 
ROOT
HETATM    1  C   UNL     1     -40.506  52.788 -52.790  1.00  0.00     0.135 A 
HETATM    2  N   UNL     1     -41.183  53.060 -53.920  1.00  0.00    -0.052 NA
HETATM    3  C   UNL     1     -42.071  54.066 -53.922  1.00  0.00     0.702 A 
HETATM    4  N   UNL     1     -42.297  54.808 -52.841  1.00  0.00    -0.189 N 
HETATM    5  H   UNL     1     -42.960  55.564 -52.924  1.00  0.00     0.184 HD
HETATM    6  C   UNL     1     -41.634  54.601 -51.698  1.00  0.00     0.062 A 
HETATM    7  C   UNL     1     -40.685  53.563 -51.627  1.00  0.00     0.032 A 
HETATM    8  C   UNL     1     -41.876  55.426 -50.588  1.00  0.00     0.031 A 
HETATM    9  C   UNL     1     -41.168  55.233 -49.401  1.00  0.00     0.002 A 
HETATM   10  C   UNL     1     -40.217  54.221 -49.318  1.00  0.00     0.001 A 
HETATM   11  C   UNL     1     -39.974  53.393 -50.417  1.00  0.00     0.017 A 
ENDROOT
BRANCH   3  12
HETATM   12  N   UNL     1     -42.755  54.398 -55.062  1.00  0.00    -0.220 N 
HETATM   13  H   UNL     1     -43.618  53.956 -55.339  1.00  0.00     0.178 HD
BRANCH  12  14
HETATM   14  C   UNL     1     -42.073  55.121 -56.133  1.00  0.00     0.179 C 
BRANCH  14  15
HETATM   15  C   UNL     1     -43.019  56.040 -56.884  1.00  0.00    -0.006 A 
HETATM   16  C   UNL     1     -43.691  57.061 -56.180  1.00  0.00     0.078 A 
HETATM   17  C   UNL     1     -44.604  57.895 -56.843  1.00  0.00     0.074 A 
HETATM   18  C   UNL     1     -44.874  57.708 -58.200  1.00  0.00     0.070 A 
HETATM   19  C   UNL     1     -44.223  56.689 -58.894  1.00  0.00     0.037 A 
HETATM   20  C   UNL     1     -43.314  55.856 -58.244  1.00  0.00     0.014 A 
BRANCH  16  21
HETATM   21  O   UNL     1     -43.383  57.155 -54.845  1.00  0.00    -0.355 OA
HETATM   22  C   UNL     1     -44.433  57.507 -53.950  1.00  0.00     0.210 C 
ENDBRANCH  16  21
BRANCH  18  23
HETATM   23  O   UNL     1     -45.742  58.442 -58.960  1.00  0.00    -0.356 OA
HETATM   24  C   UNL     1     -46.423  57.763 -60.009  1.00  0.00     0.210 C 
ENDBRANCH  18  23
ENDBRANCH  14  15
ENDBRANCH  12  14
ENDBRANCH   3  12
BRANCH   1  25
HETATM   25  N   UNL     1     -39.560  51.761 -52.804  1.00  0.00    -0.272 NA
HETATM   26  H   UNL     1     -38.918  51.819 -52.017  1.00  0.00     0.129 HD
BRANCH  25  27
HETATM   27  C   UNL     1     -40.017  50.384 -53.038  1.00  0.00     0.053 C 
HETATM   28  C   UNL     1     -39.588  49.467 -51.893  1.00  0.00     0.026 C 
HETATM   29  C   UNL     1     -39.402  49.901 -54.353  1.00  0.00     0.026 C 
ENDBRANCH  25  27
ENDBRANCH   1  25
TORSDOF 7
ENDMDL
MODEL 7
REMARK VINA RESULT:      -7.2      2.925      6.428
REMARK  7 active torsions:
REMARK  status: ('A' for Active; 'I' for Inactive)
REMARK    1  A    between atoms: C_2  and  N_3 
REMARK    2  A    between atoms: N_3  and  C_4 
REMARK    3  A    between atoms: C_6  and  N_7 
REMARK    4  A    between atoms: N_7  and  C_8 
REMARK    5  A    between atoms: C_8  and  C_9 
REMARK    6  A    between atoms: C_10  and  O_11 
REMARK    7  A    between atoms: C_14  and  O_15 
ROOT
HETATM    1  C   UNL     1     -42.418  57.708 -56.023  1.00  0.00     0.135 A 
HETATM    2  N   UNL     1     -42.782  56.720 -55.187  1.00  0.00    -0.052 NA
HETATM    3  C   UNL     1     -43.192  55.551 -55.700  1.00  0.00     0.702 A 
HETATM    4  N   UNL     1     -43.244  55.336 -57.012  1.00  0.00    -0.189 N 
HETATM    5  H   UNL     1     -43.539  54.423 -57.325  1.00  0.00     0.184 HD
HETATM    6  C   UNL     1     -42.870  56.273 -57.890  1.00  0.00     0.062 A 
HETATM    7  C   UNL     1     -42.424  57.523 -57.420  1.00  0.00     0.032 A 
HETATM    8  C   UNL     1     -42.907  55.999 -59.267  1.00  0.00     0.031 A 
HETATM    9  C   UNL     1     -42.492  56.962 -60.187  1.00  0.00     0.002 A 
HETATM   10  C   UNL     1     -42.036  58.198 -59.739  1.00  0.00     0.001 A 
HETATM   11  C   UNL     1     -42.000  58.479 -58.371  1.00  0.00     0.017 A 
ENDROOT
BRANCH   3  12
HETATM   12  N   UNL     1     -43.537  54.506 -54.882  1.00  0.00    -0.220 N 
HETATM   13  H   UNL     1     -44.414  54.456 -54.387  1.00  0.00     0.178 HD
BRANCH  12  14
HETATM   14  C   UNL     1     -42.501  53.611 -54.372  1.00  0.00     0.179 C 
BRANCH  14  15
HETATM   15  C   UNL     1     -42.215  53.858 -52.903  1.00  0.00    -0.006 A 
HETATM   16  C   UNL     1     -40.973  53.459 -52.367  1.00  0.00     0.078 A 
HETATM   17  C   UNL     1     -40.701  53.636 -51.002  1.00  0.00     0.074 A 
HETATM   18  C   UNL     1     -41.665  54.188 -50.156  1.00  0.00     0.070 A 
HETATM   19  C   UNL     1     -42.899  54.567 -50.680  1.00  0.00     0.037 A 
HETATM   20  C   UNL     1     -43.179  54.397 -52.035  1.00  0.00     0.014 A 
BRANCH  16  21
HETATM   21  O   UNL     1     -40.097  52.903 -53.267  1.00  0.00    -0.355 OA
HETATM   22  C   UNL     1     -39.645  51.576 -53.012  1.00  0.00     0.210 C 
ENDBRANCH  16  21
BRANCH  18  23
HETATM   23  O   UNL     1     -41.532  54.407 -48.813  1.00  0.00    -0.356 OA
HETATM   24  C   UNL     1     -40.387  53.855 -48.174  1.00  0.00     0.210 C 
ENDBRANCH  18  23
ENDBRANCH  14  15
ENDBRANCH  12  14
ENDBRANCH   3  12
BRANCH   1  25
HETATM   25  N   UNL     1     -41.960  58.912 -55.482  1.00  0.00    -0.272 NA
HETATM   26  H   UNL     1     -42.218  59.713 -56.054  1.00  0.00     0.129 HD
BRANCH  25  27
HETATM   27  C   UNL     1     -42.173  59.169 -54.051  1.00  0.00     0.053 C 
HETATM   28  C   UNL     1     -42.691  60.589 -53.825  1.00  0.00     0.026 C 
HETATM   29  C   UNL     1     -40.835  58.980 -53.334  1.00  0.00     0.026 C 
ENDBRANCH  25  27
ENDBRANCH   1  25
TORSDOF 7
ENDMDL
MODEL 8
REMARK VINA RESULT:      -7.2      3.984      7.506
REMARK  7 active torsions:
REMARK  status: ('A' for Active; 'I' for Inactive)
REMARK    1  A    between atoms: C_2  and  N_3 
REMARK    2  A    between atoms: N_3  and  C_4 
REMARK    3  A    between atoms: C_6  and  N_7 
REMARK    4  A    between atoms: N_7  and  C_8 
REMARK    5  A    between atoms: C_8  and  C_9 
REMARK    6  A    between atoms: C_10  and  O_11 
REMARK    7  A    between atoms: C_14  and  O_15 
ROOT
HETATM    1  C   UNL     1     -42.876  56.379 -58.790  1.00  0.00     0.135 A 
HETATM    2  N   UNL     1     -42.918  55.986 -57.505  1.00  0.00    -0.052 NA
HETATM    3  C   UNL     1     -42.609  56.868 -56.543  1.00  0.00     0.702 A 
HETATM    4  N   UNL     1     -42.268  58.124 -56.821  1.00  0.00    -0.189 N 
HETATM    5  H   UNL     1     -42.073  58.738 -56.044  1.00  0.00     0.184 HD
HETATM    6  C   UNL     1     -42.235  58.578 -58.079  1.00  0.00     0.062 A 
HETATM    7  C   UNL     1     -42.552  57.706 -59.138  1.00  0.00     0.032 A 
HETATM    8  C   UNL     1     -41.902  59.919 -58.331  1.00  0.00     0.031 A 
HETATM    9  C   UNL     1     -41.893  60.406 -59.638  1.00  0.00     0.002 A 
HETATM   10  C   UNL     1     -42.217  59.562 -60.696  1.00  0.00     0.001 A 
HETATM   11  C   UNL     1     -42.545  58.226 -60.453  1.00  0.00     0.017 A 
ENDROOT
BRANCH   3  12
HETATM   12  N   UNL     1     -42.674  56.517 -55.220  1.00  0.00    -0.220 N 
HETATM   13  H   UNL     1     -43.530  56.522 -54.686  1.00  0.00     0.178 HD
BRANCH  12  14
HETATM   14  C   UNL     1     -41.457  56.502 -54.411  1.00  0.00     0.179 C 
BRANCH  14  15
HETATM   15  C   UNL     1     -41.056  55.092 -54.021  1.00  0.00    -0.006 A 
HETATM   16  C   UNL     1     -41.109  54.712 -52.663  1.00  0.00     0.078 A 
HETATM   17  C   UNL     1     -40.701  53.428 -52.272  1.00  0.00     0.074 A 
HETATM   18  C   UNL     1     -40.218  52.521 -53.217  1.00  0.00     0.070 A 
HETATM   19  C   UNL     1     -40.150  52.900 -54.556  1.00  0.00     0.037 A 
HETATM   20  C   UNL     1     -40.554  54.173 -54.956  1.00  0.00     0.014 A 
BRANCH  16  21
HETATM   21  O   UNL     1     -41.572  55.675 -51.802  1.00  0.00    -0.355 OA
HETATM   22  C   UNL     1     -42.873  55.494 -51.250  1.00  0.00     0.210 C 
ENDBRANCH  16  21
BRANCH  18  23
HETATM   23  O   UNL     1     -39.784  51.248 -52.968  1.00  0.00    -0.356 OA
HETATM   24  C   UNL     1     -39.511  50.907 -51.615  1.00  0.00     0.210 C 
ENDBRANCH  18  23
ENDBRANCH  14  15
ENDBRANCH  12  14
ENDBRANCH   3  12
BRANCH   1  25
HETATM   25  N   UNL     1     -43.232  55.465 -59.785  1.00  0.00    -0.272 NA
HETATM   26  H   UNL     1     -42.572  54.692 -59.849  1.00  0.00     0.129 HD
BRANCH  25  27
HETATM   27  C   UNL     1     -44.625  55.005 -59.854  1.00  0.00     0.053 C 
HETATM   28  C   UNL     1     -44.730  53.530 -59.466  1.00  0.00     0.026 C 
HETATM   29  C   UNL     1     -45.116  55.203 -61.289  1.00  0.00     0.026 C 
ENDBRANCH  25  27
ENDBRANCH   1  25
TORSDOF 7
ENDMDL
MODEL 9
REMARK VINA RESULT:      -7.2      4.404      7.201
REMARK  7 active torsions:
REMARK  status: ('A' for Active; 'I' for Inactive)
REMARK    1  A    between atoms: C_2  and  N_3 
REMARK    2  A    between atoms: N_3  and  C_4 
REMARK    3  A    between atoms: C_6  and  N_7 
REMARK    4  A    between atoms: N_7  and  C_8 
REMARK    5  A    between atoms: C_8  and  C_9 
REMARK    6  A    between atoms: C_10  and  O_11 
REMARK    7  A    between atoms: C_14  and  O_15 
ROOT
HETATM    1  C   UNL     1     -43.395  55.759 -54.240  1.00  0.00     0.135 A 
HETATM    2  N   UNL     1     -43.400  56.093 -55.543  1.00  0.00    -0.052 NA
HETATM    3  C   UNL     1     -42.452  55.593 -56.348  1.00  0.00     0.702 A 
HETATM    4  N   UNL     1     -41.509  54.768 -55.898  1.00  0.00    -0.189 N 
HETATM    5  H   UNL     1     -40.843  54.411 -56.567  1.00  0.00     0.184 HD
HETATM    6  C   UNL     1     -41.470  54.380 -54.619  1.00  0.00     0.062 A 
HETATM    7  C   UNL     1     -42.438  54.866 -53.719  1.00  0.00     0.032 A 
HETATM    8  C   UNL     1     -40.478  53.484 -54.188  1.00  0.00     0.031 A 
HETATM    9  C   UNL     1     -40.449  53.054 -52.861  1.00  0.00     0.002 A 
HETATM   10  C   UNL     1     -41.406  53.513 -51.962  1.00  0.00     0.001 A 
HETATM   11  C   UNL     1     -42.392  54.408 -52.382  1.00  0.00     0.017 A 
ENDROOT
BRANCH   3  12
HETATM   12  N   UNL     1     -42.443  55.879 -57.688  1.00  0.00    -0.220 N 
HETATM   13  H   UNL     1     -41.838  55.418 -58.350  1.00  0.00     0.178 HD
BRANCH  12  14
HETATM   14  C   UNL     1     -43.016  57.136 -58.166  1.00  0.00     0.179 C 
BRANCH  14  15
HETATM   15  C   UNL     1     -44.320  56.914 -58.909  1.00  0.00    -0.006 A 
HETATM   16  C   UNL     1     -45.488  57.566 -58.459  1.00  0.00     0.078 A 
HETATM   17  C   UNL     1     -46.715  57.343 -59.102  1.00  0.00     0.074 A 
HETATM   18  C   UNL     1     -46.798  56.457 -60.178  1.00  0.00     0.070 A 
HETATM   19  C   UNL     1     -45.649  55.799 -60.613  1.00  0.00     0.037 A 
HETATM   20  C   UNL     1     -44.425  56.015 -59.982  1.00  0.00     0.014 A 
BRANCH  16  21
HETATM   21  O   UNL     1     -45.317  58.399 -57.381  1.00  0.00    -0.355 OA
HETATM   22  C   UNL     1     -45.970  59.664 -57.416  1.00  0.00     0.210 C 
ENDBRANCH  16  21
BRANCH  18  23
HETATM   23  O   UNL     1     -47.927  56.146 -60.884  1.00  0.00    -0.356 OA
HETATM   24  C   UNL     1     -48.194  56.911 -62.053  1.00  0.00     0.210 C 
ENDBRANCH  18  23
ENDBRANCH  14  15
ENDBRANCH  12  14
ENDBRANCH   3  12
BRANCH   1  25
HETATM   25  N   UNL     1     -44.405  56.258 -53.414  1.00  0.00    -0.272 NA
HETATM   26  H   UNL     1     -44.761  55.551 -52.774  1.00  0.00     0.129 HD
BRANCH  25  27
HETATM   27  C   UNL     1     -44.196  57.549 -52.745  1.00  0.00     0.053 C 
HETATM   28  C   UNL     1     -44.779  57.530 -51.332  1.00  0.00     0.026 C 
HETATM   29  C   UNL     1     -44.885  58.629 -53.580  1.00  0.00     0.026 C 
ENDBRANCH  25  27
ENDBRANCH   1  25
TORSDOF 7
ENDMDL
MODEL 10
REMARK VINA RESULT:      -7.1      3.696      6.055
REMARK  7 active torsions:
REMARK  status: ('A' for Active; 'I' for Inactive)
REMARK    1  A    between atoms: C_2  and  N_3 
REMARK    2  A    between atoms: N_3  and  C_4 
REMARK    3  A    between atoms: C_6  and  N_7 
REMARK    4  A    between atoms: N_7  and  C_8 
REMARK    5  A    between atoms: C_8  and  C_9 
REMARK    6  A    between atoms: C_10  and  O_11 
REMARK    7  A    between atoms: C_14  and  O_15 
ROOT
HETATM    1  C   UNL     1     -41.522  54.862 -52.771  1.00  0.00     0.135 A 
HETATM    2  N   UNL     1     -41.806  55.475 -53.934  1.00  0.00    -0.052 NA
HETATM    3  C   UNL     1     -41.374  54.929 -55.081  1.00  0.00     0.702 A 
HETATM    4  N   UNL     1     -40.680  53.794 -55.103  1.00  0.00    -0.189 N 
HETATM    5  H   UNL     1     -40.410  53.430 -56.005  1.00  0.00     0.184 HD
HETATM    6  C   UNL     1     -40.391  53.127 -53.981  1.00  0.00     0.062 A 
HETATM    7  C   UNL     1     -40.817  53.642 -52.741  1.00  0.00     0.032 A 
HETATM    8  C   UNL     1     -39.684  51.916 -54.047  1.00  0.00     0.031 A 
HETATM    9  C   UNL     1     -39.404  51.201 -52.882  1.00  0.00     0.002 A 
HETATM   10  C   UNL     1     -39.830  51.688 -51.650  1.00  0.00     0.001 A 
HETATM   11  C   UNL     1     -40.529  52.895 -51.576  1.00  0.00     0.017 A 
ENDROOT
BRANCH   3  12
HETATM   12  N   UNL     1     -41.673  55.503 -56.289  1.00  0.00    -0.220 N 
HETATM   13  H   UNL     1     -41.061  55.460 -57.089  1.00  0.00     0.178 HD
BRANCH  12  14
HETATM   14  C   UNL     1     -42.700  56.539 -56.367  1.00  0.00     0.179 C 
BRANCH  14  15
HETATM   15  C   UNL     1     -42.585  57.353 -57.642  1.00  0.00    -0.006 A 
HETATM   16  C   UNL     1     -42.892  56.743 -58.877  1.00  0.00     0.078 A 
HETATM   17  C   UNL     1     -42.751  57.461 -60.074  1.00  0.00     0.074 A 
HETATM   18  C   UNL     1     -42.285  58.777 -60.058  1.00  0.00     0.070 A 
HETATM   19  C   UNL     1     -41.966  59.375 -58.841  1.00  0.00     0.037 A 
HETATM   20  C   UNL     1     -42.103  58.671 -57.646  1.00  0.00     0.014 A 
BRANCH  16  21
HETATM   21  O   UNL     1     -43.318  55.440 -58.799  1.00  0.00    -0.355 OA
HETATM   22  C   UNL     1     -44.160  54.960 -59.842  1.00  0.00     0.210 C 
ENDBRANCH  16  21
BRANCH  18  23
HETATM   23  O   UNL     1     -42.096  59.581 -61.148  1.00  0.00    -0.356 OA
HETATM   24  C   UNL     1     -41.722  60.932 -60.903  1.00  0.00     0.210 C 
ENDBRANCH  18  23
ENDBRANCH  14  15
ENDBRANCH  12  14
ENDBRANCH   3  12
BRANCH   1  25
HETATM   25  N   UNL     1     -42.003  55.418 -51.583  1.00  0.00    -0.272 NA
HETATM   26  H   UNL     1     -42.612  54.777 -51.078  1.00  0.00     0.129 HD
BRANCH  25  27
HETATM   27  C   UNL     1     -41.056  56.096 -50.688  1.00  0.00     0.053 C 
HETATM   28  C   UNL     1     -41.244  55.629 -49.244  1.00  0.00     0.026 C 
HETATM   29  C   UNL     1     -41.309  57.601 -50.788  1.00  0.00     0.026 C 
ENDBRANCH  25  27
ENDBRANCH   1  25
TORSDOF 7
ENDMDL
