MODEL 1
REMARK VINA RESULT:      -7.1      0.000      0.000
REMARK  8 active torsions:
REMARK  status: ('A' for Active; 'I' for Inactive)
REMARK    1  A    between atoms: C_4  and  C_5 
REMARK    2  A    between atoms: C_5  and  N_6 
REMARK    3  A    between atoms: N_6  and  C_9 
REMARK    4  A    between atoms: C_9  and  C_10 
REMARK    5  A    between atoms: C_10  and  C_11 
REMARK    6  A    between atoms: C_11  and  C_12 
REMARK    7  A    between atoms: C_17  and  O_18 
REMARK    8  A    between atoms: C_21  and  O_22 
ROOT
HETATM    1  C   UNL     1     -42.288  54.008 -54.617  1.00  0.00     0.010 A 
HETATM    2  N   UNL     1     -42.484  54.350 -53.299  1.00  0.00    -0.359 N 
HETATM    3  H   UNL     1     -43.144  55.035 -52.956  1.00  0.00     0.166 HD
HETATM    4  C   UNL     1     -41.623  53.651 -52.486  1.00  0.00     0.048 A 
HETATM    5  C   UNL     1     -40.858  52.819 -53.300  1.00  0.00     0.026 A 
HETATM    6  C   UNL     1     -39.879  51.982 -52.716  1.00  0.00     0.083 A 
HETATM    7  C   UNL     1     -39.711  52.030 -51.319  1.00  0.00     0.074 A 
HETATM    8  C   UNL     1     -40.482  52.882 -50.524  1.00  0.00     0.073 A 
HETATM    9  C   UNL     1     -41.461  53.699 -51.099  1.00  0.00     0.067 A 
HETATM   10  C   UNL     1     -41.288  53.054 -54.639  1.00  0.00     0.041 A 
ENDROOT
BRANCH   1  11
HETATM   11  C   UNL     1     -43.045  54.647 -55.727  1.00  0.00     0.059 C 
BRANCH  11  12
HETATM   12  C   UNL     1     -42.878  56.169 -55.724  1.00  0.00     0.033 C 
BRANCH  12  13
HETATM   13  C   UNL     1     -44.061  56.892 -55.089  1.00  0.00     0.233 C 
BRANCH  13  14
HETATM   14  N   UNL     1     -43.709  58.319 -54.822  1.00  0.00    -0.067 N 
HETATM   15  H   UNL     1     -44.399  58.922 -55.294  1.00  0.00     0.277 HD
HETATM   16  H   UNL     1     -42.807  58.568 -55.247  1.00  0.00     0.277 HD
BRANCH  14  17
HETATM   17  C   UNL     1     -43.662  58.755 -53.382  1.00  0.00     0.223 C 
HETATM   18  C   UNL     1     -44.403  57.744 -52.507  1.00  0.00     0.046 C 
BRANCH  17  19
HETATM   19  C   UNL     1     -42.246  58.927 -52.925  1.00  0.00     0.032 A 
HETATM   20  S   UNL     1     -41.826  59.043 -51.260  1.00  0.00    -0.076 SA
HETATM   21  C   UNL     1     -40.171  59.206 -51.690  1.00  0.00     0.071 A 
HETATM   22  C   UNL     1     -39.119  59.360 -50.645  1.00  0.00     0.078 C 
HETATM   23  N   UNL     1     -39.928  59.172 -52.981  1.00  0.00    -0.257 NA
HETATM   24  C   UNL     1     -41.101  59.029 -53.688  1.00  0.00     0.134 A 
ENDBRANCH  17  19
ENDBRANCH  14  17
ENDBRANCH  13  14
ENDBRANCH  12  13
ENDBRANCH  11  12
ENDBRANCH   1  11
BRANCH   6  25
HETATM   25  O   UNL     1     -39.166  51.182 -53.571  1.00  0.00    -0.355 OA
HETATM   26  C   UNL     1     -39.640  49.856 -53.772  1.00  0.00     0.210 C 
ENDBRANCH   6  25
BRANCH   8  27
HETATM   27  O   UNL     1     -40.390  53.009 -49.163  1.00  0.00    -0.356 OA
HETATM   28  C   UNL     1     -40.837  54.233 -48.593  1.00  0.00     0.210 C 
ENDBRANCH   8  27
TORSDOF 8
ENDMDL
MODEL 2
REMARK VINA RESULT:      -6.8      3.493      4.981
REMARK  8 active torsions:
REMARK  status: ('A' for Active; 'I' for Inactive)
REMARK    1  A    between atoms: C_4  and  C_5 
REMARK    2  A    between atoms: C_5  and  N_6 
REMARK    3  A    between atoms: N_6  and  C_9 
REMARK    4  A    between atoms: C_9  and  C_10 
REMARK    5  A    between atoms: C_10  and  C_11 
REMARK    6  A    between atoms: C_11  and  C_12 
REMARK    7  A    between atoms: C_17  and  O_18 
REMARK    8  A    between atoms: C_21  and  O_22 
ROOT
HETATM    1  C   UNL     1     -42.416  53.963 -54.501  1.00  0.00     0.010 A 
HETATM    2  N   UNL     1     -42.592  54.298 -53.179  1.00  0.00    -0.359 N 
HETATM    3  H   UNL     1     -43.275  54.951 -52.818  1.00  0.00     0.166 HD
HETATM    4  C   UNL     1     -41.677  53.642 -52.390  1.00  0.00     0.048 A 
HETATM    5  C   UNL     1     -40.896  52.847 -53.224  1.00  0.00     0.026 A 
HETATM    6  C   UNL     1     -39.863  52.059 -52.666  1.00  0.00     0.083 A 
HETATM    7  C   UNL     1     -39.658  52.117 -51.275  1.00  0.00     0.074 A 
HETATM    8  C   UNL     1     -40.448  52.932 -50.459  1.00  0.00     0.073 A 
HETATM    9  C   UNL     1     -41.480  53.701 -51.007  1.00  0.00     0.067 A 
HETATM   10  C   UNL     1     -41.374  53.059 -54.550  1.00  0.00     0.041 A 
ENDROOT
BRANCH   1  11
HETATM   11  C   UNL     1     -43.233  54.563 -55.590  1.00  0.00     0.059 C 
BRANCH  11  12
HETATM   12  C   UNL     1     -42.907  56.046 -55.792  1.00  0.00     0.033 C 
BRANCH  12  13
HETATM   13  C   UNL     1     -42.864  56.447 -57.263  1.00  0.00     0.233 C 
BRANCH  13  14
HETATM   14  N   UNL     1     -43.608  55.451 -58.090  1.00  0.00    -0.067 N 
HETATM   15  H   UNL     1     -44.613  55.530 -57.876  1.00  0.00     0.277 HD
HETATM   16  H   UNL     1     -43.358  54.488 -57.830  1.00  0.00     0.277 HD
BRANCH  14  17
HETATM   17  C   UNL     1     -43.471  55.563 -59.585  1.00  0.00     0.223 C 
HETATM   18  C   UNL     1     -44.615  54.817 -60.271  1.00  0.00     0.046 C 
BRANCH  17  19
HETATM   19  C   UNL     1     -43.434  56.999 -60.009  1.00  0.00     0.032 A 
HETATM   20  S   UNL     1     -41.955  57.838 -60.279  1.00  0.00    -0.076 SA
HETATM   21  C   UNL     1     -42.836  59.258 -60.681  1.00  0.00     0.071 A 
HETATM   22  C   UNL     1     -42.132  60.514 -61.065  1.00  0.00     0.078 C 
HETATM   23  N   UNL     1     -44.143  59.132 -60.629  1.00  0.00    -0.257 NA
HETATM   24  C   UNL     1     -44.489  57.859 -60.235  1.00  0.00     0.134 A 
ENDBRANCH  17  19
ENDBRANCH  14  17
ENDBRANCH  13  14
ENDBRANCH  12  13
ENDBRANCH  11  12
ENDBRANCH   1  11
BRANCH   6  25
HETATM   25  O   UNL     1     -39.136  51.292 -53.540  1.00  0.00    -0.355 OA
HETATM   26  C   UNL     1     -39.612  49.979 -53.808  1.00  0.00     0.210 C 
ENDBRANCH   6  25
BRANCH   8  27
HETATM   27  O   UNL     1     -40.324  53.066 -49.101  1.00  0.00    -0.356 OA
HETATM   28  C   UNL     1     -40.713  54.311 -48.532  1.00  0.00     0.210 C 
ENDBRANCH   8  27
TORSDOF 8
ENDMDL
MODEL 3
REMARK VINA RESULT:      -6.8      3.108      4.714
REMARK  8 active torsions:
REMARK  status: ('A' for Active; 'I' for Inactive)
REMARK    1  A    between atoms: C_4  and  C_5 
REMARK    2  A    between atoms: C_5  and  N_6 
REMARK    3  A    between atoms: N_6  and  C_9 
REMARK    4  A    between atoms: C_9  and  C_10 
REMARK    5  A    between atoms: C_10  and  C_11 
REMARK    6  A    between atoms: C_11  and  C_12 
REMARK    7  A    between atoms: C_17  and  O_18 
REMARK    8  A    between atoms: C_21  and  O_22 
ROOT
HETATM    1  C   UNL     1     -41.488  54.863 -54.918  1.00  0.00     0.010 A 
HETATM    2  N   UNL     1     -41.642  55.202 -53.593  1.00  0.00    -0.359 N 
HETATM    3  H   UNL     1     -42.099  56.033 -53.242  1.00  0.00     0.166 HD
HETATM    4  C   UNL     1     -41.052  54.259 -52.784  1.00  0.00     0.048 A 
HETATM    5  C   UNL     1     -40.514  53.274 -53.607  1.00  0.00     0.026 A 
HETATM    6  C   UNL     1     -39.840  52.175 -53.028  1.00  0.00     0.083 A 
HETATM    7  C   UNL     1     -39.730  52.125 -51.626  1.00  0.00     0.074 A 
HETATM    8  C   UNL     1     -40.268  53.132 -50.820  1.00  0.00     0.073 A 
HETATM    9  C   UNL     1     -40.949  54.212 -51.391  1.00  0.00     0.067 A 
HETATM   10  C   UNL     1     -40.798  53.667 -54.948  1.00  0.00     0.041 A 
ENDROOT
BRANCH   1  11
HETATM   11  C   UNL     1     -41.982  55.728 -56.023  1.00  0.00     0.059 C 
BRANCH  11  12
HETATM   12  C   UNL     1     -42.971  56.783 -55.519  1.00  0.00     0.033 C 
BRANCH  12  13
HETATM   13  C   UNL     1     -42.510  58.209 -55.800  1.00  0.00     0.233 C 
BRANCH  13  14
HETATM   14  N   UNL     1     -43.532  58.929 -56.618  1.00  0.00    -0.067 N 
HETATM   15  H   UNL     1     -43.746  59.827 -56.161  1.00  0.00     0.277 HD
HETATM   16  H   UNL     1     -44.425  58.420 -56.632  1.00  0.00     0.277 HD
BRANCH  14  17
HETATM   17  C   UNL     1     -43.170  59.242 -58.045  1.00  0.00     0.223 C 
HETATM   18  C   UNL     1     -41.753  59.810 -58.111  1.00  0.00     0.046 C 
BRANCH  17  19
HETATM   19  C   UNL     1     -43.302  58.023 -58.906  1.00  0.00     0.032 A 
HETATM   20  S   UNL     1     -44.808  57.223 -59.138  1.00  0.00    -0.076 SA
HETATM   21  C   UNL     1     -44.039  56.073 -60.157  1.00  0.00     0.071 A 
HETATM   22  C   UNL     1     -44.814  54.967 -60.788  1.00  0.00     0.078 C 
HETATM   23  N   UNL     1     -42.749  56.261 -60.328  1.00  0.00    -0.257 NA
HETATM   24  C   UNL     1     -42.322  57.355 -59.611  1.00  0.00     0.134 A 
ENDBRANCH  17  19
ENDBRANCH  14  17
ENDBRANCH  13  14
ENDBRANCH  12  13
ENDBRANCH  11  12
ENDBRANCH   1  11
BRANCH   6  25
HETATM   25  O   UNL     1     -39.340  51.236 -53.893  1.00  0.00    -0.355 OA
HETATM   26  C   UNL     1     -40.150  50.096 -54.157  1.00  0.00     0.210 C 
ENDBRANCH   6  25
BRANCH   8  27
HETATM   27  O   UNL     1     -40.208  53.181 -49.452  1.00  0.00    -0.356 OA
HETATM   28  C   UNL     1     -40.837  54.285 -48.813  1.00  0.00     0.210 C 
ENDBRANCH   8  27
TORSDOF 8
ENDMDL
MODEL 4
REMARK VINA RESULT:      -6.8      1.168      2.679
REMARK  8 active torsions:
REMARK  status: ('A' for Active; 'I' for Inactive)
REMARK    1  A    between atoms: C_4  and  C_5 
REMARK    2  A    between atoms: C_5  and  N_6 
REMARK    3  A    between atoms: N_6  and  C_9 
REMARK    4  A    between atoms: C_9  and  C_10 
REMARK    5  A    between atoms: C_10  and  C_11 
REMARK    6  A    between atoms: C_11  and  C_12 
REMARK    7  A    between atoms: C_17  and  O_18 
REMARK    8  A    between atoms: C_21  and  O_22 
ROOT
HETATM    1  C   UNL     1     -41.594  55.623 -54.775  1.00  0.00     0.010 A 
HETATM    2  N   UNL     1     -41.134  54.444 -55.313  1.00  0.00    -0.359 N 
HETATM    3  H   UNL     1     -41.147  54.193 -56.292  1.00  0.00     0.166 HD
HETATM    4  C   UNL     1     -40.670  53.611 -54.322  1.00  0.00     0.048 A 
HETATM    5  C   UNL     1     -40.820  54.276 -53.108  1.00  0.00     0.026 A 
HETATM    6  C   UNL     1     -40.420  53.639 -51.911  1.00  0.00     0.083 A 
HETATM    7  C   UNL     1     -39.888  52.339 -51.995  1.00  0.00     0.074 A 
HETATM    8  C   UNL     1     -39.758  51.686 -53.223  1.00  0.00     0.073 A 
HETATM    9  C   UNL     1     -40.139  52.321 -54.410  1.00  0.00     0.067 A 
HETATM   10  C   UNL     1     -41.402  55.542 -53.409  1.00  0.00     0.041 A 
ENDROOT
BRANCH   1  11
HETATM   11  C   UNL     1     -42.204  56.694 -55.609  1.00  0.00     0.059 C 
BRANCH  11  12
HETATM   12  C   UNL     1     -43.725  56.543 -55.701  1.00  0.00     0.033 C 
BRANCH  12  13
HETATM   13  C   UNL     1     -44.463  57.299 -54.602  1.00  0.00     0.233 C 
BRANCH  13  14
HETATM   14  N   UNL     1     -43.772  58.592 -54.313  1.00  0.00    -0.067 N 
HETATM   15  H   UNL     1     -44.322  59.358 -54.729  1.00  0.00     0.277 HD
HETATM   16  H   UNL     1     -42.858  58.640 -54.781  1.00  0.00     0.277 HD
BRANCH  14  17
HETATM   17  C   UNL     1     -43.556  58.946 -52.866  1.00  0.00     0.223 C 
HETATM   18  C   UNL     1     -44.220  57.902 -51.970  1.00  0.00     0.046 C 
BRANCH  17  19
HETATM   19  C   UNL     1     -42.094  59.065 -52.562  1.00  0.00     0.032 A 
HETATM   20  S   UNL     1     -41.491  59.087 -50.951  1.00  0.00    -0.076 SA
HETATM   21  C   UNL     1     -39.889  59.237 -51.553  1.00  0.00     0.071 A 
HETATM   22  C   UNL     1     -38.724  59.316 -50.626  1.00  0.00     0.078 C 
HETATM   23  N   UNL     1     -39.791  59.264 -52.864  1.00  0.00    -0.257 NA
HETATM   24  C   UNL     1     -41.037  59.181 -53.442  1.00  0.00     0.134 A 
ENDBRANCH  17  19
ENDBRANCH  14  17
ENDBRANCH  13  14
ENDBRANCH  12  13
ENDBRANCH  11  12
ENDBRANCH   1  11
BRANCH   6  25
HETATM   25  O   UNL     1     -40.586  54.351 -50.751  1.00  0.00    -0.355 OA
HETATM   26  C   UNL     1     -39.741  54.021 -49.656  1.00  0.00     0.210 C 
ENDBRANCH   6  25
BRANCH   8  27
HETATM   27  O   UNL     1     -39.263  50.422 -53.411  1.00  0.00    -0.356 OA
HETATM   28  C   UNL     1     -39.677  49.419 -52.491  1.00  0.00     0.210 C 
ENDBRANCH   8  27
TORSDOF 8
ENDMDL
MODEL 5
REMARK VINA RESULT:      -6.5     15.149     17.456
REMARK  8 active torsions:
REMARK  status: ('A' for Active; 'I' for Inactive)
REMARK    1  A    between atoms: C_4  and  C_5 
REMARK    2  A    between atoms: C_5  and  N_6 
REMARK    3  A    between atoms: N_6  and  C_9 
REMARK    4  A    between atoms: C_9  and  C_10 
REMARK    5  A    between atoms: C_10  and  C_11 
REMARK    6  A    between atoms: C_11  and  C_12 
REMARK    7  A    between atoms: C_17  and  O_18 
REMARK    8  A    between atoms: C_21  and  O_22 
ROOT
HETATM    1  C   UNL     1     -33.103  40.213 -54.868  1.00  0.00     0.010 A 
HETATM    2  N   UNL     1     -33.580  41.400 -55.374  1.00  0.00    -0.359 N 
HETATM    3  H   UNL     1     -33.290  42.326 -55.089  1.00  0.00     0.166 HD
HETATM    4  C   UNL     1     -34.550  41.166 -56.321  1.00  0.00     0.048 A 
HETATM    5  C   UNL     1     -34.695  39.787 -56.442  1.00  0.00     0.026 A 
HETATM    6  C   UNL     1     -35.639  39.264 -57.355  1.00  0.00     0.083 A 
HETATM    7  C   UNL     1     -36.410  40.171 -58.107  1.00  0.00     0.074 A 
HETATM    8  C   UNL     1     -36.256  41.552 -57.959  1.00  0.00     0.073 A 
HETATM    9  C   UNL     1     -35.310  42.070 -57.068  1.00  0.00     0.067 A 
HETATM   10  C   UNL     1     -33.777  39.200 -55.523  1.00  0.00     0.041 A 
ENDROOT
BRANCH   1  11
HETATM   11  C   UNL     1     -32.081  40.161 -53.788  1.00  0.00     0.059 C 
BRANCH  11  12
HETATM   12  C   UNL     1     -31.939  38.749 -53.212  1.00  0.00     0.033 C 
BRANCH  12  13
HETATM   13  C   UNL     1     -32.308  38.674 -51.734  1.00  0.00     0.233 C 
BRANCH  13  14
HETATM   14  N   UNL     1     -33.792  38.603 -51.577  1.00  0.00    -0.067 N 
HETATM   15  H   UNL     1     -34.023  37.786 -50.994  1.00  0.00     0.277 HD
HETATM   16  H   UNL     1     -34.255  38.424 -52.477  1.00  0.00     0.277 HD
BRANCH  14  17
HETATM   17  C   UNL     1     -34.472  39.791 -50.951  1.00  0.00     0.223 C 
HETATM   18  C   UNL     1     -33.429  40.732 -50.350  1.00  0.00     0.046 C 
BRANCH  17  19
HETATM   19  C   UNL     1     -35.326  40.504 -51.954  1.00  0.00     0.032 A 
HETATM   20  S   UNL     1     -36.500  39.683 -52.909  1.00  0.00    -0.076 SA
HETATM   21  C   UNL     1     -36.916  41.166 -53.670  1.00  0.00     0.071 A 
HETATM   22  C   UNL     1     -37.977  41.220 -54.715  1.00  0.00     0.078 C 
HETATM   23  N   UNL     1     -36.242  42.213 -53.249  1.00  0.00    -0.257 NA
HETATM   24  C   UNL     1     -35.329  41.843 -52.287  1.00  0.00     0.134 A 
ENDBRANCH  17  19
ENDBRANCH  14  17
ENDBRANCH  13  14
ENDBRANCH  12  13
ENDBRANCH  11  12
ENDBRANCH   1  11
BRANCH   6  25
HETATM   25  O   UNL     1     -35.728  37.898 -57.433  1.00  0.00    -0.355 OA
HETATM   26  C   UNL     1     -36.958  37.301 -57.044  1.00  0.00     0.210 C 
ENDBRANCH   6  25
BRANCH   8  27
HETATM   27  O   UNL     1     -36.960  42.514 -58.634  1.00  0.00    -0.356 OA
HETATM   28  C   UNL     1     -37.362  42.211 -59.965  1.00  0.00     0.210 C 
ENDBRANCH   8  27
TORSDOF 8
ENDMDL
MODEL 6
REMARK VINA RESULT:      -6.5      2.082      4.659
REMARK  8 active torsions:
REMARK  status: ('A' for Active; 'I' for Inactive)
REMARK    1  A    between atoms: C_4  and  C_5 
REMARK    2  A    between atoms: C_5  and  N_6 
REMARK    3  A    between atoms: N_6  and  C_9 
REMARK    4  A    between atoms: C_9  and  C_10 
REMARK    5  A    between atoms: C_10  and  C_11 
REMARK    6  A    between atoms: C_11  and  C_12 
REMARK    7  A    between atoms: C_17  and  O_18 
REMARK    8  A    between atoms: C_21  and  O_22 
ROOT
HETATM    1  C   UNL     1     -43.585  56.405 -51.416  1.00  0.00     0.010 A 
HETATM    2  N   UNL     1     -43.507  55.536 -52.479  1.00  0.00    -0.359 N 
HETATM    3  H   UNL     1     -44.160  55.481 -53.250  1.00  0.00     0.166 HD
HETATM    4  C   UNL     1     -42.419  54.705 -52.345  1.00  0.00     0.048 A 
HETATM    5  C   UNL     1     -41.765  55.057 -51.167  1.00  0.00     0.026 A 
HETATM    6  C   UNL     1     -40.602  54.353 -50.780  1.00  0.00     0.083 A 
HETATM    7  C   UNL     1     -40.152  53.306 -51.607  1.00  0.00     0.074 A 
HETATM    8  C   UNL     1     -40.832  52.963 -52.778  1.00  0.00     0.073 A 
HETATM    9  C   UNL     1     -41.974  53.669 -53.170  1.00  0.00     0.067 A 
HETATM   10  C   UNL     1     -42.510  56.130 -50.594  1.00  0.00     0.041 A 
ENDROOT
BRANCH   1  11
HETATM   11  C   UNL     1     -44.694  57.386 -51.269  1.00  0.00     0.059 C 
BRANCH  11  12
HETATM   12  C   UNL     1     -44.784  58.323 -52.477  1.00  0.00     0.033 C 
BRANCH  12  13
HETATM   13  C   UNL     1     -43.498  59.107 -52.716  1.00  0.00     0.233 C 
BRANCH  13  14
HETATM   14  N   UNL     1     -43.279  59.302 -54.181  1.00  0.00    -0.067 N 
HETATM   15  H   UNL     1     -43.231  60.313 -54.374  1.00  0.00     0.277 HD
HETATM   16  H   UNL     1     -44.082  58.967 -54.727  1.00  0.00     0.277 HD
BRANCH  14  17
HETATM   17  C   UNL     1     -42.041  58.686 -54.777  1.00  0.00     0.223 C 
HETATM   18  C   UNL     1     -41.161  58.111 -53.669  1.00  0.00     0.046 C 
BRANCH  17  19
HETATM   19  C   UNL     1     -42.403  57.633 -55.779  1.00  0.00     0.032 A 
HETATM   20  S   UNL     1     -43.260  57.999 -57.227  1.00  0.00    -0.076 SA
HETATM   21  C   UNL     1     -43.213  56.341 -57.673  1.00  0.00     0.071 A 
HETATM   22  C   UNL     1     -43.824  55.872 -58.949  1.00  0.00     0.078 C 
HETATM   23  N   UNL     1     -42.599  55.554 -56.817  1.00  0.00    -0.257 NA
HETATM   24  C   UNL     1     -42.150  56.277 -55.734  1.00  0.00     0.134 A 
ENDBRANCH  17  19
ENDBRANCH  14  17
ENDBRANCH  13  14
ENDBRANCH  12  13
ENDBRANCH  11  12
ENDBRANCH   1  11
BRANCH   6  25
HETATM   25  O   UNL     1     -40.000  54.754 -49.615  1.00  0.00    -0.355 OA
HETATM   26  C   UNL     1     -40.318  54.028 -48.434  1.00  0.00     0.210 C 
ENDBRANCH   6  25
BRANCH   8  27
HETATM   27  O   UNL     1     -40.483  51.959 -53.643  1.00  0.00    -0.356 OA
HETATM   28  C   UNL     1     -39.460  51.064 -53.221  1.00  0.00     0.210 C 
ENDBRANCH   8  27
TORSDOF 8
ENDMDL
MODEL 7
REMARK VINA RESULT:      -6.5      3.146      5.442
REMARK  8 active torsions:
REMARK  status: ('A' for Active; 'I' for Inactive)
REMARK    1  A    between atoms: C_4  and  C_5 
REMARK    2  A    between atoms: C_5  and  N_6 
REMARK    3  A    between atoms: N_6  and  C_9 
REMARK    4  A    between atoms: C_9  and  C_10 
REMARK    5  A    between atoms: C_10  and  C_11 
REMARK    6  A    between atoms: C_11  and  C_12 
REMARK    7  A    between atoms: C_17  and  O_18 
REMARK    8  A    between atoms: C_21  and  O_22 
ROOT
HETATM    1  C   UNL     1     -42.163  55.760 -54.071  1.00  0.00     0.010 A 
HETATM    2  N   UNL     1     -41.802  54.572 -54.661  1.00  0.00    -0.359 N 
HETATM    3  H   UNL     1     -42.012  54.293 -55.610  1.00  0.00     0.166 HD
HETATM    4  C   UNL     1     -41.131  53.772 -53.765  1.00  0.00     0.048 A 
HETATM    5  C   UNL     1     -41.041  54.471 -52.564  1.00  0.00     0.026 A 
HETATM    6  C   UNL     1     -40.394  53.873 -51.458  1.00  0.00     0.083 A 
HETATM    7  C   UNL     1     -39.868  52.576 -51.616  1.00  0.00     0.074 A 
HETATM    8  C   UNL     1     -39.982  51.890 -52.828  1.00  0.00     0.073 A 
HETATM    9  C   UNL     1     -40.608  52.487 -53.927  1.00  0.00     0.067 A 
HETATM   10  C   UNL     1     -41.694  55.721 -52.772  1.00  0.00     0.041 A 
ENDROOT
BRANCH   1  11
HETATM   11  C   UNL     1     -42.948  56.800 -54.789  1.00  0.00     0.059 C 
BRANCH  11  12
HETATM   12  C   UNL     1     -44.334  56.993 -54.167  1.00  0.00     0.033 C 
BRANCH  12  13
HETATM   13  C   UNL     1     -45.070  58.206 -54.726  1.00  0.00     0.233 C 
BRANCH  13  14
HETATM   14  N   UNL     1     -45.907  57.806 -55.897  1.00  0.00    -0.067 N 
HETATM   15  H   UNL     1     -46.895  58.000 -55.677  1.00  0.00     0.277 HD
HETATM   16  H   UNL     1     -45.867  56.792 -56.057  1.00  0.00     0.277 HD
BRANCH  14  17
HETATM   17  C   UNL     1     -45.614  58.480 -57.211  1.00  0.00     0.223 C 
HETATM   18  C   UNL     1     -44.588  59.594 -57.008  1.00  0.00     0.046 C 
BRANCH  17  19
HETATM   19  C   UNL     1     -45.135  57.484 -58.222  1.00  0.00     0.032 A 
HETATM   20  S   UNL     1     -46.128  56.941 -59.518  1.00  0.00    -0.076 SA
HETATM   21  C   UNL     1     -44.853  55.932 -60.072  1.00  0.00     0.071 A 
HETATM   22  C   UNL     1     -45.020  55.081 -61.284  1.00  0.00     0.078 C 
HETATM   23  N   UNL     1     -43.752  55.988 -59.356  1.00  0.00    -0.257 NA
HETATM   24  C   UNL     1     -43.909  56.854 -58.298  1.00  0.00     0.134 A 
ENDBRANCH  17  19
ENDBRANCH  14  17
ENDBRANCH  13  14
ENDBRANCH  12  13
ENDBRANCH  11  12
ENDBRANCH   1  11
BRANCH   6  25
HETATM   25  O   UNL     1     -40.332  54.615 -50.308  1.00  0.00    -0.355 OA
HETATM   26  C   UNL     1     -39.890  53.955 -49.128  1.00  0.00     0.210 C 
ENDBRANCH   6  25
BRANCH   8  27
HETATM   27  O   UNL     1     -39.514  50.627 -53.081  1.00  0.00    -0.356 OA
HETATM   28  C   UNL     1     -39.763  50.088 -54.373  1.00  0.00     0.210 C 
ENDBRANCH   8  27
TORSDOF 8
ENDMDL
MODEL 8
REMARK VINA RESULT:      -6.5      3.587      5.905
REMARK  8 active torsions:
REMARK  status: ('A' for Active; 'I' for Inactive)
REMARK    1  A    between atoms: C_4  and  C_5 
REMARK    2  A    between atoms: C_5  and  N_6 
REMARK    3  A    between atoms: N_6  and  C_9 
REMARK    4  A    between atoms: C_9  and  C_10 
REMARK    5  A    between atoms: C_10  and  C_11 
REMARK    6  A    between atoms: C_11  and  C_12 
REMARK    7  A    between atoms: C_17  and  O_18 
REMARK    8  A    between atoms: C_21  and  O_22 
ROOT
HETATM    1  C   UNL     1     -42.750  55.121 -54.308  1.00  0.00     0.010 A 
HETATM    2  N   UNL     1     -42.220  54.004 -54.911  1.00  0.00    -0.359 N 
HETATM    3  H   UNL     1     -42.421  53.685 -55.849  1.00  0.00     0.166 HD
HETATM    4  C   UNL     1     -41.386  53.337 -54.044  1.00  0.00     0.048 A 
HETATM    5  C   UNL     1     -41.362  54.052 -52.850  1.00  0.00     0.026 A 
HETATM    6  C   UNL     1     -40.576  53.582 -51.773  1.00  0.00     0.083 A 
HETATM    7  C   UNL     1     -39.847  52.391 -51.951  1.00  0.00     0.074 A 
HETATM    8  C   UNL     1     -39.896  51.684 -53.156  1.00  0.00     0.073 A 
HETATM    9  C   UNL     1     -40.661  52.157 -54.227  1.00  0.00     0.067 A 
HETATM   10  C   UNL     1     -42.224  55.173 -53.031  1.00  0.00     0.041 A 
ENDROOT
BRANCH   1  11
HETATM   11  C   UNL     1     -43.729  56.007 -54.992  1.00  0.00     0.059 C 
BRANCH  11  12
HETATM   12  C   UNL     1     -43.043  57.210 -55.647  1.00  0.00     0.033 C 
BRANCH  12  13
HETATM   13  C   UNL     1     -42.709  56.972 -57.116  1.00  0.00     0.233 C 
BRANCH  13  14
HETATM   14  N   UNL     1     -43.601  55.916 -57.683  1.00  0.00    -0.067 N 
HETATM   15  H   UNL     1     -44.545  56.035 -57.288  1.00  0.00     0.277 HD
HETATM   16  H   UNL     1     -43.307  54.977 -57.382  1.00  0.00     0.277 HD
BRANCH  14  17
HETATM   17  C   UNL     1     -43.756  55.880 -59.180  1.00  0.00     0.223 C 
HETATM   18  C   UNL     1     -44.374  54.550 -59.608  1.00  0.00     0.046 C 
BRANCH  17  19
HETATM   19  C   UNL     1     -44.582  57.036 -59.655  1.00  0.00     0.032 A 
HETATM   20  S   UNL     1     -46.297  57.059 -59.510  1.00  0.00    -0.076 SA
HETATM   21  C   UNL     1     -46.338  58.610 -60.247  1.00  0.00     0.071 A 
HETATM   22  C   UNL     1     -47.629  59.322 -60.465  1.00  0.00     0.078 C 
HETATM   23  N   UNL     1     -45.163  59.096 -60.579  1.00  0.00    -0.257 NA
HETATM   24  C   UNL     1     -44.164  58.203 -60.260  1.00  0.00     0.134 A 
ENDBRANCH  17  19
ENDBRANCH  14  17
ENDBRANCH  13  14
ENDBRANCH  12  13
ENDBRANCH  11  12
ENDBRANCH   1  11
BRANCH   6  25
HETATM   25  O   UNL     1     -40.590  54.336 -50.628  1.00  0.00    -0.355 OA
HETATM   26  C   UNL     1     -40.434  53.648 -49.393  1.00  0.00     0.210 C 
ENDBRANCH   6  25
BRANCH   8  27
HETATM   27  O   UNL     1     -39.234  50.515 -53.426  1.00  0.00    -0.356 OA
HETATM   28  C   UNL     1     -39.662  49.774 -54.562  1.00  0.00     0.210 C 
ENDBRANCH   8  27
TORSDOF 8
ENDMDL
MODEL 9
REMARK VINA RESULT:      -6.3      3.954      5.346
REMARK  8 active torsions:
REMARK  status: ('A' for Active; 'I' for Inactive)
REMARK    1  A    between atoms: C_4  and  C_5 
REMARK    2  A    between atoms: C_5  and  N_6 
REMARK    3  A    between atoms: N_6  and  C_9 
REMARK    4  A    between atoms: C_9  and  C_10 
REMARK    5  A    between atoms: C_10  and  C_11 
REMARK    6  A    between atoms: C_11  and  C_12 
REMARK    7  A    between atoms: C_17  and  O_18 
REMARK    8  A    between atoms: C_21  and  O_22 
ROOT
HETATM    1  C   UNL     1     -42.692  55.781 -56.181  1.00  0.00     0.010 A 
HETATM    2  N   UNL     1     -41.603  54.942 -56.212  1.00  0.00    -0.359 N 
HETATM    3  H   UNL     1     -41.017  54.758 -57.016  1.00  0.00     0.166 HD
HETATM    4  C   UNL     1     -41.423  54.340 -54.988  1.00  0.00     0.048 A 
HETATM    5  C   UNL     1     -42.416  54.816 -54.136  1.00  0.00     0.026 A 
HETATM    6  C   UNL     1     -42.466  54.354 -52.800  1.00  0.00     0.083 A 
HETATM    7  C   UNL     1     -41.505  53.414 -52.384  1.00  0.00     0.074 A 
HETATM    8  C   UNL     1     -40.525  52.941 -53.262  1.00  0.00     0.073 A 
HETATM    9  C   UNL     1     -40.464  53.410 -54.578  1.00  0.00     0.067 A 
HETATM   10  C   UNL     1     -43.206  55.723 -54.900  1.00  0.00     0.041 A 
ENDROOT
BRANCH   1  11
HETATM   11  C   UNL     1     -43.157  56.526 -57.382  1.00  0.00     0.059 C 
BRANCH  11  12
HETATM   12  C   UNL     1     -43.437  55.587 -58.559  1.00  0.00     0.033 C 
BRANCH  12  13
HETATM   13  C   UNL     1     -43.266  56.268 -59.912  1.00  0.00     0.233 C 
BRANCH  13  14
HETATM   14  N   UNL     1     -42.247  57.356 -59.816  1.00  0.00    -0.067 N 
HETATM   15  H   UNL     1     -41.406  57.067 -60.337  1.00  0.00     0.277 HD
HETATM   16  H   UNL     1     -41.925  57.483 -58.848  1.00  0.00     0.277 HD
BRANCH  14  17
HETATM   17  C   UNL     1     -42.639  58.711 -60.341  1.00  0.00     0.223 C 
HETATM   18  C   UNL     1     -44.161  58.847 -60.345  1.00  0.00     0.046 C 
BRANCH  17  19
HETATM   19  C   UNL     1     -42.004  59.799 -59.531  1.00  0.00     0.032 A 
HETATM   20  S   UNL     1     -41.580  61.322 -60.211  1.00  0.00    -0.076 SA
HETATM   21  C   UNL     1     -40.982  61.837 -58.684  1.00  0.00     0.071 A 
HETATM   22  C   UNL     1     -40.405  63.199 -58.506  1.00  0.00     0.078 C 
HETATM   23  N   UNL     1     -41.089  60.949 -57.721  1.00  0.00    -0.257 NA
HETATM   24  C   UNL     1     -41.654  59.787 -58.196  1.00  0.00     0.134 A 
ENDBRANCH  17  19
ENDBRANCH  14  17
ENDBRANCH  13  14
ENDBRANCH  12  13
ENDBRANCH  11  12
ENDBRANCH   1  11
BRANCH   6  25
HETATM   25  O   UNL     1     -43.463  54.866 -52.011  1.00  0.00    -0.355 OA
HETATM   26  C   UNL     1     -43.072  55.700 -50.926  1.00  0.00     0.210 C 
ENDBRANCH   6  25
BRANCH   8  27
HETATM   27  O   UNL     1     -39.554  52.023 -52.959  1.00  0.00    -0.356 OA
HETATM   28  C   UNL     1     -39.644  50.750 -53.588  1.00  0.00     0.210 C 
ENDBRANCH   8  27
TORSDOF 8
ENDMDL
MODEL 10
REMARK VINA RESULT:      -6.3     15.311     17.440
REMARK  8 active torsions:
REMARK  status: ('A' for Active; 'I' for Inactive)
REMARK    1  A    between atoms: C_4  and  C_5 
REMARK    2  A    between atoms: C_5  and  N_6 
REMARK    3  A    between atoms: N_6  and  C_9 
REMARK    4  A    between atoms: C_9  and  C_10 
REMARK    5  A    between atoms: C_10  and  C_11 
REMARK    6  A    between atoms: C_11  and  C_12 
REMARK    7  A    between atoms: C_17  and  O_18 
REMARK    8  A    between atoms: C_21  and  O_22 
ROOT
HETATM    1  C   UNL     1     -34.142  40.610 -56.413  1.00  0.00     0.010 A 
HETATM    2  N   UNL     1     -34.798  39.402 -56.468  1.00  0.00    -0.359 N 
HETATM    3  H   UNL     1     -34.500  38.544 -56.022  1.00  0.00     0.166 HD
HETATM    4  C   UNL     1     -35.923  39.499 -57.253  1.00  0.00     0.048 A 
HETATM    5  C   UNL     1     -36.006  40.813 -57.707  1.00  0.00     0.026 A 
HETATM    6  C   UNL     1     -37.080  41.192 -58.546  1.00  0.00     0.083 A 
HETATM    7  C   UNL     1     -38.026  40.213 -58.900  1.00  0.00     0.074 A 
HETATM    8  C   UNL     1     -37.914  38.897 -58.442  1.00  0.00     0.073 A 
HETATM    9  C   UNL     1     -36.862  38.524 -57.599  1.00  0.00     0.067 A 
HETATM   10  C   UNL     1     -34.880  41.501 -57.169  1.00  0.00     0.041 A 
ENDROOT
BRANCH   1  11
HETATM   11  C   UNL     1     -32.862  40.788 -55.676  1.00  0.00     0.059 C 
BRANCH  11  12
HETATM   12  C   UNL     1     -32.377  39.474 -55.057  1.00  0.00     0.033 C 
BRANCH  12  13
HETATM   13  C   UNL     1     -32.227  39.554 -53.542  1.00  0.00     0.233 C 
BRANCH  13  14
HETATM   14  N   UNL     1     -32.865  40.803 -53.026  1.00  0.00    -0.067 N 
HETATM   15  H   UNL     1     -33.180  41.367 -53.829  1.00  0.00     0.277 HD
HETATM   16  H   UNL     1     -32.182  41.398 -52.539  1.00  0.00     0.277 HD
BRANCH  14  17
HETATM   17  C   UNL     1     -34.051  40.641 -52.114  1.00  0.00     0.223 C 
HETATM   18  C   UNL     1     -34.146  41.835 -51.165  1.00  0.00     0.046 C 
BRANCH  17  19
HETATM   19  C   UNL     1     -35.312  40.481 -52.907  1.00  0.00     0.032 A 
HETATM   20  S   UNL     1     -36.173  41.829 -53.542  1.00  0.00    -0.076 SA
HETATM   21  C   UNL     1     -37.342  40.764 -54.215  1.00  0.00     0.071 A 
HETATM   22  C   UNL     1     -38.501  41.289 -54.991  1.00  0.00     0.078 C 
HETATM   23  N   UNL     1     -37.117  39.487 -53.997  1.00  0.00    -0.257 NA
HETATM   24  C   UNL     1     -35.977  39.320 -53.244  1.00  0.00     0.134 A 
ENDBRANCH  17  19
ENDBRANCH  14  17
ENDBRANCH  13  14
ENDBRANCH  12  13
ENDBRANCH  11  12
ENDBRANCH   1  11
BRANCH   6  25
HETATM   25  O   UNL     1     -37.109  42.501 -58.952  1.00  0.00    -0.355 OA
HETATM   26  C   UNL     1     -37.373  42.753 -60.326  1.00  0.00     0.210 C 
ENDBRANCH   6  25
BRANCH   8  27
HETATM   27  O   UNL     1     -38.774  37.871 -58.735  1.00  0.00    -0.356 OA
HETATM   28  C   UNL     1     -38.765  37.376 -60.068  1.00  0.00     0.210 C 
ENDBRANCH   8  27
TORSDOF 8
ENDMDL
