MODEL 1
REMARK VINA RESULT:      -9.6      0.000      0.000
REMARK  5 active torsions:
REMARK  status: ('A' for Active; 'I' for Inactive)
REMARK    1  A    between atoms: N_4  and  C_5 
REMARK    2  A    between atoms: C_16  and  N_17 
REMARK       I    between atoms: N_17  and  C_18 
REMARK    3  A    between atoms: C_18  and  C_19 
REMARK       I    between atoms: C_19  and  N_20 
REMARK    4  A    between atoms: N_20  and  C_21 
REMARK    5  A    between atoms: C_21  and  C_22 
ROOT
HETATM    1  C   UNL     1     -45.028  54.976 -61.265  1.00  0.00     0.072 C 
HETATM    2  C   UNL     1     -44.187  55.673 -60.260  1.00  0.00     0.055 C 
HETATM    3  N   UNL     1     -43.529  56.789 -60.586  1.00  0.00    -0.156 NA
HETATM    4  N   UNL     1     -42.908  57.181 -59.419  1.00  0.00    -0.045 N 
HETATM    5  C   UNL     1     -43.015  56.187 -58.447  1.00  0.00     0.152 C 
HETATM    6  C   UNL     1     -43.942  55.287 -58.927  1.00  0.00     0.079 C 
ENDROOT
BRANCH   5   7
HETATM    7  N   UNL     1     -42.383  56.135 -57.219  1.00  0.00    -0.303 N 
HETATM    8  C   UNL     1     -42.973  56.642 -56.076  1.00  0.00     0.315 C 
HETATM    9  O   UNL     1     -44.067  57.177 -55.960  1.00  0.00    -0.262 OA
HETATM   10  H   UNL     1     -41.369  56.060 -57.176  1.00  0.00     0.171 HD
BRANCH   8  11
HETATM   11  C   UNL     1     -42.014  56.591 -54.865  1.00  0.00     0.310 C 
HETATM   12  N   UNL     1     -41.837  55.331 -54.345  1.00  0.00    -0.349 N 
HETATM   13  H   UNL     1     -42.392  54.584 -54.752  1.00  0.00     0.163 HD
HETATM   14  O   UNL     1     -41.514  57.624 -54.442  1.00  0.00    -0.262 OA
BRANCH  12  15
HETATM   15  C   UNL     1     -41.000  55.076 -53.202  1.00  0.00     0.161 C 
BRANCH  15  16
HETATM   16  C   UNL     1     -40.573  53.633 -53.125  1.00  0.00    -0.040 A 
HETATM   17  C   UNL     1     -40.119  53.084 -51.916  1.00  0.00     0.010 A 
HETATM   18  C   UNL     1     -39.744  51.739 -51.845  1.00  0.00     0.024 A 
HETATM   19  C   UNL     1     -39.812  50.939 -52.983  1.00  0.00     0.034 A 
HETATM   20 CL   UNL     1     -39.365  49.280 -52.891  1.00  0.00    -0.084 Cl
HETATM   21  C   UNL     1     -40.244  51.473 -54.195  1.00  0.00     0.024 A 
HETATM   22  C   UNL     1     -40.617  52.817 -54.266  1.00  0.00     0.010 A 
ENDBRANCH  15  16
ENDBRANCH  12  15
ENDBRANCH   8  11
ENDBRANCH   5   7
BRANCH   4  23
HETATM   23  C   UNL     1     -42.468  58.523 -59.327  1.00  0.00     0.732 A 
HETATM   24  N   UNL     1     -42.135  59.270 -60.330  1.00  0.00    -0.067 NA
HETATM   25  C   UNL     1     -41.691  60.540 -60.028  1.00  0.00     0.065 A 
HETATM   26  C   UNL     1     -41.480  60.993 -58.778  1.00  0.00     0.036 A 
HETATM   27  C   UNL     1     -41.453  61.434 -61.224  1.00  0.00     0.060 C 
HETATM   28  C   UNL     1     -40.942  62.353 -58.440  1.00  0.00     0.046 C 
HETATM   29  C   UNL     1     -41.801  60.086 -57.651  1.00  0.00     0.268 A 
HETATM   30  C   UNL     1     -40.401  63.101 -59.660  1.00  0.00     0.005 C 
HETATM   31  C   UNL     1     -41.317  62.916 -60.863  1.00  0.00     0.006 C 
HETATM   32  O   UNL     1     -41.573  60.383 -56.485  1.00  0.00    -0.267 OA
HETATM   33  N   UNL     1     -42.359  58.903 -58.014  1.00  0.00    -0.152 N 
HETATM   34  H   UNL     1     -42.571  58.218 -57.295  1.00  0.00     0.188 HD
ENDBRANCH   4  23
TORSDOF 5
ENDMDL
MODEL 2
REMARK VINA RESULT:      -9.4      3.743      8.855
REMARK  5 active torsions:
REMARK  status: ('A' for Active; 'I' for Inactive)
REMARK    1  A    between atoms: N_4  and  C_5 
REMARK    2  A    between atoms: C_16  and  N_17 
REMARK       I    between atoms: N_17  and  C_18 
REMARK    3  A    between atoms: C_18  and  C_19 
REMARK       I    between atoms: C_19  and  N_20 
REMARK    4  A    between atoms: N_20  and  C_21 
REMARK    5  A    between atoms: C_21  and  C_22 
ROOT
HETATM    1  C   UNL     1     -45.389  58.816 -50.750  1.00  0.00     0.072 C 
HETATM    2  C   UNL     1     -44.555  58.129 -51.769  1.00  0.00     0.055 C 
HETATM    3  N   UNL     1     -43.507  57.390 -51.398  1.00  0.00    -0.156 NA
HETATM    4  N   UNL     1     -43.011  56.873 -52.577  1.00  0.00    -0.045 N 
HETATM    5  C   UNL     1     -43.626  57.473 -53.674  1.00  0.00     0.152 C 
HETATM    6  C   UNL     1     -44.702  58.170 -53.170  1.00  0.00     0.079 C 
ENDROOT
BRANCH   5   7
HETATM    7  N   UNL     1     -43.282  57.348 -55.007  1.00  0.00    -0.303 N 
HETATM    8  C   UNL     1     -42.347  58.178 -55.597  1.00  0.00     0.315 C 
HETATM    9  O   UNL     1     -41.711  59.089 -55.086  1.00  0.00    -0.262 OA
HETATM   10  H   UNL     1     -43.932  56.911 -55.656  1.00  0.00     0.171 HD
BRANCH   8  11
HETATM   11  C   UNL     1     -42.241  57.931 -57.119  1.00  0.00     0.310 C 
HETATM   12  N   UNL     1     -42.639  56.675 -57.510  1.00  0.00    -0.349 N 
HETATM   13  H   UNL     1     -42.893  56.024 -56.773  1.00  0.00     0.163 HD
HETATM   14  O   UNL     1     -41.807  58.811 -57.849  1.00  0.00    -0.262 OA
BRANCH  12  15
HETATM   15  C   UNL     1     -42.595  56.241 -58.882  1.00  0.00     0.161 C 
BRANCH  15  16
HETATM   16  C   UNL     1     -43.952  56.293 -59.536  1.00  0.00    -0.040 A 
HETATM   17  C   UNL     1     -44.815  57.375 -59.309  1.00  0.00     0.010 A 
HETATM   18  C   UNL     1     -46.063  57.430 -59.935  1.00  0.00     0.024 A 
HETATM   19  C   UNL     1     -46.460  56.398 -60.783  1.00  0.00     0.034 A 
HETATM   20 CL   UNL     1     -47.992  56.474 -61.564  1.00  0.00    -0.084 Cl
HETATM   21  C   UNL     1     -45.623  55.308 -61.004  1.00  0.00     0.024 A 
HETATM   22  C   UNL     1     -44.375  55.253 -60.378  1.00  0.00     0.010 A 
ENDBRANCH  15  16
ENDBRANCH  12  15
ENDBRANCH   8  11
ENDBRANCH   5   7
BRANCH   4  23
HETATM   23  C   UNL     1     -42.160  55.745 -52.493  1.00  0.00     0.732 A 
HETATM   24  N   UNL     1     -42.080  54.802 -53.377  1.00  0.00    -0.067 NA
HETATM   25  C   UNL     1     -41.218  53.765 -53.090  1.00  0.00     0.065 A 
HETATM   26  C   UNL     1     -40.562  53.623 -51.923  1.00  0.00     0.036 A 
HETATM   27  C   UNL     1     -41.036  52.760 -54.205  1.00  0.00     0.060 C 
HETATM   28  C   UNL     1     -39.667  52.468 -51.578  1.00  0.00     0.046 C 
HETATM   29  C   UNL     1     -40.733  54.683 -50.902  1.00  0.00     0.268 A 
HETATM   30  C   UNL     1     -39.768  51.317 -52.580  1.00  0.00     0.005 C 
HETATM   31  C   UNL     1     -39.827  51.841 -54.010  1.00  0.00     0.006 C 
HETATM   32  O   UNL     1     -40.236  54.604 -49.785  1.00  0.00    -0.267 OA
HETATM   33  N   UNL     1     -41.487  55.740 -51.298  1.00  0.00    -0.152 N 
HETATM   34  H   UNL     1     -41.675  56.486 -50.636  1.00  0.00     0.188 HD
ENDBRANCH   4  23
TORSDOF 5
ENDMDL
MODEL 3
REMARK VINA RESULT:      -9.4      4.254      9.402
REMARK  5 active torsions:
REMARK  status: ('A' for Active; 'I' for Inactive)
REMARK    1  A    between atoms: N_4  and  C_5 
REMARK    2  A    between atoms: C_16  and  N_17 
REMARK       I    between atoms: N_17  and  C_18 
REMARK    3  A    between atoms: C_18  and  C_19 
REMARK       I    between atoms: C_19  and  N_20 
REMARK    4  A    between atoms: N_20  and  C_21 
REMARK    5  A    between atoms: C_21  and  C_22 
ROOT
HETATM    1  C   UNL     1     -42.972  60.711 -50.553  1.00  0.00     0.072 C 
HETATM    2  C   UNL     1     -42.632  59.505 -51.350  1.00  0.00     0.055 C 
HETATM    3  N   UNL     1     -41.825  58.567 -50.846  1.00  0.00    -0.156 NA
HETATM    4  N   UNL     1     -41.775  57.592 -51.820  1.00  0.00    -0.045 N 
HETATM    5  C   UNL     1     -42.374  58.040 -52.996  1.00  0.00     0.152 C 
HETATM    6  C   UNL     1     -43.041  59.199 -52.663  1.00  0.00     0.079 C 
ENDROOT
BRANCH   5   7
HETATM    7  N   UNL     1     -42.369  57.424 -54.234  1.00  0.00    -0.303 N 
HETATM    8  C   UNL     1     -43.350  56.520 -54.599  1.00  0.00     0.315 C 
HETATM    9  O   UNL     1     -44.313  56.141 -53.948  1.00  0.00    -0.262 OA
HETATM   10  H   UNL     1     -41.497  57.338 -54.751  1.00  0.00     0.171 HD
BRANCH   8  11
HETATM   11  C   UNL     1     -43.048  55.870 -55.968  1.00  0.00     0.310 C 
HETATM   12  N   UNL     1     -43.111  56.742 -57.028  1.00  0.00    -0.349 N 
HETATM   13  H   UNL     1     -43.409  57.691 -56.823  1.00  0.00     0.163 HD
HETATM   14  O   UNL     1     -42.809  54.672 -56.031  1.00  0.00    -0.262 OA
BRANCH  12  15
HETATM   15  C   UNL     1     -42.883  56.327 -58.387  1.00  0.00     0.161 C 
BRANCH  15  16
HETATM   16  C   UNL     1     -44.147  56.362 -59.208  1.00  0.00    -0.040 A 
HETATM   17  C   UNL     1     -44.383  55.398 -60.200  1.00  0.00     0.010 A 
HETATM   18  C   UNL     1     -45.566  55.421 -60.943  1.00  0.00     0.024 A 
HETATM   19  C   UNL     1     -46.515  56.413 -60.706  1.00  0.00     0.034 A 
HETATM   20 CL   UNL     1     -47.978  56.432 -61.612  1.00  0.00    -0.084 Cl
HETATM   21  C   UNL     1     -46.288  57.388 -59.738  1.00  0.00     0.024 A 
HETATM   22  C   UNL     1     -45.105  57.365 -58.995  1.00  0.00     0.010 A 
ENDBRANCH  15  16
ENDBRANCH  12  15
ENDBRANCH   8  11
ENDBRANCH   5   7
BRANCH   4  23
HETATM   23  C   UNL     1     -41.336  56.303 -51.436  1.00  0.00     0.732 A 
HETATM   24  N   UNL     1     -41.123  55.314 -52.245  1.00  0.00    -0.067 NA
HETATM   25  C   UNL     1     -40.738  54.122 -51.668  1.00  0.00     0.065 A 
HETATM   26  C   UNL     1     -40.683  53.904 -50.341  1.00  0.00     0.036 A 
HETATM   27  C   UNL     1     -40.355  53.035 -52.647  1.00  0.00     0.060 C 
HETATM   28  C   UNL     1     -40.321  52.594 -49.703  1.00  0.00     0.046 C 
HETATM   29  C   UNL     1     -41.004  55.035 -49.441  1.00  0.00     0.268 A 
HETATM   30  C   UNL     1     -40.269  51.438 -50.703  1.00  0.00     0.005 C 
HETATM   31  C   UNL     1     -39.598  51.870 -52.002  1.00  0.00     0.006 C 
HETATM   32  O   UNL     1     -41.054  54.912 -48.223  1.00  0.00    -0.267 OA
HETATM   33  N   UNL     1     -41.245  56.214 -50.071  1.00  0.00    -0.152 N 
HETATM   34  H   UNL     1     -41.507  57.023 -49.517  1.00  0.00     0.188 HD
ENDBRANCH   4  23
TORSDOF 5
ENDMDL
MODEL 4
REMARK VINA RESULT:      -9.3      2.881      4.942
REMARK  5 active torsions:
REMARK  status: ('A' for Active; 'I' for Inactive)
REMARK    1  A    between atoms: N_4  and  C_5 
REMARK    2  A    between atoms: C_16  and  N_17 
REMARK       I    between atoms: N_17  and  C_18 
REMARK    3  A    between atoms: C_18  and  C_19 
REMARK       I    between atoms: C_19  and  N_20 
REMARK    4  A    between atoms: N_20  and  C_21 
REMARK    5  A    between atoms: C_21  and  C_22 
ROOT
HETATM    1  C   UNL     1     -43.056  61.269 -59.970  1.00  0.00     0.072 C 
HETATM    2  C   UNL     1     -42.733  60.341 -58.857  1.00  0.00     0.055 C 
HETATM    3  N   UNL     1     -42.253  60.811 -57.703  1.00  0.00    -0.156 NA
HETATM    4  N   UNL     1     -42.121  59.696 -56.901  1.00  0.00    -0.045 N 
HETATM    5  C   UNL     1     -42.315  58.531 -57.642  1.00  0.00     0.152 C 
HETATM    6  C   UNL     1     -42.839  58.935 -58.851  1.00  0.00     0.079 C 
ENDROOT
BRANCH   5   7
HETATM    7  N   UNL     1     -42.100  57.227 -57.238  1.00  0.00    -0.303 N 
HETATM    8  C   UNL     1     -43.002  56.558 -56.431  1.00  0.00     0.315 C 
HETATM    9  O   UNL     1     -44.061  56.967 -55.976  1.00  0.00    -0.262 OA
HETATM   10  H   UNL     1     -41.153  56.856 -57.214  1.00  0.00     0.171 HD
BRANCH   8  11
HETATM   11  C   UNL     1     -42.471  55.170 -56.007  1.00  0.00     0.310 C 
HETATM   12  N   UNL     1     -41.162  55.177 -55.587  1.00  0.00    -0.349 N 
HETATM   13  H   UNL     1     -40.662  56.058 -55.659  1.00  0.00     0.163 HD
HETATM   14  O   UNL     1     -43.198  54.190 -56.089  1.00  0.00    -0.262 OA
BRANCH  12  15
HETATM   15  C   UNL     1     -40.476  53.982 -55.172  1.00  0.00     0.161 C 
BRANCH  15  16
HETATM   16  C   UNL     1     -40.506  53.803 -53.676  1.00  0.00    -0.040 A 
HETATM   17  C   UNL     1     -40.090  52.598 -53.090  1.00  0.00     0.010 A 
HETATM   18  C   UNL     1     -40.099  52.445 -51.701  1.00  0.00     0.024 A 
HETATM   19  C   UNL     1     -40.532  53.492 -50.890  1.00  0.00     0.034 A 
HETATM   20 CL   UNL     1     -40.529  53.308 -49.179  1.00  0.00    -0.084 Cl
HETATM   21  C   UNL     1     -40.964  54.688 -51.457  1.00  0.00     0.024 A 
HETATM   22  C   UNL     1     -40.956  54.841 -52.846  1.00  0.00     0.010 A 
ENDBRANCH  15  16
ENDBRANCH  12  15
ENDBRANCH   8  11
ENDBRANCH   5   7
BRANCH   4  23
HETATM   23  C   UNL     1     -42.020  59.899 -55.504  1.00  0.00     0.732 A 
HETATM   24  N   UNL     1     -41.420  59.107 -54.675  1.00  0.00    -0.067 NA
HETATM   25  C   UNL     1     -41.469  59.462 -53.343  1.00  0.00     0.065 A 
HETATM   26  C   UNL     1     -42.183  60.495 -52.859  1.00  0.00     0.036 A 
HETATM   27  C   UNL     1     -40.635  58.599 -52.422  1.00  0.00     0.060 C 
HETATM   28  C   UNL     1     -42.289  60.855 -51.405  1.00  0.00     0.046 C 
HETATM   29  C   UNL     1     -42.919  61.340 -53.827  1.00  0.00     0.268 A 
HETATM   30  C   UNL     1     -41.717  59.779 -50.481  1.00  0.00     0.005 C 
HETATM   31  C   UNL     1     -40.415  59.216 -51.038  1.00  0.00     0.006 C 
HETATM   32  O   UNL     1     -43.654  62.254 -53.474  1.00  0.00    -0.267 OA
HETATM   33  N   UNL     1     -42.721  61.017 -55.130  1.00  0.00    -0.152 N 
HETATM   34  H   UNL     1     -43.224  61.532 -55.846  1.00  0.00     0.188 HD
ENDBRANCH   4  23
TORSDOF 5
ENDMDL
MODEL 5
REMARK VINA RESULT:      -8.9      3.685      8.174
REMARK  5 active torsions:
REMARK  status: ('A' for Active; 'I' for Inactive)
REMARK    1  A    between atoms: N_4  and  C_5 
REMARK    2  A    between atoms: C_16  and  N_17 
REMARK       I    between atoms: N_17  and  C_18 
REMARK    3  A    between atoms: C_18  and  C_19 
REMARK       I    between atoms: C_19  and  N_20 
REMARK    4  A    between atoms: N_20  and  C_21 
REMARK    5  A    between atoms: C_21  and  C_22 
ROOT
HETATM    1  C   UNL     1     -39.607  50.941 -53.284  1.00  0.00     0.072 C 
HETATM    2  C   UNL     1     -40.161  52.273 -53.632  1.00  0.00     0.055 C 
HETATM    3  N   UNL     1     -40.598  53.095 -52.674  1.00  0.00    -0.156 NA
HETATM    4  N   UNL     1     -40.986  54.236 -53.346  1.00  0.00    -0.045 N 
HETATM    5  C   UNL     1     -40.986  54.021 -54.723  1.00  0.00     0.152 C 
HETATM    6  C   UNL     1     -40.333  52.824 -54.918  1.00  0.00     0.079 C 
ENDROOT
BRANCH   5   7
HETATM    7  N   UNL     1     -41.473  54.859 -55.708  1.00  0.00    -0.303 N 
HETATM    8  C   UNL     1     -42.827  55.107 -55.848  1.00  0.00     0.315 C 
HETATM    9  O   UNL     1     -43.752  54.669 -55.178  1.00  0.00    -0.262 OA
HETATM   10  H   UNL     1     -40.922  55.024 -56.547  1.00  0.00     0.171 HD
BRANCH   8  11
HETATM   11  C   UNL     1     -43.126  55.960 -57.101  1.00  0.00     0.310 C 
HETATM   12  N   UNL     1     -43.932  57.046 -56.859  1.00  0.00    -0.349 N 
HETATM   13  H   UNL     1     -44.300  57.144 -55.917  1.00  0.00     0.163 HD
HETATM   14  O   UNL     1     -42.674  55.623 -58.187  1.00  0.00    -0.262 OA
BRANCH  12  15
HETATM   15  C   UNL     1     -44.345  57.952 -57.899  1.00  0.00     0.161 C 
BRANCH  15  16
HETATM   16  C   UNL     1     -43.341  59.054 -58.121  1.00  0.00    -0.040 A 
HETATM   17  C   UNL     1     -42.800  59.759 -57.035  1.00  0.00     0.010 A 
HETATM   18  C   UNL     1     -41.853  60.765 -57.245  1.00  0.00     0.024 A 
HETATM   19  C   UNL     1     -41.449  61.079 -58.540  1.00  0.00     0.034 A 
HETATM   20 CL   UNL     1     -40.272  62.308 -58.796  1.00  0.00    -0.084 Cl
HETATM   21  C   UNL     1     -41.989  60.401 -59.630  1.00  0.00     0.024 A 
HETATM   22  C   UNL     1     -42.937  59.395 -59.421  1.00  0.00     0.010 A 
ENDBRANCH  15  16
ENDBRANCH  12  15
ENDBRANCH   8  11
ENDBRANCH   5   7
BRANCH   4  23
HETATM   23  C   UNL     1     -41.117  55.428 -52.594  1.00  0.00     0.732 A 
HETATM   24  N   UNL     1     -41.069  56.627 -53.079  1.00  0.00    -0.067 NA
HETATM   25  C   UNL     1     -41.175  57.661 -52.172  1.00  0.00     0.065 A 
HETATM   26  C   UNL     1     -41.211  57.498 -50.836  1.00  0.00     0.036 A 
HETATM   27  C   UNL     1     -41.265  59.040 -52.785  1.00  0.00     0.060 C 
HETATM   28  C   UNL     1     -41.268  58.618 -49.839  1.00  0.00     0.046 C 
HETATM   29  C   UNL     1     -41.190  56.114 -50.308  1.00  0.00     0.268 A 
HETATM   30  C   UNL     1     -41.020  59.990 -50.468  1.00  0.00     0.005 C 
HETATM   31  C   UNL     1     -41.741  60.116 -51.805  1.00  0.00     0.006 C 
HETATM   32  O   UNL     1     -41.144  55.870 -49.109  1.00  0.00    -0.267 OA
HETATM   33  N   UNL     1     -41.219  55.143 -51.256  1.00  0.00    -0.152 N 
HETATM   34  H   UNL     1     -41.171  54.171 -50.966  1.00  0.00     0.188 HD
ENDBRANCH   4  23
TORSDOF 5
ENDMDL
MODEL 6
REMARK VINA RESULT:      -8.8      2.812      5.258
REMARK  5 active torsions:
REMARK  status: ('A' for Active; 'I' for Inactive)
REMARK    1  A    between atoms: N_4  and  C_5 
REMARK    2  A    between atoms: C_16  and  N_17 
REMARK       I    between atoms: N_17  and  C_18 
REMARK    3  A    between atoms: C_18  and  C_19 
REMARK       I    between atoms: C_19  and  N_20 
REMARK    4  A    between atoms: N_20  and  C_21 
REMARK    5  A    between atoms: C_21  and  C_22 
ROOT
HETATM    1  C   UNL     1     -43.900  62.979 -53.035  1.00  0.00     0.072 C 
HETATM    2  C   UNL     1     -43.367  61.600 -53.172  1.00  0.00     0.055 C 
HETATM    3  N   UNL     1     -43.750  60.825 -54.190  1.00  0.00    -0.156 NA
HETATM    4  N   UNL     1     -43.031  59.659 -54.029  1.00  0.00    -0.045 N 
HETATM    5  C   UNL     1     -42.380  59.649 -52.797  1.00  0.00     0.152 C 
HETATM    6  C   UNL     1     -42.476  60.933 -52.308  1.00  0.00     0.079 C 
ENDROOT
BRANCH   5   7
HETATM    7  N   UNL     1     -41.708  58.595 -52.205  1.00  0.00    -0.303 N 
HETATM    8  C   UNL     1     -42.380  57.493 -51.707  1.00  0.00     0.315 C 
HETATM    9  O   UNL     1     -43.584  57.275 -51.705  1.00  0.00    -0.262 OA
HETATM   10  H   UNL     1     -40.785  58.745 -51.807  1.00  0.00     0.171 HD
BRANCH   8  11
HETATM   11  C   UNL     1     -41.425  56.523 -50.975  1.00  0.00     0.310 C 
HETATM   12  N   UNL     1     -41.460  55.236 -51.455  1.00  0.00    -0.349 N 
HETATM   13  H   UNL     1     -42.142  55.035 -52.181  1.00  0.00     0.163 HD
HETATM   14  O   UNL     1     -40.747  56.928 -50.041  1.00  0.00    -0.262 OA
BRANCH  12  15
HETATM   15  C   UNL     1     -40.662  54.178 -50.894  1.00  0.00     0.161 C 
BRANCH  15  16
HETATM   16  C   UNL     1     -40.409  53.073 -51.886  1.00  0.00    -0.040 A 
HETATM   17  C   UNL     1     -40.787  53.216 -53.229  1.00  0.00     0.010 A 
HETATM   18  C   UNL     1     -40.530  52.197 -54.151  1.00  0.00     0.024 A 
HETATM   19  C   UNL     1     -39.902  51.026 -53.733  1.00  0.00     0.034 A 
HETATM   20 CL   UNL     1     -39.573  49.778 -54.871  1.00  0.00    -0.084 Cl
HETATM   21  C   UNL     1     -39.536  50.861 -52.399  1.00  0.00     0.024 A 
HETATM   22  C   UNL     1     -39.794  51.879 -51.478  1.00  0.00     0.010 A 
ENDBRANCH  15  16
ENDBRANCH  12  15
ENDBRANCH   8  11
ENDBRANCH   5   7
BRANCH   4  23
HETATM   23  C   UNL     1     -42.908  58.803 -55.150  1.00  0.00     0.732 A 
HETATM   24  N   UNL     1     -42.672  59.189 -56.363  1.00  0.00    -0.067 NA
HETATM   25  C   UNL     1     -42.630  58.201 -57.324  1.00  0.00     0.065 A 
HETATM   26  C   UNL     1     -42.926  56.908 -57.096  1.00  0.00     0.036 A 
HETATM   27  C   UNL     1     -42.207  58.667 -58.699  1.00  0.00     0.060 C 
HETATM   28  C   UNL     1     -42.940  55.835 -58.146  1.00  0.00     0.046 C 
HETATM   29  C   UNL     1     -43.264  56.511 -55.710  1.00  0.00     0.268 A 
HETATM   30  C   UNL     1     -42.839  56.391 -59.568  1.00  0.00     0.005 C 
HETATM   31  C   UNL     1     -41.820  57.522 -59.640  1.00  0.00     0.006 C 
HETATM   32  O   UNL     1     -43.619  55.375 -55.421  1.00  0.00    -0.267 OA
HETATM   33  N   UNL     1     -43.157  57.504 -54.790  1.00  0.00    -0.152 N 
HETATM   34  H   UNL     1     -43.409  57.311 -53.826  1.00  0.00     0.188 HD
ENDBRANCH   4  23
TORSDOF 5
ENDMDL
MODEL 7
REMARK VINA RESULT:      -8.8      5.157      7.060
REMARK  5 active torsions:
REMARK  status: ('A' for Active; 'I' for Inactive)
REMARK    1  A    between atoms: N_4  and  C_5 
REMARK    2  A    between atoms: C_16  and  N_17 
REMARK       I    between atoms: N_17  and  C_18 
REMARK    3  A    between atoms: C_18  and  C_19 
REMARK       I    between atoms: C_19  and  N_20 
REMARK    4  A    between atoms: N_20  and  C_21 
REMARK    5  A    between atoms: C_21  and  C_22 
ROOT
HETATM    1  C   UNL     1     -42.902  61.271 -56.667  1.00  0.00     0.072 C 
HETATM    2  C   UNL     1     -42.886  60.646 -55.320  1.00  0.00     0.055 C 
HETATM    3  N   UNL     1     -43.128  61.380 -54.231  1.00  0.00    -0.156 NA
HETATM    4  N   UNL     1     -43.082  60.478 -53.188  1.00  0.00    -0.045 N 
HETATM    5  C   UNL     1     -42.600  59.245 -53.623  1.00  0.00     0.152 C 
HETATM    6  C   UNL     1     -42.604  59.302 -54.999  1.00  0.00     0.079 C 
ENDROOT
BRANCH   5   7
HETATM    7  N   UNL     1     -42.252  58.154 -52.849  1.00  0.00    -0.303 N 
HETATM    8  C   UNL     1     -43.185  57.207 -52.468  1.00  0.00     0.315 C 
HETATM    9  O   UNL     1     -44.380  57.170 -52.729  1.00  0.00    -0.262 OA
HETATM   10  H   UNL     1     -41.425  58.197 -52.259  1.00  0.00     0.171 HD
BRANCH   8  11
HETATM   11  C   UNL     1     -42.581  56.167 -51.497  1.00  0.00     0.310 C 
HETATM   12  N   UNL     1     -41.491  55.500 -52.000  1.00  0.00    -0.349 N 
HETATM   13  H   UNL     1     -41.233  55.701 -52.962  1.00  0.00     0.163 HD
HETATM   14  O   UNL     1     -43.098  55.985 -50.404  1.00  0.00    -0.262 OA
BRANCH  12  15
HETATM   15  C   UNL     1     -40.799  54.477 -51.261  1.00  0.00     0.161 C 
BRANCH  15  16
HETATM   16  C   UNL     1     -40.453  53.291 -52.123  1.00  0.00    -0.040 A 
HETATM   17  C   UNL     1     -39.799  52.175 -51.579  1.00  0.00     0.010 A 
HETATM   18  C   UNL     1     -39.501  51.068 -52.378  1.00  0.00     0.024 A 
HETATM   19  C   UNL     1     -39.845  51.074 -53.728  1.00  0.00     0.034 A 
HETATM   20 CL   UNL     1     -39.490  49.705 -54.707  1.00  0.00    -0.084 Cl
HETATM   21  C   UNL     1     -40.478  52.180 -54.288  1.00  0.00     0.024 A 
HETATM   22  C   UNL     1     -40.776  53.288 -53.489  1.00  0.00     0.010 A 
ENDBRANCH  15  16
ENDBRANCH  12  15
ENDBRANCH   8  11
ENDBRANCH   5   7
BRANCH   4  23
HETATM   23  C   UNL     1     -43.685  60.859 -51.965  1.00  0.00     0.732 A 
HETATM   24  N   UNL     1     -43.334  61.874 -51.242  1.00  0.00    -0.067 NA
HETATM   25  C   UNL     1     -44.020  62.051 -50.059  1.00  0.00     0.065 A 
HETATM   26  C   UNL     1     -44.931  61.187 -49.573  1.00  0.00     0.036 A 
HETATM   27  C   UNL     1     -43.688  63.325 -49.314  1.00  0.00     0.060 C 
HETATM   28  C   UNL     1     -45.642  61.342 -48.260  1.00  0.00     0.046 C 
HETATM   29  C   UNL     1     -45.258  59.996 -50.390  1.00  0.00     0.268 A 
HETATM   30  C   UNL     1     -45.046  62.447 -47.386  1.00  0.00     0.005 C 
HETATM   31  C   UNL     1     -44.701  63.675 -48.220  1.00  0.00     0.006 C 
HETATM   32  O   UNL     1     -46.017  59.119 -49.997  1.00  0.00    -0.267 OA
HETATM   33  N   UNL     1     -44.646  59.951 -51.601  1.00  0.00    -0.152 N 
HETATM   34  H   UNL     1     -44.797  59.144 -52.199  1.00  0.00     0.188 HD
ENDBRANCH   4  23
TORSDOF 5
ENDMDL
MODEL 8
REMARK VINA RESULT:      -8.8      3.698      8.100
REMARK  5 active torsions:
REMARK  status: ('A' for Active; 'I' for Inactive)
REMARK    1  A    between atoms: N_4  and  C_5 
REMARK    2  A    between atoms: C_16  and  N_17 
REMARK       I    between atoms: N_17  and  C_18 
REMARK    3  A    between atoms: C_18  and  C_19 
REMARK       I    between atoms: C_19  and  N_20 
REMARK    4  A    between atoms: N_20  and  C_21 
REMARK    5  A    between atoms: C_21  and  C_22 
ROOT
HETATM    1  C   UNL     1     -39.600  51.980 -52.608  1.00  0.00     0.072 C 
HETATM    2  C   UNL     1     -40.246  53.120 -53.307  1.00  0.00     0.055 C 
HETATM    3  N   UNL     1     -40.944  54.026 -52.618  1.00  0.00    -0.156 NA
HETATM    4  N   UNL     1     -41.347  54.946 -53.563  1.00  0.00    -0.045 N 
HETATM    5  C   UNL     1     -41.077  54.481 -54.849  1.00  0.00     0.152 C 
HETATM    6  C   UNL     1     -40.255  53.387 -54.690  1.00  0.00     0.079 C 
ENDROOT
BRANCH   5   7
HETATM    7  N   UNL     1     -41.483  55.033 -56.050  1.00  0.00    -0.303 N 
HETATM    8  C   UNL     1     -42.821  55.168 -56.372  1.00  0.00     0.315 C 
HETATM    9  O   UNL     1     -43.797  54.852 -55.706  1.00  0.00    -0.262 OA
HETATM   10  H   UNL     1     -40.852  55.024 -56.848  1.00  0.00     0.171 HD
BRANCH   8  11
HETATM   11  C   UNL     1     -43.013  55.682 -57.817  1.00  0.00     0.310 C 
HETATM   12  N   UNL     1     -42.365  56.864 -58.081  1.00  0.00    -0.349 N 
HETATM   13  H   UNL     1     -41.890  57.311 -57.302  1.00  0.00     0.163 HD
HETATM   14  O   UNL     1     -43.717  55.054 -58.596  1.00  0.00    -0.262 OA
BRANCH  12  15
HETATM   15  C   UNL     1     -42.437  57.518 -59.361  1.00  0.00     0.161 C 
BRANCH  15  16
HETATM   16  C   UNL     1     -42.058  58.974 -59.275  1.00  0.00    -0.040 A 
HETATM   17  C   UNL     1     -42.040  59.779 -60.424  1.00  0.00     0.010 A 
HETATM   18  C   UNL     1     -41.710  61.134 -60.335  1.00  0.00     0.024 A 
HETATM   19  C   UNL     1     -41.387  61.690 -59.100  1.00  0.00     0.034 A 
HETATM   20 CL   UNL     1     -40.994  63.362 -58.990  1.00  0.00    -0.084 Cl
HETATM   21  C   UNL     1     -41.382  60.901 -57.952  1.00  0.00     0.024 A 
HETATM   22  C   UNL     1     -41.712  59.546 -58.041  1.00  0.00     0.010 A 
ENDBRANCH  15  16
ENDBRANCH  12  15
ENDBRANCH   8  11
ENDBRANCH   5   7
BRANCH   4  23
HETATM   23  C   UNL     1     -41.756  56.222 -53.106  1.00  0.00     0.732 A 
HETATM   24  N   UNL     1     -42.940  56.517 -52.675  1.00  0.00    -0.067 NA
HETATM   25  C   UNL     1     -43.152  57.831 -52.313  1.00  0.00     0.065 A 
HETATM   26  C   UNL     1     -42.255  58.819 -52.486  1.00  0.00     0.036 A 
HETATM   27  C   UNL     1     -44.495  58.108 -51.676  1.00  0.00     0.060 C 
HETATM   28  C   UNL     1     -42.496  60.262 -52.149  1.00  0.00     0.046 C 
HETATM   29  C   UNL     1     -40.933  58.462 -53.051  1.00  0.00     0.268 A 
HETATM   30  C   UNL     1     -43.960  60.563 -51.827  1.00  0.00     0.005 C 
HETATM   31  C   UNL     1     -44.566  59.462 -50.964  1.00  0.00     0.006 C 
HETATM   32  O   UNL     1     -40.082  59.303 -53.313  1.00  0.00    -0.267 OA
HETATM   33  N   UNL     1     -40.743  57.134 -53.260  1.00  0.00    -0.152 N 
HETATM   34  H   UNL     1     -39.873  56.821 -53.679  1.00  0.00     0.188 HD
ENDBRANCH   4  23
TORSDOF 5
ENDMDL
MODEL 9
REMARK VINA RESULT:      -8.8      1.893      2.293
REMARK  5 active torsions:
REMARK  status: ('A' for Active; 'I' for Inactive)
REMARK    1  A    between atoms: N_4  and  C_5 
REMARK    2  A    between atoms: C_16  and  N_17 
REMARK       I    between atoms: N_17  and  C_18 
REMARK    3  A    between atoms: C_18  and  C_19 
REMARK       I    between atoms: C_19  and  N_20 
REMARK    4  A    between atoms: N_20  and  C_21 
REMARK    5  A    between atoms: C_21  and  C_22 
ROOT
HETATM    1  C   UNL     1     -47.278  57.177 -60.654  1.00  0.00     0.072 C 
HETATM    2  C   UNL     1     -46.059  57.611 -59.927  1.00  0.00     0.055 C 
HETATM    3  N   UNL     1     -45.066  58.223 -60.577  1.00  0.00    -0.156 NA
HETATM    4  N   UNL     1     -44.141  58.521 -59.598  1.00  0.00    -0.045 N 
HETATM    5  C   UNL     1     -44.478  57.899 -58.398  1.00  0.00     0.152 C 
HETATM    6  C   UNL     1     -45.764  57.433 -58.560  1.00  0.00     0.079 C 
ENDROOT
BRANCH   5   7
HETATM    7  N   UNL     1     -43.717  57.818 -57.246  1.00  0.00    -0.303 N 
HETATM    8  C   UNL     1     -42.940  56.709 -56.964  1.00  0.00     0.315 C 
HETATM    9  O   UNL     1     -42.799  55.692 -57.630  1.00  0.00    -0.262 OA
HETATM   10  H   UNL     1     -43.970  58.377 -56.435  1.00  0.00     0.171 HD
BRANCH   8  11
HETATM   11  C   UNL     1     -42.298  56.801 -55.561  1.00  0.00     0.310 C 
HETATM   12  N   UNL     1     -41.536  55.709 -55.223  1.00  0.00    -0.349 N 
HETATM   13  H   UNL     1     -41.523  54.937 -55.882  1.00  0.00     0.163 HD
HETATM   14  O   UNL     1     -42.516  57.777 -54.857  1.00  0.00    -0.262 OA
BRANCH  12  15
HETATM   15  C   UNL     1     -40.873  55.592 -53.950  1.00  0.00     0.161 C 
BRANCH  15  16
HETATM   16  C   UNL     1     -40.537  54.162 -53.617  1.00  0.00    -0.040 A 
HETATM   17  C   UNL     1     -40.404  53.750 -52.283  1.00  0.00     0.010 A 
HETATM   18  C   UNL     1     -40.115  52.417 -51.978  1.00  0.00     0.024 A 
HETATM   19  C   UNL     1     -39.947  51.491 -53.005  1.00  0.00     0.034 A 
HETATM   20 CL   UNL     1     -39.604  49.847 -52.628  1.00  0.00    -0.084 Cl
HETATM   21  C   UNL     1     -40.058  51.887 -54.335  1.00  0.00     0.024 A 
HETATM   22  C   UNL     1     -40.346  53.220 -54.640  1.00  0.00     0.010 A 
ENDBRANCH  15  16
ENDBRANCH  12  15
ENDBRANCH   8  11
ENDBRANCH   5   7
BRANCH   4  23
HETATM   23  C   UNL     1     -43.173  59.512 -59.889  1.00  0.00     0.732 A 
HETATM   24  N   UNL     1     -42.518  60.199 -59.009  1.00  0.00    -0.067 NA
HETATM   25  C   UNL     1     -41.646  61.149 -59.497  1.00  0.00     0.065 A 
HETATM   26  C   UNL     1     -41.526  61.472 -60.798  1.00  0.00     0.036 A 
HETATM   27  C   UNL     1     -40.792  61.828 -58.450  1.00  0.00     0.060 C 
HETATM   28  C   UNL     1     -40.622  62.544 -61.334  1.00  0.00     0.046 C 
HETATM   29  C   UNL     1     -42.344  60.717 -61.776  1.00  0.00     0.268 A 
HETATM   30  C   UNL     1     -40.030  63.429 -60.236  1.00  0.00     0.005 C 
HETATM   31  C   UNL     1     -39.602  62.595 -59.035  1.00  0.00     0.006 C 
HETATM   32  O   UNL     1     -42.357  60.989 -62.970  1.00  0.00    -0.267 OA
HETATM   33  N   UNL     1     -43.080  59.708 -61.243  1.00  0.00    -0.152 N 
HETATM   34  H   UNL     1     -43.691  59.172 -61.851  1.00  0.00     0.188 HD
ENDBRANCH   4  23
TORSDOF 5
ENDMDL
MODEL 10
REMARK VINA RESULT:      -8.8      2.590      5.003
REMARK  5 active torsions:
REMARK  status: ('A' for Active; 'I' for Inactive)
REMARK    1  A    between atoms: N_4  and  C_5 
REMARK    2  A    between atoms: C_16  and  N_17 
REMARK       I    between atoms: N_17  and  C_18 
REMARK    3  A    between atoms: C_18  and  C_19 
REMARK       I    between atoms: C_19  and  N_20 
REMARK    4  A    between atoms: N_20  and  C_21 
REMARK    5  A    between atoms: C_21  and  C_22 
ROOT
HETATM    1  C   UNL     1     -42.912  63.523 -53.363  1.00  0.00     0.072 C 
HETATM    2  C   UNL     1     -42.966  62.062 -53.620  1.00  0.00     0.055 C 
HETATM    3  N   UNL     1     -43.232  61.600 -54.845  1.00  0.00    -0.156 NA
HETATM    4  N   UNL     1     -43.151  60.228 -54.724  1.00  0.00    -0.045 N 
HETATM    5  C   UNL     1     -43.051  59.857 -53.385  1.00  0.00     0.152 C 
HETATM    6  C   UNL     1     -42.794  61.018 -52.689  1.00  0.00     0.079 C 
ENDROOT
BRANCH   5   7
HETATM    7  N   UNL     1     -43.121  58.582 -52.854  1.00  0.00    -0.303 N 
HETATM    8  C   UNL     1     -42.006  57.768 -52.771  1.00  0.00     0.315 C 
HETATM    9  O   UNL     1     -40.859  58.013 -53.119  1.00  0.00    -0.262 OA
HETATM   10  H   UNL     1     -44.010  58.088 -52.845  1.00  0.00     0.171 HD
BRANCH   8  11
HETATM   11  C   UNL     1     -42.369  56.350 -52.273  1.00  0.00     0.310 C 
HETATM   12  N   UNL     1     -41.367  55.734 -51.563  1.00  0.00    -0.349 N 
HETATM   13  H   UNL     1     -40.483  56.229 -51.492  1.00  0.00     0.163 HD
HETATM   14  O   UNL     1     -43.460  55.871 -52.548  1.00  0.00    -0.262 OA
BRANCH  12  15
HETATM   15  C   UNL     1     -41.500  54.402 -51.032  1.00  0.00     0.161 C 
BRANCH  15  16
HETATM   16  C   UNL     1     -40.934  53.363 -51.965  1.00  0.00    -0.040 A 
HETATM   17  C   UNL     1     -39.985  52.435 -51.512  1.00  0.00     0.010 A 
HETATM   18  C   UNL     1     -39.480  51.459 -52.375  1.00  0.00     0.024 A 
HETATM   19  C   UNL     1     -39.914  51.410 -53.698  1.00  0.00     0.034 A 
HETATM   20 CL   UNL     1     -39.302  50.199 -54.756  1.00  0.00    -0.084 Cl
HETATM   21  C   UNL     1     -40.842  52.336 -54.168  1.00  0.00     0.024 A 
HETATM   22  C   UNL     1     -41.347  53.312 -53.306  1.00  0.00     0.010 A 
ENDBRANCH  15  16
ENDBRANCH  12  15
ENDBRANCH   8  11
ENDBRANCH   5   7
BRANCH   4  23
HETATM   23  C   UNL     1     -42.986  59.474 -55.910  1.00  0.00     0.732 A 
HETATM   24  N   UNL     1     -43.199  58.202 -56.023  1.00  0.00    -0.067 NA
HETATM   25  C   UNL     1     -42.939  57.643 -57.256  1.00  0.00     0.065 A 
HETATM   26  C   UNL     1     -42.382  58.306 -58.288  1.00  0.00     0.036 A 
HETATM   27  C   UNL     1     -43.338  56.191 -57.396  1.00  0.00     0.060 C 
HETATM   28  C   UNL     1     -42.042  57.693 -59.615  1.00  0.00     0.046 C 
HETATM   29  C   UNL     1     -42.082  59.744 -58.103  1.00  0.00     0.268 A 
HETATM   30  C   UNL     1     -42.144  56.166 -59.611  1.00  0.00     0.005 C 
HETATM   31  C   UNL     1     -43.380  55.705 -58.847  1.00  0.00     0.006 C 
HETATM   32  O   UNL     1     -41.509  60.410 -58.957  1.00  0.00    -0.267 OA
HETATM   33  N   UNL     1     -42.484  60.262 -56.914  1.00  0.00    -0.152 N 
HETATM   34  H   UNL     1     -42.278  61.234 -56.706  1.00  0.00     0.188 HD
ENDBRANCH   4  23
TORSDOF 5
ENDMDL
