MODEL 1
REMARK VINA RESULT:      -8.4      0.000      0.000
REMARK  7 active torsions:
REMARK  status: ('A' for Active; 'I' for Inactive)
REMARK    1  A    between atoms: C_4  and  C_5 
REMARK    2  A    between atoms: C_5  and  O_6 
REMARK    3  A    between atoms: C_5  and  C_7 
REMARK    4  A    between atoms: C_7  and  N_8 
REMARK       I    between atoms: N_8  and  C_9 
REMARK    5  A    between atoms: N_8  and  C_20 
REMARK    6  A    between atoms: C_9  and  C_10 
REMARK    7  A    between atoms: C_14  and  C_15 
ROOT
HETATM    1  N   UNL     1     -42.510  55.450 -54.235  1.00  0.00    -0.339 N 
HETATM    2  C   UNL     1     -42.670  56.648 -54.970  1.00  0.00     0.274 C 
HETATM    3  O   UNL     1     -42.739  57.737 -54.392  1.00  0.00    -0.266 OA
ENDROOT
BRANCH   1   4
HETATM    4  C   UNL     1     -42.260  54.126 -54.852  1.00  0.00     0.163 C 
BRANCH   4   5
HETATM    5  C   UNL     1     -40.765  53.779 -55.053  1.00  0.00     0.169 C 
BRANCH   5   6
HETATM    6  C   UNL     1     -40.311  52.727 -54.059  1.00  0.00    -0.028 A 
HETATM    7  C   UNL     1     -40.055  53.054 -52.719  1.00  0.00     0.010 A 
HETATM    8  C   UNL     1     -39.665  52.071 -51.808  1.00  0.00     0.001 A 
HETATM    9  C   UNL     1     -39.534  50.747 -52.223  1.00  0.00     0.000 A 
HETATM   10  C   UNL     1     -39.790  50.406 -53.549  1.00  0.00     0.001 A 
HETATM   11  C   UNL     1     -40.179  51.389 -54.462  1.00  0.00     0.010 A 
ENDBRANCH   5   6
BRANCH   5  12
HETATM   12  O   UNL     1     -39.905  54.914 -54.963  1.00  0.00    -0.389 OA
HETATM   13  H   UNL     1     -40.445  55.701 -55.195  1.00  0.00     0.210 HD
ENDBRANCH   5  12
ENDBRANCH   4   5
ENDBRANCH   1   4
BRANCH   1  14
HETATM   14  C   UNL     1     -42.644  55.562 -52.763  1.00  0.00     0.087 C 
HETATM   15  C   UNL     1     -41.365  55.982 -52.017  1.00  0.00     0.025 C 
HETATM   16  C   UNL     1     -41.624  56.149 -50.521  1.00  0.00     0.002 C 
HETATM   17  C   UNL     1     -42.208  54.877 -49.913  1.00  0.00     0.000 C 
HETATM   18  C   UNL     1     -43.470  54.431 -50.645  1.00  0.00     0.002 C 
HETATM   19  C   UNL     1     -43.236  54.280 -52.148  1.00  0.00     0.025 C 
ENDBRANCH   1  14
BRANCH   2  20
HETATM   20  C   UNL     1     -42.727  56.626 -56.448  1.00  0.00     0.146 A 
HETATM   21  N   UNL     1     -42.182  57.563 -57.254  1.00  0.00    -0.169 NA
HETATM   22  N   UNL     1     -42.438  57.121 -58.501  1.00  0.00    -0.281 N 
HETATM   23  H   UNL     1     -42.121  57.676 -59.289  1.00  0.00     0.189 HD
HETATM   24  C   UNL     1     -43.108  55.937 -58.532  1.00  0.00     0.034 A 
HETATM   25  C   UNL     1     -43.289  55.570 -57.223  1.00  0.00     0.066 A 
BRANCH  24  26
HETATM   26  C   UNL     1     -43.567  55.156 -59.743  1.00  0.00     0.037 A 
HETATM   27  C   UNL     1     -45.042  54.849 -59.889  1.00  0.00     0.011 A 
HETATM   28  C   UNL     1     -44.409  55.855 -60.788  1.00  0.00     0.011 A 
ENDBRANCH  24  26
ENDBRANCH   2  20
TORSDOF 7
ENDMDL
MODEL 2
REMARK VINA RESULT:      -8.4      1.505      6.129
REMARK  7 active torsions:
REMARK  status: ('A' for Active; 'I' for Inactive)
REMARK    1  A    between atoms: C_4  and  C_5 
REMARK    2  A    between atoms: C_5  and  O_6 
REMARK    3  A    between atoms: C_5  and  C_7 
REMARK    4  A    between atoms: C_7  and  N_8 
REMARK       I    between atoms: N_8  and  C_9 
REMARK    5  A    between atoms: N_8  and  C_20 
REMARK    6  A    between atoms: C_9  and  C_10 
REMARK    7  A    between atoms: C_14  and  C_15 
ROOT
HETATM    1  N   UNL     1     -42.997  55.359 -54.683  1.00  0.00    -0.339 N 
HETATM    2  C   UNL     1     -43.310  56.026 -53.475  1.00  0.00     0.274 C 
HETATM    3  O   UNL     1     -43.863  57.129 -53.489  1.00  0.00    -0.266 OA
ENDROOT
BRANCH   1   4
HETATM    4  C   UNL     1     -42.482  53.973 -54.756  1.00  0.00     0.163 C 
BRANCH   4   5
HETATM    5  C   UNL     1     -40.938  53.857 -54.785  1.00  0.00     0.169 C 
BRANCH   5   6
HETATM    6  C   UNL     1     -40.463  52.689 -53.942  1.00  0.00    -0.028 A 
HETATM    7  C   UNL     1     -40.263  51.419 -54.504  1.00  0.00     0.010 A 
HETATM    8  C   UNL     1     -39.798  50.361 -53.723  1.00  0.00     0.001 A 
HETATM    9  C   UNL     1     -39.520  50.559 -52.372  1.00  0.00     0.000 A 
HETATM   10  C   UNL     1     -39.709  51.816 -51.801  1.00  0.00     0.001 A 
HETATM   11  C   UNL     1     -40.175  52.876 -52.581  1.00  0.00     0.010 A 
ENDBRANCH   5   6
BRANCH   5  12
HETATM   12  O   UNL     1     -40.276  55.047 -54.359  1.00  0.00    -0.389 OA
HETATM   13  H   UNL     1     -40.050  55.555 -55.168  1.00  0.00     0.210 HD
ENDBRANCH   5  12
ENDBRANCH   4   5
ENDBRANCH   1   4
BRANCH   1  14
HETATM   14  C   UNL     1     -43.175  56.145 -55.928  1.00  0.00     0.087 C 
HETATM   15  C   UNL     1     -43.089  55.335 -57.234  1.00  0.00     0.025 C 
HETATM   16  C   UNL     1     -43.365  56.215 -58.452  1.00  0.00     0.002 C 
HETATM   17  C   UNL     1     -42.421  57.413 -58.498  1.00  0.00     0.000 C 
HETATM   18  C   UNL     1     -42.476  58.224 -57.207  1.00  0.00     0.002 C 
HETATM   19  C   UNL     1     -42.224  57.356 -55.975  1.00  0.00     0.025 C 
ENDBRANCH   1  14
BRANCH   2  20
HETATM   20  C   UNL     1     -43.009  55.400 -52.168  1.00  0.00     0.146 A 
HETATM   21  N   UNL     1     -43.692  54.364 -51.634  1.00  0.00    -0.169 NA
HETATM   22  N   UNL     1     -43.053  54.105 -50.476  1.00  0.00    -0.281 N 
HETATM   23  H   UNL     1     -43.397  53.354 -49.888  1.00  0.00     0.189 HD
HETATM   24  C   UNL     1     -41.985  54.916 -50.250  1.00  0.00     0.034 A 
HETATM   25  C   UNL     1     -41.906  55.751 -51.335  1.00  0.00     0.066 A 
BRANCH  24  26
HETATM   26  C   UNL     1     -41.052  54.920 -49.060  1.00  0.00     0.037 A 
HETATM   27  C   UNL     1     -40.617  53.592 -48.477  1.00  0.00     0.011 A 
HETATM   28  C   UNL     1     -39.636  54.417 -49.237  1.00  0.00     0.011 A 
ENDBRANCH  24  26
ENDBRANCH   2  20
TORSDOF 7
ENDMDL
MODEL 3
REMARK VINA RESULT:      -8.0      1.993      2.680
REMARK  7 active torsions:
REMARK  status: ('A' for Active; 'I' for Inactive)
REMARK    1  A    between atoms: C_4  and  C_5 
REMARK    2  A    between atoms: C_5  and  O_6 
REMARK    3  A    between atoms: C_5  and  C_7 
REMARK    4  A    between atoms: C_7  and  N_8 
REMARK       I    between atoms: N_8  and  C_9 
REMARK    5  A    between atoms: N_8  and  C_20 
REMARK    6  A    between atoms: C_9  and  C_10 
REMARK    7  A    between atoms: C_14  and  C_15 
ROOT
HETATM    1  N   UNL     1     -41.573  57.509 -53.951  1.00  0.00    -0.339 N 
HETATM    2  C   UNL     1     -42.417  57.845 -55.035  1.00  0.00     0.274 C 
HETATM    3  O   UNL     1     -42.874  58.987 -55.147  1.00  0.00    -0.266 OA
ENDROOT
BRANCH   1   4
HETATM    4  C   UNL     1     -40.857  56.218 -53.826  1.00  0.00     0.163 C 
BRANCH   4   5
HETATM    5  C   UNL     1     -41.464  55.240 -52.790  1.00  0.00     0.169 C 
BRANCH   5   6
HETATM    6  C   UNL     1     -40.864  53.855 -52.931  1.00  0.00    -0.028 A 
HETATM    7  C   UNL     1     -40.861  53.185 -54.165  1.00  0.00     0.010 A 
HETATM    8  C   UNL     1     -40.279  51.922 -54.287  1.00  0.00     0.001 A 
HETATM    9  C   UNL     1     -39.687  51.315 -53.181  1.00  0.00     0.000 A 
HETATM   10  C   UNL     1     -39.677  51.971 -51.952  1.00  0.00     0.001 A 
HETATM   11  C   UNL     1     -40.260  53.233 -51.827  1.00  0.00     0.010 A 
ENDBRANCH   5   6
BRANCH   5  12
HETATM   12  O   UNL     1     -42.886  55.148 -52.867  1.00  0.00    -0.389 OA
HETATM   13  H   UNL     1     -43.122  55.146 -53.821  1.00  0.00     0.210 HD
ENDBRANCH   5  12
ENDBRANCH   4   5
ENDBRANCH   1   4
BRANCH   1  14
HETATM   14  C   UNL     1     -41.453  58.524 -52.877  1.00  0.00     0.087 C 
HETATM   15  C   UNL     1     -40.173  58.432 -52.026  1.00  0.00     0.025 C 
HETATM   16  C   UNL     1     -40.104  59.565 -51.003  1.00  0.00     0.002 C 
HETATM   17  C   UNL     1     -41.342  59.586 -50.112  1.00  0.00     0.000 C 
HETATM   18  C   UNL     1     -42.626  59.662 -50.933  1.00  0.00     0.002 C 
HETATM   19  C   UNL     1     -42.703  58.548 -51.977  1.00  0.00     0.025 C 
ENDBRANCH   1  14
BRANCH   2  20
HETATM   20  C   UNL     1     -42.745  56.846 -56.075  1.00  0.00     0.146 A 
HETATM   21  N   UNL     1     -43.222  55.606 -55.829  1.00  0.00    -0.169 NA
HETATM   22  N   UNL     1     -43.412  55.073 -57.052  1.00  0.00    -0.281 N 
HETATM   23  H   UNL     1     -43.769  54.126 -57.120  1.00  0.00     0.189 HD
HETATM   24  C   UNL     1     -43.093  55.917 -58.070  1.00  0.00     0.034 A 
HETATM   25  C   UNL     1     -42.684  57.085 -57.479  1.00  0.00     0.066 A 
BRANCH  24  26
HETATM   26  C   UNL     1     -43.169  55.656 -59.558  1.00  0.00     0.037 A 
HETATM   27  C   UNL     1     -44.493  55.221 -60.150  1.00  0.00     0.011 A 
HETATM   28  C   UNL     1     -43.980  56.593 -60.426  1.00  0.00     0.011 A 
ENDBRANCH  24  26
ENDBRANCH   2  20
TORSDOF 7
ENDMDL
MODEL 4
REMARK VINA RESULT:      -8.0      1.873      2.699
REMARK  7 active torsions:
REMARK  status: ('A' for Active; 'I' for Inactive)
REMARK    1  A    between atoms: C_4  and  C_5 
REMARK    2  A    between atoms: C_5  and  O_6 
REMARK    3  A    between atoms: C_5  and  C_7 
REMARK    4  A    between atoms: C_7  and  N_8 
REMARK       I    between atoms: N_8  and  C_9 
REMARK    5  A    between atoms: N_8  and  C_20 
REMARK    6  A    between atoms: C_9  and  C_10 
REMARK    7  A    between atoms: C_14  and  C_15 
ROOT
HETATM    1  N   UNL     1     -42.734  57.509 -54.667  1.00  0.00    -0.339 N 
HETATM    2  C   UNL     1     -42.818  58.164 -55.918  1.00  0.00     0.274 C 
HETATM    3  O   UNL     1     -42.245  59.241 -56.105  1.00  0.00    -0.266 OA
ENDROOT
BRANCH   1   4
HETATM    4  C   UNL     1     -43.254  56.147 -54.408  1.00  0.00     0.163 C 
BRANCH   4   5
HETATM    5  C   UNL     1     -42.253  55.005 -54.709  1.00  0.00     0.169 C 
BRANCH   5   6
HETATM    6  C   UNL     1     -41.789  54.334 -53.430  1.00  0.00    -0.028 A 
HETATM    7  C   UNL     1     -40.662  53.498 -53.413  1.00  0.00     0.010 A 
HETATM    8  C   UNL     1     -40.230  52.910 -52.224  1.00  0.00     0.001 A 
HETATM    9  C   UNL     1     -40.914  53.155 -51.035  1.00  0.00     0.000 A 
HETATM   10  C   UNL     1     -42.031  53.987 -51.035  1.00  0.00     0.001 A 
HETATM   11  C   UNL     1     -42.466  54.575 -52.224  1.00  0.00     0.010 A 
ENDBRANCH   5   6
BRANCH   5  12
HETATM   12  O   UNL     1     -41.114  55.435 -55.455  1.00  0.00    -0.389 OA
HETATM   13  H   UNL     1     -40.394  54.793 -55.275  1.00  0.00     0.210 HD
ENDBRANCH   5  12
ENDBRANCH   4   5
ENDBRANCH   1   4
BRANCH   1  14
HETATM   14  C   UNL     1     -42.114  58.282 -53.565  1.00  0.00     0.087 C 
HETATM   15  C   UNL     1     -40.637  57.955 -53.282  1.00  0.00     0.025 C 
HETATM   16  C   UNL     1     -40.068  58.857 -52.188  1.00  0.00     0.002 C 
HETATM   17  C   UNL     1     -40.894  58.768 -50.908  1.00  0.00     0.000 C 
HETATM   18  C   UNL     1     -42.366  59.074 -51.164  1.00  0.00     0.002 C 
HETATM   19  C   UNL     1     -42.948  58.196 -52.272  1.00  0.00     0.025 C 
ENDBRANCH   1  14
BRANCH   2  20
HETATM   20  C   UNL     1     -43.568  57.557 -57.040  1.00  0.00     0.146 A 
HETATM   21  N   UNL     1     -44.846  57.851 -57.362  1.00  0.00    -0.169 NA
HETATM   22  N   UNL     1     -45.095  57.105 -58.456  1.00  0.00    -0.281 N 
HETATM   23  H   UNL     1     -46.014  57.158 -58.882  1.00  0.00     0.189 HD
HETATM   24  C   UNL     1     -44.033  56.357 -58.859  1.00  0.00     0.034 A 
HETATM   25  C   UNL     1     -43.016  56.642 -57.985  1.00  0.00     0.066 A 
BRANCH  24  26
HETATM   26  C   UNL     1     -43.954  55.402 -60.029  1.00  0.00     0.037 A 
HETATM   27  C   UNL     1     -44.805  54.151 -60.000  1.00  0.00     0.011 A 
HETATM   28  C   UNL     1     -45.156  55.255 -60.936  1.00  0.00     0.011 A 
ENDBRANCH  24  26
ENDBRANCH   2  20
TORSDOF 7
ENDMDL
MODEL 5
REMARK VINA RESULT:      -7.9      1.817      2.587
REMARK  7 active torsions:
REMARK  status: ('A' for Active; 'I' for Inactive)
REMARK    1  A    between atoms: C_4  and  C_5 
REMARK    2  A    between atoms: C_5  and  O_6 
REMARK    3  A    between atoms: C_5  and  C_7 
REMARK    4  A    between atoms: C_7  and  N_8 
REMARK       I    between atoms: N_8  and  C_9 
REMARK    5  A    between atoms: N_8  and  C_20 
REMARK    6  A    between atoms: C_9  and  C_10 
REMARK    7  A    between atoms: C_14  and  C_15 
ROOT
HETATM    1  N   UNL     1     -42.893  56.926 -55.142  1.00  0.00    -0.339 N 
HETATM    2  C   UNL     1     -42.769  57.603 -56.379  1.00  0.00     0.274 C 
HETATM    3  O   UNL     1     -42.172  58.681 -56.449  1.00  0.00    -0.266 OA
ENDROOT
BRANCH   1   4
HETATM    4  C   UNL     1     -43.451  55.561 -54.996  1.00  0.00     0.163 C 
BRANCH   4   5
HETATM    5  C   UNL     1     -42.397  54.426 -55.023  1.00  0.00     0.169 C 
BRANCH   5   6
HETATM    6  C   UNL     1     -41.950  54.064 -53.620  1.00  0.00    -0.028 A 
HETATM    7  C   UNL     1     -42.814  54.199 -52.523  1.00  0.00     0.010 A 
HETATM    8  C   UNL     1     -42.400  53.835 -51.241  1.00  0.00     0.001 A 
HETATM    9  C   UNL     1     -41.119  53.324 -51.040  1.00  0.00     0.000 A 
HETATM   10  C   UNL     1     -40.251  53.179 -52.121  1.00  0.00     0.001 A 
HETATM   11  C   UNL     1     -40.664  53.545 -53.403  1.00  0.00     0.010 A 
ENDBRANCH   5   6
BRANCH   5  12
HETATM   12  O   UNL     1     -41.252  54.739 -55.817  1.00  0.00    -0.389 OA
HETATM   13  H   UNL     1     -41.149  54.011 -56.468  1.00  0.00     0.210 HD
ENDBRANCH   5  12
ENDBRANCH   4   5
ENDBRANCH   1   4
BRANCH   1  14
HETATM   14  C   UNL     1     -42.462  57.677 -53.939  1.00  0.00     0.087 C 
HETATM   15  C   UNL     1     -41.023  57.398 -53.471  1.00  0.00     0.025 C 
HETATM   16  C   UNL     1     -40.647  58.276 -52.279  1.00  0.00     0.002 C 
HETATM   17  C   UNL     1     -41.631  58.101 -51.126  1.00  0.00     0.000 C 
HETATM   18  C   UNL     1     -43.068  58.357 -51.569  1.00  0.00     0.002 C 
HETATM   19  C   UNL     1     -43.456  57.503 -52.775  1.00  0.00     0.025 C 
ENDBRANCH   1  14
BRANCH   2  20
HETATM   20  C   UNL     1     -43.325  57.018 -57.619  1.00  0.00     0.146 A 
HETATM   21  N   UNL     1     -42.873  55.890 -58.208  1.00  0.00    -0.169 NA
HETATM   22  N   UNL     1     -43.688  55.717 -59.267  1.00  0.00    -0.281 N 
HETATM   23  H   UNL     1     -43.534  54.919 -59.875  1.00  0.00     0.189 HD
HETATM   24  C   UNL     1     -44.650  56.673 -59.376  1.00  0.00     0.034 A 
HETATM   25  C   UNL     1     -44.466  57.518 -58.312  1.00  0.00     0.066 A 
BRANCH  24  26
HETATM   26  C   UNL     1     -45.720  56.803 -60.436  1.00  0.00     0.037 A 
HETATM   27  C   UNL     1     -47.081  56.196 -60.168  1.00  0.00     0.011 A 
HETATM   28  C   UNL     1     -46.923  57.678 -60.159  1.00  0.00     0.011 A 
ENDBRANCH  24  26
ENDBRANCH   2  20
TORSDOF 7
ENDMDL
MODEL 6
REMARK VINA RESULT:      -7.6     13.960     16.109
REMARK  7 active torsions:
REMARK  status: ('A' for Active; 'I' for Inactive)
REMARK    1  A    between atoms: C_4  and  C_5 
REMARK    2  A    between atoms: C_5  and  O_6 
REMARK    3  A    between atoms: C_5  and  C_7 
REMARK    4  A    between atoms: C_7  and  N_8 
REMARK       I    between atoms: N_8  and  C_9 
REMARK    5  A    between atoms: N_8  and  C_20 
REMARK    6  A    between atoms: C_9  and  C_10 
REMARK    7  A    between atoms: C_14  and  C_15 
ROOT
HETATM    1  N   UNL     1     -34.042  39.870 -53.763  1.00  0.00    -0.339 N 
HETATM    2  C   UNL     1     -33.490  40.421 -54.944  1.00  0.00     0.274 C 
HETATM    3  O   UNL     1     -32.271  40.395 -55.141  1.00  0.00    -0.266 OA
ENDROOT
BRANCH   1   4
HETATM    4  C   UNL     1     -35.495  39.717 -53.521  1.00  0.00     0.163 C 
BRANCH   4   5
HETATM    5  C   UNL     1     -36.180  40.956 -52.892  1.00  0.00     0.169 C 
BRANCH   5   6
HETATM    6  C   UNL     1     -37.598  41.115 -53.407  1.00  0.00    -0.028 A 
HETATM    7  C   UNL     1     -37.875  41.134 -54.783  1.00  0.00     0.010 A 
HETATM    8  C   UNL     1     -39.187  41.253 -55.242  1.00  0.00     0.001 A 
HETATM    9  C   UNL     1     -40.240  41.347 -54.334  1.00  0.00     0.000 A 
HETATM   10  C   UNL     1     -39.981  41.323 -52.965  1.00  0.00     0.001 A 
HETATM   11  C   UNL     1     -38.668  41.206 -52.504  1.00  0.00     0.010 A 
ENDBRANCH   5   6
BRANCH   5  12
HETATM   12  O   UNL     1     -35.460  42.169 -53.110  1.00  0.00    -0.389 OA
HETATM   13  H   UNL     1     -34.575  42.054 -52.700  1.00  0.00     0.210 HD
ENDBRANCH   5  12
ENDBRANCH   4   5
ENDBRANCH   1   4
BRANCH   1  14
HETATM   14  C   UNL     1     -33.075  39.468 -52.715  1.00  0.00     0.087 C 
HETATM   15  C   UNL     1     -33.438  38.187 -51.942  1.00  0.00     0.025 C 
HETATM   16  C   UNL     1     -32.344  37.813 -50.943  1.00  0.00     0.002 C 
HETATM   17  C   UNL     1     -32.055  38.959 -49.979  1.00  0.00     0.000 C 
HETATM   18  C   UNL     1     -31.707  40.246 -50.721  1.00  0.00     0.002 C 
HETATM   19  C   UNL     1     -32.780  40.625 -51.741  1.00  0.00     0.025 C 
ENDBRANCH   1  14
BRANCH   2  20
HETATM   20  C   UNL     1     -34.363  41.012 -55.982  1.00  0.00     0.146 A 
HETATM   21  N   UNL     1     -34.637  42.329 -56.100  1.00  0.00    -0.169 NA
HETATM   22  N   UNL     1     -35.424  42.410 -57.190  1.00  0.00    -0.281 N 
HETATM   23  H   UNL     1     -35.767  43.320 -57.477  1.00  0.00     0.189 HD
HETATM   24  C   UNL     1     -35.655  41.208 -57.786  1.00  0.00     0.034 A 
HETATM   25  C   UNL     1     -34.962  40.282 -57.050  1.00  0.00     0.066 A 
BRANCH  24  26
HETATM   26  C   UNL     1     -36.493  40.920 -59.012  1.00  0.00     0.037 A 
HETATM   27  C   UNL     1     -37.999  40.872 -58.864  1.00  0.00     0.011 A 
HETATM   28  C   UNL     1     -37.367  42.019 -59.576  1.00  0.00     0.011 A 
ENDBRANCH  24  26
ENDBRANCH   2  20
TORSDOF 7
ENDMDL
MODEL 7
REMARK VINA RESULT:      -7.6     14.430     16.911
REMARK  7 active torsions:
REMARK  status: ('A' for Active; 'I' for Inactive)
REMARK    1  A    between atoms: C_4  and  C_5 
REMARK    2  A    between atoms: C_5  and  O_6 
REMARK    3  A    between atoms: C_5  and  C_7 
REMARK    4  A    between atoms: C_7  and  N_8 
REMARK       I    between atoms: N_8  and  C_9 
REMARK    5  A    between atoms: N_8  and  C_20 
REMARK    6  A    between atoms: C_9  and  C_10 
REMARK    7  A    between atoms: C_14  and  C_15 
ROOT
HETATM    1  N   UNL     1     -36.254  41.027 -56.253  1.00  0.00    -0.339 N 
HETATM    2  C   UNL     1     -36.970  41.227 -55.049  1.00  0.00     0.274 C 
HETATM    3  O   UNL     1     -38.204  41.207 -55.040  1.00  0.00    -0.266 OA
ENDROOT
BRANCH   1   4
HETATM    4  C   UNL     1     -34.782  40.876 -56.327  1.00  0.00     0.163 C 
BRANCH   4   5
HETATM    5  C   UNL     1     -34.271  39.425 -56.151  1.00  0.00     0.169 C 
BRANCH   5   6
HETATM    6  C   UNL     1     -33.459  39.283 -54.879  1.00  0.00    -0.028 A 
HETATM    7  C   UNL     1     -32.755  40.371 -54.340  1.00  0.00     0.010 A 
HETATM    8  C   UNL     1     -32.034  40.234 -53.153  1.00  0.00     0.001 A 
HETATM    9  C   UNL     1     -32.013  39.011 -52.485  1.00  0.00     0.000 A 
HETATM   10  C   UNL     1     -32.712  37.924 -53.005  1.00  0.00     0.001 A 
HETATM   11  C   UNL     1     -33.432  38.059 -54.194  1.00  0.00     0.010 A 
ENDBRANCH   5   6
BRANCH   5  12
HETATM   12  O   UNL     1     -33.499  38.961 -57.259  1.00  0.00    -0.389 OA
HETATM   13  H   UNL     1     -33.559  39.649 -57.957  1.00  0.00     0.210 HD
ENDBRANCH   5  12
ENDBRANCH   4   5
ENDBRANCH   1   4
BRANCH   1  14
HETATM   14  C   UNL     1     -37.059  41.009 -57.497  1.00  0.00     0.087 C 
HETATM   15  C   UNL     1     -37.287  39.618 -58.114  1.00  0.00     0.025 C 
HETATM   16  C   UNL     1     -38.192  39.696 -59.342  1.00  0.00     0.002 C 
HETATM   17  C   UNL     1     -37.633  40.661 -60.384  1.00  0.00     0.000 C 
HETATM   18  C   UNL     1     -37.384  42.045 -59.793  1.00  0.00     0.002 C 
HETATM   19  C   UNL     1     -36.498  41.985 -58.549  1.00  0.00     0.025 C 
ENDBRANCH   1  14
BRANCH   2  20
HETATM   20  C   UNL     1     -36.255  41.431 -53.770  1.00  0.00     0.146 A 
HETATM   21  N   UNL     1     -35.706  42.600 -53.373  1.00  0.00    -0.169 NA
HETATM   22  N   UNL     1     -35.207  42.336 -52.150  1.00  0.00    -0.281 N 
HETATM   23  H   UNL     1     -34.734  43.078 -51.646  1.00  0.00     0.189 HD
HETATM   24  C   UNL     1     -35.424  41.057 -51.737  1.00  0.00     0.034 A 
HETATM   25  C   UNL     1     -36.124  40.448 -52.746  1.00  0.00     0.066 A 
BRANCH  24  26
HETATM   26  C   UNL     1     -35.000  40.412 -50.437  1.00  0.00     0.037 A 
HETATM   27  C   UNL     1     -36.058  39.750 -49.579  1.00  0.00     0.011 A 
HETATM   28  C   UNL     1     -35.070  38.906 -50.310  1.00  0.00     0.011 A 
ENDBRANCH  24  26
ENDBRANCH   2  20
TORSDOF 7
ENDMDL
MODEL 8
REMARK VINA RESULT:      -7.6     14.532     16.674
REMARK  7 active torsions:
REMARK  status: ('A' for Active; 'I' for Inactive)
REMARK    1  A    between atoms: C_4  and  C_5 
REMARK    2  A    between atoms: C_5  and  O_6 
REMARK    3  A    between atoms: C_5  and  C_7 
REMARK    4  A    between atoms: C_7  and  N_8 
REMARK       I    between atoms: N_8  and  C_9 
REMARK    5  A    between atoms: N_8  and  C_20 
REMARK    6  A    between atoms: C_9  and  C_10 
REMARK    7  A    between atoms: C_14  and  C_15 
ROOT
HETATM    1  N   UNL     1     -34.790  40.526 -53.734  1.00  0.00    -0.339 N 
HETATM    2  C   UNL     1     -35.419  41.696 -54.222  1.00  0.00     0.274 C 
HETATM    3  O   UNL     1     -35.719  42.616 -53.455  1.00  0.00    -0.266 OA
ENDROOT
BRANCH   1   4
HETATM    4  C   UNL     1     -34.256  39.450 -54.600  1.00  0.00     0.163 C 
BRANCH   4   5
HETATM    5  C   UNL     1     -32.863  39.743 -55.211  1.00  0.00     0.169 C 
BRANCH   5   6
HETATM    6  C   UNL     1     -31.861  38.674 -54.822  1.00  0.00    -0.028 A 
HETATM    7  C   UNL     1     -32.086  37.828 -53.725  1.00  0.00     0.010 A 
HETATM    8  C   UNL     1     -31.169  36.830 -53.396  1.00  0.00     0.001 A 
HETATM    9  C   UNL     1     -30.018  36.658 -54.163  1.00  0.00     0.000 A 
HETATM   10  C   UNL     1     -29.784  37.485 -55.258  1.00  0.00     0.001 A 
HETATM   11  C   UNL     1     -30.700  38.486 -55.588  1.00  0.00     0.010 A 
ENDBRANCH   5   6
BRANCH   5  12
HETATM   12  O   UNL     1     -32.349  41.025 -54.850  1.00  0.00    -0.389 OA
HETATM   13  H   UNL     1     -32.315  41.055 -53.870  1.00  0.00     0.210 HD
ENDBRANCH   5  12
ENDBRANCH   4   5
ENDBRANCH   1   4
BRANCH   1  14
HETATM   14  C   UNL     1     -34.715  40.390 -52.260  1.00  0.00     0.087 C 
HETATM   15  C   UNL     1     -33.316  40.591 -51.652  1.00  0.00     0.025 C 
HETATM   16  C   UNL     1     -33.356  40.512 -50.127  1.00  0.00     0.002 C 
HETATM   17  C   UNL     1     -33.964  39.195 -49.653  1.00  0.00     0.000 C 
HETATM   18  C   UNL     1     -35.348  38.966 -50.255  1.00  0.00     0.002 C 
HETATM   19  C   UNL     1     -35.331  39.063 -51.780  1.00  0.00     0.025 C 
ENDBRANCH   1  14
BRANCH   2  20
HETATM   20  C   UNL     1     -35.702  41.856 -55.665  1.00  0.00     0.146 A 
HETATM   21  N   UNL     1     -34.851  42.400 -56.561  1.00  0.00    -0.169 NA
HETATM   22  N   UNL     1     -35.498  42.303 -57.739  1.00  0.00    -0.281 N 
HETATM   23  H   UNL     1     -35.046  42.659 -58.574  1.00  0.00     0.189 HD
HETATM   24  C   UNL     1     -36.718  41.708 -57.642  1.00  0.00     0.034 A 
HETATM   25  C   UNL     1     -36.875  41.379 -56.320  1.00  0.00     0.066 A 
BRANCH  24  26
HETATM   26  C   UNL     1     -37.717  41.444 -58.746  1.00  0.00     0.037 A 
HETATM   27  C   UNL     1     -37.324  40.508 -59.869  1.00  0.00     0.011 A 
HETATM   28  C   UNL     1     -38.332  40.066 -58.863  1.00  0.00     0.011 A 
ENDBRANCH  24  26
ENDBRANCH   2  20
TORSDOF 7
ENDMDL
MODEL 9
REMARK VINA RESULT:      -7.5      2.275      4.466
REMARK  7 active torsions:
REMARK  status: ('A' for Active; 'I' for Inactive)
REMARK    1  A    between atoms: C_4  and  C_5 
REMARK    2  A    between atoms: C_5  and  O_6 
REMARK    3  A    between atoms: C_5  and  C_7 
REMARK    4  A    between atoms: C_7  and  N_8 
REMARK       I    between atoms: N_8  and  C_9 
REMARK    5  A    between atoms: N_8  and  C_20 
REMARK    6  A    between atoms: C_9  and  C_10 
REMARK    7  A    between atoms: C_14  and  C_15 
ROOT
HETATM    1  N   UNL     1     -41.908  55.648 -53.373  1.00  0.00    -0.339 N 
HETATM    2  C   UNL     1     -43.014  55.202 -54.135  1.00  0.00     0.274 C 
HETATM    3  O   UNL     1     -43.794  54.361 -53.680  1.00  0.00    -0.266 OA
ENDROOT
BRANCH   1   4
HETATM    4  C   UNL     1     -41.020  56.764 -53.775  1.00  0.00     0.163 C 
BRANCH   4   5
HETATM    5  C   UNL     1     -41.571  58.175 -53.456  1.00  0.00     0.169 C 
BRANCH   5   6
HETATM    6  C   UNL     1     -40.878  58.769 -52.245  1.00  0.00    -0.028 A 
HETATM    7  C   UNL     1     -39.479  58.790 -52.143  1.00  0.00     0.010 A 
HETATM    8  C   UNL     1     -38.854  59.366 -51.036  1.00  0.00     0.001 A 
HETATM    9  C   UNL     1     -39.619  59.934 -50.020  1.00  0.00     0.000 A 
HETATM   10  C   UNL     1     -41.009  59.926 -50.109  1.00  0.00     0.001 A 
HETATM   11  C   UNL     1     -41.636  59.349 -51.215  1.00  0.00     0.010 A 
ENDBRANCH   5   6
BRANCH   5  12
HETATM   12  O   UNL     1     -42.983  58.196 -53.249  1.00  0.00    -0.389 OA
HETATM   13  H   UNL     1     -43.190  57.476 -52.614  1.00  0.00     0.210 HD
ENDBRANCH   5  12
ENDBRANCH   4   5
ENDBRANCH   1   4
BRANCH   1  14
HETATM   14  C   UNL     1     -41.633  54.903 -52.122  1.00  0.00     0.087 C 
HETATM   15  C   UNL     1     -41.418  55.775 -50.872  1.00  0.00     0.025 C 
HETATM   16  C   UNL     1     -41.223  54.917 -49.623  1.00  0.00     0.002 C 
HETATM   17  C   UNL     1     -40.070  53.934 -49.798  1.00  0.00     0.000 C 
HETATM   18  C   UNL     1     -40.252  53.067 -51.040  1.00  0.00     0.002 C 
HETATM   19  C   UNL     1     -40.471  53.908 -52.297  1.00  0.00     0.025 C 
ENDBRANCH   1  14
BRANCH   2  20
HETATM   20  C   UNL     1     -43.278  55.758 -55.481  1.00  0.00     0.146 A 
HETATM   21  N   UNL     1     -43.971  56.891 -55.724  1.00  0.00    -0.169 NA
HETATM   22  N   UNL     1     -43.925  57.030 -57.063  1.00  0.00    -0.281 N 
HETATM   23  H   UNL     1     -44.392  57.825 -57.486  1.00  0.00     0.189 HD
HETATM   24  C   UNL     1     -43.223  56.048 -57.689  1.00  0.00     0.034 A 
HETATM   25  C   UNL     1     -42.764  55.220 -56.697  1.00  0.00     0.066 A 
BRANCH  24  26
HETATM   26  C   UNL     1     -42.974  55.877 -59.171  1.00  0.00     0.037 A 
HETATM   27  C   UNL     1     -44.021  55.170 -60.004  1.00  0.00     0.011 A 
HETATM   28  C   UNL     1     -43.838  56.641 -60.151  1.00  0.00     0.011 A 
ENDBRANCH  24  26
ENDBRANCH   2  20
TORSDOF 7
ENDMDL
MODEL 10
REMARK VINA RESULT:      -7.5     14.411     17.261
REMARK  7 active torsions:
REMARK  status: ('A' for Active; 'I' for Inactive)
REMARK    1  A    between atoms: C_4  and  C_5 
REMARK    2  A    between atoms: C_5  and  O_6 
REMARK    3  A    between atoms: C_5  and  C_7 
REMARK    4  A    between atoms: C_7  and  N_8 
REMARK       I    between atoms: N_8  and  C_9 
REMARK    5  A    between atoms: N_8  and  C_20 
REMARK    6  A    between atoms: C_9  and  C_10 
REMARK    7  A    between atoms: C_14  and  C_15 
ROOT
HETATM    1  N   UNL     1     -35.755  40.231 -56.438  1.00  0.00    -0.339 N 
HETATM    2  C   UNL     1     -34.397  39.966 -56.141  1.00  0.00     0.274 C 
HETATM    3  O   UNL     1     -33.508  40.260 -56.946  1.00  0.00    -0.266 OA
ENDROOT
BRANCH   1   4
HETATM    4  C   UNL     1     -36.863  40.059 -55.470  1.00  0.00     0.163 C 
BRANCH   4   5
HETATM    5  C   UNL     1     -37.182  41.315 -54.623  1.00  0.00     0.169 C 
BRANCH   5   6
HETATM    6  C   UNL     1     -36.543  41.224 -53.251  1.00  0.00    -0.028 A 
HETATM    7  C   UNL     1     -36.935  40.242 -52.328  1.00  0.00     0.010 A 
HETATM    8  C   UNL     1     -36.318  40.152 -51.080  1.00  0.00     0.001 A 
HETATM    9  C   UNL     1     -35.297  41.037 -50.740  1.00  0.00     0.000 A 
HETATM   10  C   UNL     1     -34.893  42.014 -51.647  1.00  0.00     0.001 A 
HETATM   11  C   UNL     1     -35.510  42.106 -52.896  1.00  0.00     0.010 A 
ENDBRANCH   5   6
BRANCH   5  12
HETATM   12  O   UNL     1     -38.582  41.555 -54.476  1.00  0.00    -0.389 OA
HETATM   13  H   UNL     1     -38.740  41.756 -53.528  1.00  0.00     0.210 HD
ENDBRANCH   5  12
ENDBRANCH   4   5
ENDBRANCH   1   4
BRANCH   1  14
HETATM   14  C   UNL     1     -36.048  40.670 -57.823  1.00  0.00     0.087 C 
HETATM   15  C   UNL     1     -36.929  41.927 -57.941  1.00  0.00     0.025 C 
HETATM   16  C   UNL     1     -37.107  42.345 -59.400  1.00  0.00     0.002 C 
HETATM   17  C   UNL     1     -37.679  41.206 -60.239  1.00  0.00     0.000 C 
HETATM   18  C   UNL     1     -36.832  39.943 -60.126  1.00  0.00     0.002 C 
HETATM   19  C   UNL     1     -36.624  39.521 -58.672  1.00  0.00     0.025 C 
ENDBRANCH   1  14
BRANCH   2  20
HETATM   20  C   UNL     1     -34.009  39.361 -54.848  1.00  0.00     0.146 A 
HETATM   21  N   UNL     1     -34.657  38.337 -54.252  1.00  0.00    -0.169 NA
HETATM   22  N   UNL     1     -33.942  38.094 -53.136  1.00  0.00    -0.281 N 
HETATM   23  H   UNL     1     -34.248  37.353 -52.514  1.00  0.00     0.189 HD
HETATM   24  C   UNL     1     -32.859  38.905 -52.996  1.00  0.00     0.034 A 
HETATM   25  C   UNL     1     -32.852  39.721 -54.098  1.00  0.00     0.066 A 
BRANCH  24  26
HETATM   26  C   UNL     1     -31.847  38.924 -51.872  1.00  0.00     0.037 A 
HETATM   27  C   UNL     1     -31.844  40.102 -50.921  1.00  0.00     0.011 A 
HETATM   28  C   UNL     1     -32.332  38.776 -50.447  1.00  0.00     0.011 A 
ENDBRANCH  24  26
ENDBRANCH   2  20
TORSDOF 7
ENDMDL
