MODEL 1
REMARK VINA RESULT:      -7.9      0.000      0.000
REMARK  6 active torsions:
REMARK  status: ('A' for Active; 'I' for Inactive)
REMARK    1  A    between atoms: C_2  and  C_3 
REMARK       I    between atoms: C_3  and  N_4 
REMARK    2  A    between atoms: N_4  and  C_5 
REMARK    3  A    between atoms: C_8  and  N_9 
REMARK       I    between atoms: N_9  and  C_10 
REMARK    4  A    between atoms: C_10  and  C_11 
REMARK    5  A    between atoms: C_16  and  C_17 
REMARK    6  A    between atoms: C_23  and  C_24 
ROOT
HETATM    1  C   UNL     1     -43.292  57.740 -56.892  1.00  0.00     0.148 A 
HETATM    2  N   UNL     1     -42.792  57.911 -58.137  1.00  0.00    -0.165 NA
HETATM    3  N   UNL     1     -43.773  58.565 -58.790  1.00  0.00    -0.240 N 
HETATM    4  C   UNL     1     -44.883  58.795 -58.020  1.00  0.00     0.123 A 
HETATM    5  N   UNL     1     -45.975  59.419 -58.517  1.00  0.00    -0.364 N 
HETATM    6  C   UNL     1     -46.146  59.576 -59.964  1.00  0.00     0.143 C 
HETATM    7  C   UNL     1     -44.784  59.879 -60.604  1.00  0.00     0.068 C 
HETATM    8  C   UNL     1     -43.717  58.835 -60.217  1.00  0.00     0.221 C 
HETATM    9  C   UNL     1     -44.603  58.279 -56.784  1.00  0.00     0.089 A 
HETATM   10  H   UNL     1     -46.848  59.402 -57.991  1.00  0.00     0.162 HD
ENDROOT
BRANCH   1  11
HETATM   11  C   UNL     1     -42.534  57.071 -55.820  1.00  0.00     0.276 C 
HETATM   12  N   UNL     1     -42.428  55.708 -56.026  1.00  0.00    -0.322 N 
HETATM   13  H   UNL     1     -42.855  55.394 -56.894  1.00  0.00     0.169 HD
HETATM   14  O   UNL     1     -42.051  57.711 -54.891  1.00  0.00    -0.266 OA
BRANCH  12  15
HETATM   15  C   UNL     1     -41.779  54.759 -55.218  1.00  0.00     0.035 A 
HETATM   16  C   UNL     1     -40.493  54.282 -55.463  1.00  0.00     0.032 A 
HETATM   17  C   UNL     1     -39.901  53.339 -54.608  1.00  0.00     0.032 A 
HETATM   18  C   UNL     1     -40.588  52.855 -53.498  1.00  0.00     0.034 A 
HETATM   19  C   UNL     1     -41.882  53.332 -53.253  1.00  0.00     0.032 A 
HETATM   20  C   UNL     1     -42.469  54.279 -54.102  1.00  0.00     0.032 A 
BRANCH  18  21
HETATM   21  N   UNL     1     -40.060  51.915 -52.587  1.00  0.00    -0.327 N 
HETATM   22  C   UNL     1     -39.773  50.583 -52.825  1.00  0.00     0.221 C 
HETATM   23  O   UNL     1     -39.930  49.980 -53.882  1.00  0.00    -0.273 OA
HETATM   24  H   UNL     1     -39.880  52.262 -51.656  1.00  0.00     0.169 HD
BRANCH  22  25
HETATM   25  C   UNL     1     -39.153  49.875 -51.630  1.00  0.00     0.098 C 
HETATM   26  C   UNL     1     -39.864  50.157 -50.319  1.00  0.00     0.014 C 
ENDBRANCH  22  25
ENDBRANCH  18  21
ENDBRANCH  12  15
ENDBRANCH   1  11
BRANCH   8  27
HETATM   27  C   UNL     1     -42.352  59.317 -60.655  1.00  0.00     0.409 C 
HETATM   28  F   UNL     1     -41.797  60.176 -59.772  1.00  0.00    -0.169 F 
HETATM   29  F   UNL     1     -41.475  58.313 -60.872  1.00  0.00    -0.169 F 
HETATM   30  F   UNL     1     -42.456  59.987 -61.834  1.00  0.00    -0.169 F 
ENDBRANCH   8  27
BRANCH   6  31
HETATM   31  C   UNL     1     -46.839  58.435 -60.640  1.00  0.00     0.075 A 
HETATM   32  O   UNL     1     -47.696  58.764 -61.651  1.00  0.00    -0.325 OA
HETATM   33  C   UNL     1     -48.238  57.607 -62.110  1.00  0.00     0.142 A 
HETATM   34  C   UNL     1     -47.735  56.532 -61.416  1.00  0.00     0.027 A 
HETATM   35  C   UNL     1     -46.830  57.064 -60.466  1.00  0.00     0.037 A 
ENDBRANCH   6  31
TORSDOF 6
ENDMDL
MODEL 2
REMARK VINA RESULT:      -7.7      3.893     10.203
REMARK  6 active torsions:
REMARK  status: ('A' for Active; 'I' for Inactive)
REMARK    1  A    between atoms: C_2  and  C_3 
REMARK       I    between atoms: C_3  and  N_4 
REMARK    2  A    between atoms: N_4  and  C_5 
REMARK    3  A    between atoms: C_8  and  N_9 
REMARK       I    between atoms: N_9  and  C_10 
REMARK    4  A    between atoms: C_10  and  C_11 
REMARK    5  A    between atoms: C_16  and  C_17 
REMARK    6  A    between atoms: C_23  and  C_24 
ROOT
HETATM    1  C   UNL     1     -43.526  56.989 -55.887  1.00  0.00     0.148 A 
HETATM    2  N   UNL     1     -42.385  56.358 -55.528  1.00  0.00    -0.165 NA
HETATM    3  N   UNL     1     -42.450  56.316 -54.183  1.00  0.00    -0.240 N 
HETATM    4  C   UNL     1     -43.572  56.916 -53.671  1.00  0.00     0.123 A 
HETATM    5  N   UNL     1     -43.793  56.990 -52.340  1.00  0.00    -0.364 N 
HETATM    6  C   UNL     1     -42.706  56.734 -51.391  1.00  0.00     0.143 C 
HETATM    7  C   UNL     1     -41.834  55.585 -51.918  1.00  0.00     0.068 C 
HETATM    8  C   UNL     1     -41.350  55.840 -53.360  1.00  0.00     0.221 C 
HETATM    9  C   UNL     1     -44.292  57.357 -54.748  1.00  0.00     0.089 A 
HETATM   10  H   UNL     1     -44.524  57.605 -51.983  1.00  0.00     0.162 HD
ENDROOT
BRANCH   1  11
HETATM   11  C   UNL     1     -43.881  57.241 -57.295  1.00  0.00     0.276 C 
HETATM   12  N   UNL     1     -45.249  57.289 -57.489  1.00  0.00    -0.322 N 
HETATM   13  H   UNL     1     -45.785  57.181 -56.631  1.00  0.00     0.169 HD
HETATM   14  O   UNL     1     -43.014  57.409 -58.147  1.00  0.00    -0.266 OA
BRANCH  12  15
HETATM   15  C   UNL     1     -45.945  57.511 -58.689  1.00  0.00     0.035 A 
HETATM   16  C   UNL     1     -46.085  56.553 -59.693  1.00  0.00     0.032 A 
HETATM   17  C   UNL     1     -46.802  56.840 -60.864  1.00  0.00     0.032 A 
HETATM   18  C   UNL     1     -47.387  58.090 -61.054  1.00  0.00     0.034 A 
HETATM   19  C   UNL     1     -47.244  59.053 -60.047  1.00  0.00     0.032 A 
HETATM   20  C   UNL     1     -46.534  58.764 -58.874  1.00  0.00     0.032 A 
BRANCH  18  21
HETATM   21  N   UNL     1     -48.130  58.452 -62.197  1.00  0.00    -0.327 N 
HETATM   22  C   UNL     1     -49.155  57.740 -62.795  1.00  0.00     0.221 C 
HETATM   23  O   UNL     1     -49.599  56.657 -62.431  1.00  0.00    -0.273 OA
HETATM   24  H   UNL     1     -47.874  59.332 -62.624  1.00  0.00     0.169 HD
BRANCH  22  25
HETATM   25  C   UNL     1     -49.779  58.459 -63.981  1.00  0.00     0.098 C 
HETATM   26  C   UNL     1     -50.895  59.414 -63.597  1.00  0.00     0.014 C 
ENDBRANCH  22  25
ENDBRANCH  18  21
ENDBRANCH  12  15
ENDBRANCH   1  11
BRANCH   8  27
HETATM   27  C   UNL     1     -40.724  54.581 -53.917  1.00  0.00     0.409 C 
HETATM   28  F   UNL     1     -41.639  53.731 -54.434  1.00  0.00    -0.169 F 
HETATM   29  F   UNL     1     -39.790  54.821 -54.862  1.00  0.00    -0.169 F 
HETATM   30  F   UNL     1     -40.086  53.906 -52.923  1.00  0.00    -0.169 F 
ENDBRANCH   8  27
BRANCH   6  31
HETATM   31  C   UNL     1     -41.889  57.936 -51.036  1.00  0.00     0.075 A 
HETATM   32  O   UNL     1     -42.553  59.129 -51.004  1.00  0.00    -0.325 OA
HETATM   33  C   UNL     1     -41.642  60.086 -50.694  1.00  0.00     0.142 A 
HETATM   34  C   UNL     1     -40.399  59.527 -50.514  1.00  0.00     0.027 A 
HETATM   35  C   UNL     1     -40.556  58.138 -50.734  1.00  0.00     0.037 A 
ENDBRANCH   6  31
TORSDOF 6
ENDMDL
MODEL 3
REMARK VINA RESULT:      -7.6      3.907     10.521
REMARK  6 active torsions:
REMARK  status: ('A' for Active; 'I' for Inactive)
REMARK    1  A    between atoms: C_2  and  C_3 
REMARK       I    between atoms: C_3  and  N_4 
REMARK    2  A    between atoms: N_4  and  C_5 
REMARK    3  A    between atoms: C_8  and  N_9 
REMARK       I    between atoms: N_9  and  C_10 
REMARK    4  A    between atoms: C_10  and  C_11 
REMARK    5  A    between atoms: C_16  and  C_17 
REMARK    6  A    between atoms: C_23  and  C_24 
ROOT
HETATM    1  C   UNL     1     -43.159  56.058 -54.760  1.00  0.00     0.148 A 
HETATM    2  N   UNL     1     -43.636  55.372 -53.696  1.00  0.00    -0.165 NA
HETATM    3  N   UNL     1     -42.536  54.813 -53.155  1.00  0.00    -0.240 N 
HETATM    4  C   UNL     1     -41.385  55.094 -53.844  1.00  0.00     0.123 A 
HETATM    5  N   UNL     1     -40.188  54.597 -53.459  1.00  0.00    -0.364 N 
HETATM    6  C   UNL     1     -40.117  53.489 -52.504  1.00  0.00     0.143 C 
HETATM    7  C   UNL     1     -41.203  53.672 -51.434  1.00  0.00     0.068 C 
HETATM    8  C   UNL     1     -42.601  53.864 -52.056  1.00  0.00     0.221 C 
HETATM    9  C   UNL     1     -41.752  55.902 -54.886  1.00  0.00     0.089 A 
HETATM   10  H   UNL     1     -39.390  54.658 -54.092  1.00  0.00     0.162 HD
ENDROOT
BRANCH   1  11
HETATM   11  C   UNL     1     -44.031  56.848 -55.647  1.00  0.00     0.276 C 
HETATM   12  N   UNL     1     -43.665  56.737 -56.976  1.00  0.00    -0.322 N 
HETATM   13  H   UNL     1     -42.883  56.105 -57.130  1.00  0.00     0.169 HD
HETATM   14  O   UNL     1     -44.977  57.489 -55.200  1.00  0.00    -0.266 OA
BRANCH  12  15
HETATM   15  C   UNL     1     -44.265  57.344 -58.092  1.00  0.00     0.035 A 
HETATM   16  C   UNL     1     -44.863  56.635 -59.132  1.00  0.00     0.032 A 
HETATM   17  C   UNL     1     -45.452  57.307 -60.215  1.00  0.00     0.032 A 
HETATM   18  C   UNL     1     -45.448  58.698 -60.276  1.00  0.00     0.034 A 
HETATM   19  C   UNL     1     -44.845  59.411 -59.232  1.00  0.00     0.032 A 
HETATM   20  C   UNL     1     -44.264  58.740 -58.149  1.00  0.00     0.032 A 
BRANCH  18  21
HETATM   21  N   UNL     1     -46.026  59.447 -61.324  1.00  0.00    -0.327 N 
HETATM   22  C   UNL     1     -47.326  59.912 -61.407  1.00  0.00     0.221 C 
HETATM   23  O   UNL     1     -48.214  59.751 -60.576  1.00  0.00    -0.273 OA
HETATM   24  H   UNL     1     -45.414  59.658 -62.099  1.00  0.00     0.169 HD
BRANCH  22  25
HETATM   25  C   UNL     1     -47.594  60.741 -62.654  1.00  0.00     0.098 C 
HETATM   26  C   UNL     1     -46.332  61.203 -63.360  1.00  0.00     0.014 C 
ENDBRANCH  22  25
ENDBRANCH  18  21
ENDBRANCH  12  15
ENDBRANCH   1  11
BRANCH   8  27
HETATM   27  C   UNL     1     -43.579  54.295 -50.986  1.00  0.00     0.409 C 
HETATM   28  F   UNL     1     -43.995  55.571 -51.147  1.00  0.00    -0.169 F 
HETATM   29  F   UNL     1     -44.671  53.504 -50.909  1.00  0.00    -0.169 F 
HETATM   30  F   UNL     1     -42.983  54.233 -49.765  1.00  0.00    -0.169 F 
ENDBRANCH   8  27
BRANCH   6  31
HETATM   31  C   UNL     1     -40.165  52.126 -53.120  1.00  0.00     0.075 A 
HETATM   32  O   UNL     1     -39.648  51.107 -52.372  1.00  0.00    -0.325 OA
HETATM   33  C   UNL     1     -39.760  49.973 -53.110  1.00  0.00     0.142 A 
HETATM   34  C   UNL     1     -40.352  50.243 -54.321  1.00  0.00     0.027 A 
HETATM   35  C   UNL     1     -40.616  51.633 -54.330  1.00  0.00     0.037 A 
ENDBRANCH   6  31
TORSDOF 6
ENDMDL
MODEL 4
REMARK VINA RESULT:      -7.6      6.606      8.577
REMARK  6 active torsions:
REMARK  status: ('A' for Active; 'I' for Inactive)
REMARK    1  A    between atoms: C_2  and  C_3 
REMARK       I    between atoms: C_3  and  N_4 
REMARK    2  A    between atoms: N_4  and  C_5 
REMARK    3  A    between atoms: C_8  and  N_9 
REMARK       I    between atoms: N_9  and  C_10 
REMARK    4  A    between atoms: C_10  and  C_11 
REMARK    5  A    between atoms: C_16  and  C_17 
REMARK    6  A    between atoms: C_23  and  C_24 
ROOT
HETATM    1  C   UNL     1     -43.947  59.134 -51.896  1.00  0.00     0.148 A 
HETATM    2  N   UNL     1     -45.151  59.748 -51.946  1.00  0.00    -0.165 NA
HETATM    3  N   UNL     1     -44.975  60.861 -51.207  1.00  0.00    -0.240 N 
HETATM    4  C   UNL     1     -43.719  60.968 -50.670  1.00  0.00     0.123 A 
HETATM    5  N   UNL     1     -43.370  62.008 -49.881  1.00  0.00    -0.364 N 
HETATM    6  C   UNL     1     -44.397  62.879 -49.303  1.00  0.00     0.143 C 
HETATM    7  C   UNL     1     -45.515  63.094 -50.333  1.00  0.00     0.068 C 
HETATM    8  C   UNL     1     -46.068  61.759 -50.874  1.00  0.00     0.221 C 
HETATM    9  C   UNL     1     -43.026  59.869 -51.101  1.00  0.00     0.089 A 
HETATM   10  H   UNL     1     -42.505  61.965 -49.342  1.00  0.00     0.162 HD
ENDROOT
BRANCH   1  11
HETATM   11  C   UNL     1     -43.677  57.864 -52.593  1.00  0.00     0.276 C 
HETATM   12  N   UNL     1     -42.540  57.237 -52.117  1.00  0.00    -0.322 N 
HETATM   13  H   UNL     1     -42.097  57.730 -51.344  1.00  0.00     0.169 HD
HETATM   14  O   UNL     1     -44.429  57.449 -53.468  1.00  0.00    -0.266 OA
BRANCH  12  15
HETATM   15  C   UNL     1     -41.983  56.018 -52.539  1.00  0.00     0.035 A 
HETATM   16  C   UNL     1     -41.118  55.895 -53.624  1.00  0.00     0.032 A 
HETATM   17  C   UNL     1     -40.591  54.646 -53.986  1.00  0.00     0.032 A 
HETATM   18  C   UNL     1     -40.925  53.498 -53.271  1.00  0.00     0.034 A 
HETATM   19  C   UNL     1     -41.797  53.620 -52.181  1.00  0.00     0.032 A 
HETATM   20  C   UNL     1     -42.317  54.869 -51.816  1.00  0.00     0.032 A 
BRANCH  18  21
HETATM   21  N   UNL     1     -40.432  52.209 -53.565  1.00  0.00    -0.327 N 
HETATM   22  C   UNL     1     -39.664  51.397 -52.750  1.00  0.00     0.221 C 
HETATM   23  O   UNL     1     -39.272  51.659 -51.618  1.00  0.00    -0.273 OA
HETATM   24  H   UNL     1     -40.667  51.849 -54.479  1.00  0.00     0.169 HD
BRANCH  22  25
HETATM   25  C   UNL     1     -39.359  50.039 -53.365  1.00  0.00     0.098 C 
HETATM   26  C   UNL     1     -39.932  49.859 -54.759  1.00  0.00     0.014 C 
ENDBRANCH  22  25
ENDBRANCH  18  21
ENDBRANCH  12  15
ENDBRANCH   1  11
BRANCH   8  27
HETATM   27  C   UNL     1     -46.971  62.025 -52.057  1.00  0.00     0.409 C 
HETATM   28  F   UNL     1     -46.280  62.266 -53.193  1.00  0.00    -0.169 F 
HETATM   29  F   UNL     1     -47.843  61.023 -52.301  1.00  0.00    -0.169 F 
HETATM   30  F   UNL     1     -47.727  63.131 -51.821  1.00  0.00    -0.169 F 
ENDBRANCH   8  27
BRANCH   6  31
HETATM   31  C   UNL     1     -44.933  62.424 -47.983  1.00  0.00     0.075 A 
HETATM   32  O   UNL     1     -45.697  63.327 -47.299  1.00  0.00    -0.325 OA
HETATM   33  C   UNL     1     -46.059  62.741 -46.130  1.00  0.00     0.142 A 
HETATM   34  C   UNL     1     -45.548  61.467 -46.052  1.00  0.00     0.027 A 
HETATM   35  C   UNL     1     -44.821  61.259 -47.249  1.00  0.00     0.037 A 
ENDBRANCH   6  31
TORSDOF 6
ENDMDL
MODEL 5
REMARK VINA RESULT:      -7.5     16.974     19.532
REMARK  6 active torsions:
REMARK  status: ('A' for Active; 'I' for Inactive)
REMARK    1  A    between atoms: C_2  and  C_3 
REMARK       I    between atoms: C_3  and  N_4 
REMARK    2  A    between atoms: N_4  and  C_5 
REMARK    3  A    between atoms: C_8  and  N_9 
REMARK       I    between atoms: N_9  and  C_10 
REMARK    4  A    between atoms: C_10  and  C_11 
REMARK    5  A    between atoms: C_16  and  C_17 
REMARK    6  A    between atoms: C_23  and  C_24 
ROOT
HETATM    1  C   UNL     1     -34.882  40.759 -52.363  1.00  0.00     0.148 A 
HETATM    2  N   UNL     1     -34.186  40.168 -53.361  1.00  0.00    -0.165 NA
HETATM    3  N   UNL     1     -34.536  40.871 -54.456  1.00  0.00    -0.240 N 
HETATM    4  C   UNL     1     -35.443  41.866 -54.201  1.00  0.00     0.123 A 
HETATM    5  N   UNL     1     -35.925  42.657 -55.184  1.00  0.00    -0.364 N 
HETATM    6  C   UNL     1     -35.758  42.280 -56.590  1.00  0.00     0.143 C 
HETATM    7  C   UNL     1     -34.372  41.647 -56.783  1.00  0.00     0.068 C 
HETATM    8  C   UNL     1     -34.123  40.488 -55.796  1.00  0.00     0.221 C 
HETATM    9  C   UNL     1     -35.684  41.825 -52.854  1.00  0.00     0.089 A 
HETATM   10  H   UNL     1     -36.734  43.251 -55.003  1.00  0.00     0.162 HD
ENDROOT
BRANCH   1  11
HETATM   11  C   UNL     1     -34.787  40.313 -50.962  1.00  0.00     0.276 C 
HETATM   12  N   UNL     1     -33.514  39.886 -50.633  1.00  0.00    -0.322 N 
HETATM   13  H   UNL     1     -32.844  39.980 -51.394  1.00  0.00     0.169 HD
HETATM   14  O   UNL     1     -35.757  40.368 -50.213  1.00  0.00    -0.266 OA
BRANCH  12  15
HETATM   15  C   UNL     1     -33.057  39.399 -49.397  1.00  0.00     0.035 A 
HETATM   16  C   UNL     1     -33.635  38.322 -48.726  1.00  0.00     0.032 A 
HETATM   17  C   UNL     1     -33.121  37.882 -47.496  1.00  0.00     0.032 A 
HETATM   18  C   UNL     1     -32.024  38.515 -46.915  1.00  0.00     0.034 A 
HETATM   19  C   UNL     1     -31.445  39.599 -47.588  1.00  0.00     0.032 A 
HETATM   20  C   UNL     1     -31.954  40.033 -48.819  1.00  0.00     0.032 A 
BRANCH  18  21
HETATM   21  N   UNL     1     -31.444  38.128 -45.688  1.00  0.00    -0.327 N 
HETATM   22  C   UNL     1     -31.946  38.339 -44.417  1.00  0.00     0.221 C 
HETATM   23  O   UNL     1     -32.994  38.908 -44.131  1.00  0.00    -0.273 OA
HETATM   24  H   UNL     1     -30.558  37.646 -45.757  1.00  0.00     0.169 HD
BRANCH  22  25
HETATM   25  C   UNL     1     -31.086  37.731 -43.319  1.00  0.00     0.098 C 
HETATM   26  C   UNL     1     -29.642  38.199 -43.346  1.00  0.00     0.014 C 
ENDBRANCH  22  25
ENDBRANCH  18  21
ENDBRANCH  12  15
ENDBRANCH   1  11
BRANCH   8  27
HETATM   27  C   UNL     1     -32.668  40.077 -55.851  1.00  0.00     0.409 C 
HETATM   28  F   UNL     1     -32.496  38.752 -55.648  1.00  0.00    -0.169 F 
HETATM   29  F   UNL     1     -32.061  40.407 -57.011  1.00  0.00    -0.169 F 
HETATM   30  F   UNL     1     -31.973  40.712 -54.869  1.00  0.00    -0.169 F 
ENDBRANCH   8  27
BRANCH   6  31
HETATM   31  C   UNL     1     -36.848  41.414 -57.140  1.00  0.00     0.075 A 
HETATM   32  O   UNL     1     -36.806  41.172 -58.484  1.00  0.00    -0.325 OA
HETATM   33  C   UNL     1     -37.882  40.401 -58.785  1.00  0.00     0.142 A 
HETATM   34  C   UNL     1     -38.613  40.132 -57.653  1.00  0.00     0.027 A 
HETATM   35  C   UNL     1     -37.947  40.784 -56.588  1.00  0.00     0.037 A 
ENDBRANCH   6  31
TORSDOF 6
ENDMDL
MODEL 6
REMARK VINA RESULT:      -7.4     17.079     19.290
REMARK  6 active torsions:
REMARK  status: ('A' for Active; 'I' for Inactive)
REMARK    1  A    between atoms: C_2  and  C_3 
REMARK       I    between atoms: C_3  and  N_4 
REMARK    2  A    between atoms: N_4  and  C_5 
REMARK    3  A    between atoms: C_8  and  N_9 
REMARK       I    between atoms: N_9  and  C_10 
REMARK    4  A    between atoms: C_10  and  C_11 
REMARK    5  A    between atoms: C_16  and  C_17 
REMARK    6  A    between atoms: C_23  and  C_24 
ROOT
HETATM    1  C   UNL     1     -36.050  38.864 -55.594  1.00  0.00     0.148 A 
HETATM    2  N   UNL     1     -35.907  39.996 -56.320  1.00  0.00    -0.165 NA
HETATM    3  N   UNL     1     -36.462  39.688 -57.508  1.00  0.00    -0.240 N 
HETATM    4  C   UNL     1     -36.929  38.401 -57.577  1.00  0.00     0.123 A 
HETATM    5  N   UNL     1     -37.496  37.911 -58.701  1.00  0.00    -0.364 N 
HETATM    6  C   UNL     1     -37.339  38.611 -59.979  1.00  0.00     0.143 C 
HETATM    7  C   UNL     1     -37.403  40.126 -59.737  1.00  0.00     0.068 C 
HETATM    8  C   UNL     1     -36.404  40.581 -58.654  1.00  0.00     0.221 C 
HETATM    9  C   UNL     1     -36.683  37.842 -56.352  1.00  0.00     0.089 A 
HETATM   10  H   UNL     1     -37.654  36.907 -58.790  1.00  0.00     0.162 HD
ENDROOT
BRANCH   1  11
HETATM   11  C   UNL     1     -35.589  38.754 -54.199  1.00  0.00     0.276 C 
HETATM   12  N   UNL     1     -34.525  39.597 -53.932  1.00  0.00    -0.322 N 
HETATM   13  H   UNL     1     -34.258  40.178 -54.724  1.00  0.00     0.169 HD
HETATM   14  O   UNL     1     -36.145  38.004 -53.404  1.00  0.00    -0.266 OA
BRANCH  12  15
HETATM   15  C   UNL     1     -33.835  39.761 -52.719  1.00  0.00     0.035 A 
HETATM   16  C   UNL     1     -34.226  40.648 -51.718  1.00  0.00     0.032 A 
HETATM   17  C   UNL     1     -33.493  40.755 -50.526  1.00  0.00     0.032 A 
HETATM   18  C   UNL     1     -32.355  39.979 -50.318  1.00  0.00     0.034 A 
HETATM   19  C   UNL     1     -31.960  39.089 -51.325  1.00  0.00     0.032 A 
HETATM   20  C   UNL     1     -32.696  38.978 -52.512  1.00  0.00     0.032 A 
BRANCH  18  21
HETATM   21  N   UNL     1     -31.571  40.021 -49.145  1.00  0.00    -0.327 N 
HETATM   22  C   UNL     1     -31.767  39.309 -47.976  1.00  0.00     0.221 C 
HETATM   23  O   UNL     1     -32.669  38.508 -47.752  1.00  0.00    -0.273 OA
HETATM   24  H   UNL     1     -30.780  40.650 -49.170  1.00  0.00     0.169 HD
BRANCH  22  25
HETATM   25  C   UNL     1     -30.689  39.553 -46.931  1.00  0.00     0.098 C 
HETATM   26  C   UNL     1     -31.046  39.023 -45.553  1.00  0.00     0.014 C 
ENDBRANCH  22  25
ENDBRANCH  18  21
ENDBRANCH  12  15
ENDBRANCH   1  11
BRANCH   8  27
HETATM   27  C   UNL     1     -36.686  42.018 -58.273  1.00  0.00     0.409 C 
HETATM   28  F   UNL     1     -35.643  42.602 -57.643  1.00  0.00    -0.169 F 
HETATM   29  F   UNL     1     -37.031  42.793 -59.324  1.00  0.00    -0.169 F 
HETATM   30  F   UNL     1     -37.736  42.067 -57.409  1.00  0.00    -0.169 F 
ENDBRANCH   8  27
BRANCH   6  31
HETATM   31  C   UNL     1     -36.124  38.222 -60.761  1.00  0.00     0.075 A 
HETATM   32  O   UNL     1     -36.241  38.272 -62.121  1.00  0.00    -0.325 OA
HETATM   33  C   UNL     1     -35.056  37.860 -62.639  1.00  0.00     0.142 A 
HETATM   34  C   UNL     1     -34.170  37.555 -61.633  1.00  0.00     0.027 A 
HETATM   35  C   UNL     1     -34.858  37.788 -60.418  1.00  0.00     0.037 A 
ENDBRANCH   6  31
TORSDOF 6
ENDMDL
MODEL 7
REMARK VINA RESULT:      -7.4      2.343      3.360
REMARK  6 active torsions:
REMARK  status: ('A' for Active; 'I' for Inactive)
REMARK    1  A    between atoms: C_2  and  C_3 
REMARK       I    between atoms: C_3  and  N_4 
REMARK    2  A    between atoms: N_4  and  C_5 
REMARK    3  A    between atoms: C_8  and  N_9 
REMARK       I    between atoms: N_9  and  C_10 
REMARK    4  A    between atoms: C_10  and  C_11 
REMARK    5  A    between atoms: C_16  and  C_17 
REMARK    6  A    between atoms: C_23  and  C_24 
ROOT
HETATM    1  C   UNL     1     -42.885  57.584 -57.235  1.00  0.00     0.148 A 
HETATM    2  N   UNL     1     -44.206  57.808 -57.421  1.00  0.00    -0.165 NA
HETATM    3  N   UNL     1     -44.265  58.389 -58.636  1.00  0.00    -0.240 N 
HETATM    4  C   UNL     1     -43.037  58.566 -59.218  1.00  0.00     0.123 A 
HETATM    5  N   UNL     1     -42.903  59.154 -60.427  1.00  0.00    -0.364 N 
HETATM    6  C   UNL     1     -44.010  59.916 -61.009  1.00  0.00     0.143 C 
HETATM    7  C   UNL     1     -45.334  59.205 -60.693  1.00  0.00     0.068 C 
HETATM    8  C   UNL     1     -45.497  58.931 -59.184  1.00  0.00     0.221 C 
HETATM    9  C   UNL     1     -42.122  58.050 -58.340  1.00  0.00     0.089 A 
HETATM   10  H   UNL     1     -41.979  59.449 -60.745  1.00  0.00     0.162 HD
ENDROOT
BRANCH   1  11
HETATM   11  C   UNL     1     -42.356  56.937 -56.022  1.00  0.00     0.276 C 
HETATM   12  N   UNL     1     -42.036  55.609 -56.233  1.00  0.00    -0.322 N 
HETATM   13  H   UNL     1     -42.181  55.304 -57.193  1.00  0.00     0.169 HD
HETATM   14  O   UNL     1     -42.212  57.568 -54.979  1.00  0.00    -0.266 OA
BRANCH  12  15
HETATM   15  C   UNL     1     -41.508  54.689 -55.312  1.00  0.00     0.035 A 
HETATM   16  C   UNL     1     -40.222  54.158 -55.395  1.00  0.00     0.032 A 
HETATM   17  C   UNL     1     -39.756  53.249 -54.433  1.00  0.00     0.032 A 
HETATM   18  C   UNL     1     -40.571  52.851 -53.375  1.00  0.00     0.034 A 
HETATM   19  C   UNL     1     -41.865  53.382 -53.293  1.00  0.00     0.032 A 
HETATM   20  C   UNL     1     -42.326  54.296 -54.249  1.00  0.00     0.032 A 
BRANCH  18  21
HETATM   21  N   UNL     1     -40.174  51.949 -52.365  1.00  0.00    -0.327 N 
HETATM   22  C   UNL     1     -39.766  50.638 -52.521  1.00  0.00     0.221 C 
HETATM   23  O   UNL     1     -39.678  50.021 -53.578  1.00  0.00    -0.273 OA
HETATM   24  H   UNL     1     -40.199  52.312 -51.422  1.00  0.00     0.169 HD
BRANCH  22  25
HETATM   25  C   UNL     1     -39.349  49.974 -51.217  1.00  0.00     0.098 C 
HETATM   26  C   UNL     1     -40.223  50.352 -50.035  1.00  0.00     0.014 C 
ENDBRANCH  22  25
ENDBRANCH  18  21
ENDBRANCH  12  15
ENDBRANCH   1  11
BRANCH   8  27
HETATM   27  C   UNL     1     -46.677  58.011 -58.958  1.00  0.00     0.409 C 
HETATM   28  F   UNL     1     -46.371  56.713 -59.174  1.00  0.00    -0.169 F 
HETATM   29  F   UNL     1     -47.210  58.118 -57.722  1.00  0.00    -0.169 F 
HETATM   30  F   UNL     1     -47.676  58.323 -59.827  1.00  0.00    -0.169 F 
ENDBRANCH   8  27
BRANCH   6  31
HETATM   31  C   UNL     1     -44.047  61.362 -60.625  1.00  0.00     0.075 A 
HETATM   32  O   UNL     1     -45.212  62.025 -60.886  1.00  0.00    -0.325 OA
HETATM   33  C   UNL     1     -45.035  63.313 -60.495  1.00  0.00     0.142 A 
HETATM   34  C   UNL     1     -43.775  63.489 -59.975  1.00  0.00     0.027 A 
HETATM   35  C   UNL     1     -43.135  62.230 -60.057  1.00  0.00     0.037 A 
ENDBRANCH   6  31
TORSDOF 6
ENDMDL
MODEL 8
REMARK VINA RESULT:      -7.4      2.897      4.453
REMARK  6 active torsions:
REMARK  status: ('A' for Active; 'I' for Inactive)
REMARK    1  A    between atoms: C_2  and  C_3 
REMARK       I    between atoms: C_3  and  N_4 
REMARK    2  A    between atoms: N_4  and  C_5 
REMARK    3  A    between atoms: C_8  and  N_9 
REMARK       I    between atoms: N_9  and  C_10 
REMARK    4  A    between atoms: C_10  and  C_11 
REMARK    5  A    between atoms: C_16  and  C_17 
REMARK    6  A    between atoms: C_23  and  C_24 
ROOT
HETATM    1  C   UNL     1     -42.783  57.216 -58.564  1.00  0.00     0.148 A 
HETATM    2  N   UNL     1     -43.641  58.252 -58.426  1.00  0.00    -0.165 NA
HETATM    3  N   UNL     1     -43.281  59.099 -59.411  1.00  0.00    -0.240 N 
HETATM    4  C   UNL     1     -42.217  58.655 -60.152  1.00  0.00     0.123 A 
HETATM    5  N   UNL     1     -41.706  59.386 -61.167  1.00  0.00    -0.364 N 
HETATM    6  C   UNL     1     -42.044  60.805 -61.305  1.00  0.00     0.143 C 
HETATM    7  C   UNL     1     -43.520  61.012 -60.936  1.00  0.00     0.068 C 
HETATM    8  C   UNL     1     -43.857  60.426 -59.550  1.00  0.00     0.221 C 
HETATM    9  C   UNL     1     -41.874  57.436 -59.634  1.00  0.00     0.089 A 
HETATM   10  H   UNL     1     -40.804  59.129 -61.569  1.00  0.00     0.162 HD
ENDROOT
BRANCH   1  11
HETATM   11  C   UNL     1     -42.827  56.032 -57.687  1.00  0.00     0.276 C 
HETATM   12  N   UNL     1     -42.051  56.190 -56.553  1.00  0.00    -0.322 N 
HETATM   13  H   UNL     1     -41.608  57.105 -56.489  1.00  0.00     0.169 HD
HETATM   14  O   UNL     1     -43.515  55.057 -57.972  1.00  0.00    -0.266 OA
BRANCH  12  15
HETATM   15  C   UNL     1     -41.857  55.278 -55.503  1.00  0.00     0.035 A 
HETATM   16  C   UNL     1     -42.770  55.079 -54.469  1.00  0.00     0.032 A 
HETATM   17  C   UNL     1     -42.515  54.143 -53.455  1.00  0.00     0.032 A 
HETATM   18  C   UNL     1     -41.341  53.394 -53.456  1.00  0.00     0.034 A 
HETATM   19  C   UNL     1     -40.422  53.595 -54.494  1.00  0.00     0.032 A 
HETATM   20  C   UNL     1     -40.680  54.524 -55.510  1.00  0.00     0.032 A 
BRANCH  18  21
HETATM   21  N   UNL     1     -41.016  52.428 -52.480  1.00  0.00    -0.327 N 
HETATM   22  C   UNL     1     -40.203  52.591 -51.374  1.00  0.00     0.221 C 
HETATM   23  O   UNL     1     -39.613  53.616 -51.046  1.00  0.00    -0.273 OA
HETATM   24  H   UNL     1     -41.426  51.514 -52.616  1.00  0.00     0.169 HD
BRANCH  22  25
HETATM   25  C   UNL     1     -40.121  51.353 -50.494  1.00  0.00     0.098 C 
HETATM   26  C   UNL     1     -39.556  50.137 -51.206  1.00  0.00     0.014 C 
ENDBRANCH  22  25
ENDBRANCH  18  21
ENDBRANCH  12  15
ENDBRANCH   1  11
BRANCH   8  27
HETATM   27  C   UNL     1     -45.356  60.423 -59.349  1.00  0.00     0.409 C 
HETATM   28  F   UNL     1     -45.706  60.245 -58.056  1.00  0.00    -0.169 F 
HETATM   29  F   UNL     1     -45.959  61.545 -59.797  1.00  0.00    -0.169 F 
HETATM   30  F   UNL     1     -45.912  59.395 -60.045  1.00  0.00    -0.169 F 
ENDBRANCH   8  27
BRANCH   6  31
HETATM   31  C   UNL     1     -41.146  61.739 -60.556  1.00  0.00     0.075 A 
HETATM   32  O   UNL     1     -40.495  62.679 -61.303  1.00  0.00    -0.325 OA
HETATM   33  C   UNL     1     -39.719  63.398 -60.453  1.00  0.00     0.142 A 
HETATM   34  C   UNL     1     -39.867  62.943 -59.164  1.00  0.00     0.027 A 
HETATM   35  C   UNL     1     -40.789  61.871 -59.228  1.00  0.00     0.037 A 
ENDBRANCH   6  31
TORSDOF 6
ENDMDL
MODEL 9
REMARK VINA RESULT:      -7.2      2.455      3.148
REMARK  6 active torsions:
REMARK  status: ('A' for Active; 'I' for Inactive)
REMARK    1  A    between atoms: C_2  and  C_3 
REMARK       I    between atoms: C_3  and  N_4 
REMARK    2  A    between atoms: N_4  and  C_5 
REMARK    3  A    between atoms: C_8  and  N_9 
REMARK       I    between atoms: N_9  and  C_10 
REMARK    4  A    between atoms: C_10  and  C_11 
REMARK    5  A    between atoms: C_16  and  C_17 
REMARK    6  A    between atoms: C_23  and  C_24 
ROOT
HETATM    1  C   UNL     1     -44.187  58.017 -57.649  1.00  0.00     0.148 A 
HETATM    2  N   UNL     1     -45.040  57.240 -58.353  1.00  0.00    -0.165 NA
HETATM    3  N   UNL     1     -45.723  58.120 -59.112  1.00  0.00    -0.240 N 
HETATM    4  C   UNL     1     -45.356  59.424 -58.902  1.00  0.00     0.123 A 
HETATM    5  N   UNL     1     -45.952  60.443 -59.559  1.00  0.00    -0.364 N 
HETATM    6  C   UNL     1     -47.218  60.233 -60.265  1.00  0.00     0.143 C 
HETATM    7  C   UNL     1     -47.201  58.852 -60.935  1.00  0.00     0.068 C 
HETATM    8  C   UNL     1     -46.855  57.729 -59.936  1.00  0.00     0.221 C 
HETATM    9  C   UNL     1     -44.360  59.392 -57.964  1.00  0.00     0.089 A 
HETATM   10  H   UNL     1     -45.801  61.402 -59.246  1.00  0.00     0.162 HD
ENDROOT
BRANCH   1  11
HETATM   11  C   UNL     1     -43.221  57.460 -56.686  1.00  0.00     0.276 C 
HETATM   12  N   UNL     1     -43.550  56.173 -56.299  1.00  0.00    -0.322 N 
HETATM   13  H   UNL     1     -44.378  55.808 -56.765  1.00  0.00     0.169 HD
HETATM   14  O   UNL     1     -42.239  58.103 -56.328  1.00  0.00    -0.266 OA
BRANCH  12  15
HETATM   15  C   UNL     1     -42.862  55.336 -55.404  1.00  0.00     0.035 A 
HETATM   16  C   UNL     1     -43.389  54.901 -54.189  1.00  0.00     0.032 A 
HETATM   17  C   UNL     1     -42.649  54.058 -53.346  1.00  0.00     0.032 A 
HETATM   18  C   UNL     1     -41.369  53.639 -53.703  1.00  0.00     0.034 A 
HETATM   19  C   UNL     1     -40.838  54.078 -54.923  1.00  0.00     0.032 A 
HETATM   20  C   UNL     1     -41.580  54.915 -55.767  1.00  0.00     0.032 A 
BRANCH  18  21
HETATM   21  N   UNL     1     -40.566  52.786 -52.916  1.00  0.00    -0.327 N 
HETATM   22  C   UNL     1     -40.093  51.531 -53.253  1.00  0.00     0.221 C 
HETATM   23  O   UNL     1     -40.291  50.933 -54.306  1.00  0.00    -0.273 OA
HETATM   24  H   UNL     1     -40.318  53.138 -52.002  1.00  0.00     0.169 HD
BRANCH  22  25
HETATM   25  C   UNL     1     -39.200  50.915 -52.186  1.00  0.00     0.098 C 
HETATM   26  C   UNL     1     -39.882  50.758 -50.838  1.00  0.00     0.014 C 
ENDBRANCH  22  25
ENDBRANCH  18  21
ENDBRANCH  12  15
ENDBRANCH   1  11
BRANCH   8  27
HETATM   27  C   UNL     1     -46.597  56.441 -60.687  1.00  0.00     0.409 C 
HETATM   28  F   UNL     1     -47.379  56.314 -61.783  1.00  0.00    -0.169 F 
HETATM   29  F   UNL     1     -45.311  56.291 -61.068  1.00  0.00    -0.169 F 
HETATM   30  F   UNL     1     -46.878  55.378 -59.886  1.00  0.00    -0.169 F 
ENDBRANCH   8  27
BRANCH   6  31
HETATM   31  C   UNL     1     -48.443  60.432 -59.428  1.00  0.00     0.075 A 
HETATM   32  O   UNL     1     -49.593  60.726 -60.103  1.00  0.00    -0.325 OA
HETATM   33  C   UNL     1     -50.569  60.894 -59.175  1.00  0.00     0.142 A 
HETATM   34  C   UNL     1     -50.068  60.703 -57.910  1.00  0.00     0.027 A 
HETATM   35  C   UNL     1     -48.694  60.403 -58.070  1.00  0.00     0.037 A 
ENDBRANCH   6  31
TORSDOF 6
ENDMDL
MODEL 10
REMARK VINA RESULT:      -6.9      2.946      4.096
REMARK  6 active torsions:
REMARK  status: ('A' for Active; 'I' for Inactive)
REMARK    1  A    between atoms: C_2  and  C_3 
REMARK       I    between atoms: C_3  and  N_4 
REMARK    2  A    between atoms: N_4  and  C_5 
REMARK    3  A    between atoms: C_8  and  N_9 
REMARK       I    between atoms: N_9  and  C_10 
REMARK    4  A    between atoms: C_10  and  C_11 
REMARK    5  A    between atoms: C_16  and  C_17 
REMARK    6  A    between atoms: C_23  and  C_24 
ROOT
HETATM    1  C   UNL     1     -43.051  57.376 -57.875  1.00  0.00     0.148 A 
HETATM    2  N   UNL     1     -44.272  57.868 -58.183  1.00  0.00    -0.165 NA
HETATM    3  N   UNL     1     -44.004  59.059 -58.753  1.00  0.00    -0.240 N 
HETATM    4  C   UNL     1     -42.666  59.356 -58.797  1.00  0.00     0.123 A 
HETATM    5  N   UNL     1     -42.214  60.520 -59.312  1.00  0.00    -0.364 N 
HETATM    6  C   UNL     1     -43.132  61.639 -59.538  1.00  0.00     0.143 C 
HETATM    7  C   UNL     1     -44.476  61.096 -60.046  1.00  0.00     0.068 C 
HETATM    8  C   UNL     1     -45.046  60.005 -59.117  1.00  0.00     0.221 C 
HETATM    9  C   UNL     1     -42.021  58.284 -58.242  1.00  0.00     0.089 A 
HETATM   10  H   UNL     1     -41.245  60.799 -59.156  1.00  0.00     0.162 HD
ENDROOT
BRANCH   1  11
HETATM   11  C   UNL     1     -42.866  56.060 -57.237  1.00  0.00     0.276 C 
HETATM   12  N   UNL     1     -42.116  56.141 -56.078  1.00  0.00    -0.322 N 
HETATM   13  H   UNL     1     -41.846  57.091 -55.834  1.00  0.00     0.169 HD
HETATM   14  O   UNL     1     -43.370  55.049 -57.714  1.00  0.00    -0.266 OA
BRANCH  12  15
HETATM   15  C   UNL     1     -41.744  55.097 -55.214  1.00  0.00     0.035 A 
HETATM   16  C   UNL     1     -42.468  54.735 -54.079  1.00  0.00     0.032 A 
HETATM   17  C   UNL     1     -42.043  53.675 -53.264  1.00  0.00     0.032 A 
HETATM   18  C   UNL     1     -40.885  52.963 -53.568  1.00  0.00     0.034 A 
HETATM   19  C   UNL     1     -40.156  53.328 -54.707  1.00  0.00     0.032 A 
HETATM   20  C   UNL     1     -40.585  54.382 -55.524  1.00  0.00     0.032 A 
BRANCH  18  21
HETATM   21  N   UNL     1     -40.397  51.880 -52.805  1.00  0.00    -0.327 N 
HETATM   22  C   UNL     1     -39.817  51.929 -51.551  1.00  0.00     0.221 C 
HETATM   23  O   UNL     1     -39.622  52.935 -50.875  1.00  0.00    -0.273 OA
HETATM   24  H   UNL     1     -40.481  50.970 -53.235  1.00  0.00     0.169 HD
BRANCH  22  25
HETATM   25  C   UNL     1     -39.461  50.559 -50.995  1.00  0.00     0.098 C 
HETATM   26  C   UNL     1     -39.586  49.438 -52.011  1.00  0.00     0.014 C 
ENDBRANCH  22  25
ENDBRANCH  18  21
ENDBRANCH  12  15
ENDBRANCH   1  11
BRANCH   8  27
HETATM   27  C   UNL     1     -46.221  59.329 -59.788  1.00  0.00     0.409 C 
HETATM   28  F   UNL     1     -47.047  58.725 -58.904  1.00  0.00    -0.169 F 
HETATM   29  F   UNL     1     -46.959  60.166 -60.548  1.00  0.00    -0.169 F 
HETATM   30  F   UNL     1     -45.775  58.355 -60.627  1.00  0.00    -0.169 F 
ENDBRANCH   8  27
BRANCH   6  31
HETATM   31  C   UNL     1     -43.307  62.553 -58.366  1.00  0.00     0.075 A 
HETATM   32  O   UNL     1     -44.188  63.584 -58.531  1.00  0.00    -0.325 OA
HETATM   33  C   UNL     1     -44.182  64.304 -57.381  1.00  0.00     0.142 A 
HETATM   34  C   UNL     1     -43.316  63.747 -56.470  1.00  0.00     0.027 A 
HETATM   35  C   UNL     1     -42.750  62.615 -57.103  1.00  0.00     0.037 A 
ENDBRANCH   6  31
TORSDOF 6
ENDMDL
