MODEL 1
REMARK VINA RESULT:      -7.7      0.000      0.000
REMARK  6 active torsions:
REMARK  status: ('A' for Active; 'I' for Inactive)
REMARK    1  A    between atoms: C_7  and  N_8 
REMARK    2  A    between atoms: N_8  and  C_9 
REMARK    3  A    between atoms: C_9  and  C_10 
REMARK    4  A    between atoms: C_12  and  N_13 
REMARK       I    between atoms: N_13  and  C_14 
REMARK    5  A    between atoms: C_14  and  C_15 
REMARK    6  A    between atoms: C_15  and  N_16 
ROOT
HETATM    1  C   UNL     1     -41.453  56.859 -50.991  1.00  0.00    -0.038 A 
HETATM    2  C   UNL     1     -41.749  57.048 -52.348  1.00  0.00     0.038 A 
HETATM    3  C   UNL     1     -41.318  58.182 -53.034  1.00  0.00     0.035 A 
HETATM    4  C   UNL     1     -40.694  59.206 -52.319  1.00  0.00     0.029 A 
HETATM    5  C   UNL     1     -40.438  59.056 -50.953  1.00  0.00     0.003 A 
HETATM    6  C   UNL     1     -40.794  57.877 -50.296  1.00  0.00     0.009 A 
ENDROOT
BRANCH   1   7
HETATM    7  C   UNL     1     -41.793  55.554 -50.333  1.00  0.00     0.176 C 
BRANCH   7   8
HETATM    8  N   UNL     1     -40.602  54.714 -50.277  1.00  0.00    -0.222 N 
HETATM    9  H   UNL     1     -39.938  54.848 -49.531  1.00  0.00     0.178 HD
BRANCH   8  10
HETATM   10  C   UNL     1     -40.395  53.672 -51.098  1.00  0.00     0.679 A 
HETATM   11  N   UNL     1     -40.013  52.472 -50.683  1.00  0.00    -0.190 N 
HETATM   12  C   UNL     1     -39.906  51.605 -51.752  1.00  0.00     0.076 A 
HETATM   13  H   UNL     1     -39.823  52.216 -49.725  1.00  0.00     0.184 HD
HETATM   14  C   UNL     1     -40.236  52.355 -52.879  1.00  0.00     0.076 A 
HETATM   15  C   UNL     1     -39.554  50.264 -51.825  1.00  0.00     0.032 A 
HETATM   16  C   UNL     1     -40.229  51.830 -54.164  1.00  0.00     0.032 A 
HETATM   17  N   UNL     1     -40.533  53.615 -52.410  1.00  0.00    -0.190 N 
HETATM   18  C   UNL     1     -39.877  50.474 -54.258  1.00  0.00     0.002 A 
HETATM   19  C   UNL     1     -39.549  49.710 -53.117  1.00  0.00     0.002 A 
HETATM   20  H   UNL     1     -40.758  54.389 -53.022  1.00  0.00     0.184 HD
ENDBRANCH   8  10
ENDBRANCH   7   8
ENDBRANCH   1   7
BRANCH   3  21
HETATM   21  N   UNL     1     -41.459  58.333 -54.424  1.00  0.00    -0.326 N 
HETATM   22  C   UNL     1     -42.489  58.966 -55.098  1.00  0.00     0.242 C 
HETATM   23  O   UNL     1     -43.468  59.481 -54.544  1.00  0.00    -0.271 OA
HETATM   24  H   UNL     1     -40.813  57.793 -55.012  1.00  0.00     0.169 HD
BRANCH  22  25
HETATM   25  C   UNL     1     -42.444  58.910 -56.617  1.00  0.00     0.253 C 
BRANCH  25  26
HETATM   26  N   UNL     1     -42.614  57.599 -57.222  1.00  0.00    -0.273 N 
HETATM   27  N   UNL     1     -42.710  56.496 -56.443  1.00  0.00    -0.185 NA
HETATM   28  C   UNL     1     -42.967  55.515 -57.315  1.00  0.00     0.140 A 
HETATM   29  C   UNL     1     -43.034  55.980 -58.640  1.00  0.00     0.040 A 
HETATM   30  C   UNL     1     -42.805  57.334 -58.549  1.00  0.00     0.114 A 
ENDBRANCH  25  26
ENDBRANCH  22  25
ENDBRANCH   3  21
TORSDOF 6
ENDMDL
MODEL 2
REMARK VINA RESULT:      -7.6      2.195      2.898
REMARK  6 active torsions:
REMARK  status: ('A' for Active; 'I' for Inactive)
REMARK    1  A    between atoms: C_7  and  N_8 
REMARK    2  A    between atoms: N_8  and  C_9 
REMARK    3  A    between atoms: C_9  and  C_10 
REMARK    4  A    between atoms: C_12  and  N_13 
REMARK       I    between atoms: N_13  and  C_14 
REMARK    5  A    between atoms: C_14  and  C_15 
REMARK    6  A    between atoms: C_15  and  N_16 
ROOT
HETATM    1  C   UNL     1     -43.104  56.393 -52.580  1.00  0.00    -0.038 A 
HETATM    2  C   UNL     1     -43.209  55.959 -53.909  1.00  0.00     0.038 A 
HETATM    3  C   UNL     1     -43.998  56.640 -54.834  1.00  0.00     0.035 A 
HETATM    4  C   UNL     1     -44.797  57.695 -54.393  1.00  0.00     0.029 A 
HETATM    5  C   UNL     1     -44.744  58.108 -53.058  1.00  0.00     0.003 A 
HETATM    6  C   UNL     1     -43.883  57.476 -52.160  1.00  0.00     0.009 A 
ENDROOT
BRANCH   1   7
HETATM    7  C   UNL     1     -42.121  55.732 -51.659  1.00  0.00     0.176 C 
BRANCH   7   8
HETATM    8  N   UNL     1     -40.953  55.305 -52.422  1.00  0.00    -0.222 N 
HETATM    9  H   UNL     1     -40.294  55.997 -52.742  1.00  0.00     0.178 HD
BRANCH   8  10
HETATM   10  C   UNL     1     -40.630  54.017 -52.617  1.00  0.00     0.679 A 
HETATM   11  N   UNL     1     -40.211  53.209 -51.654  1.00  0.00    -0.190 N 
HETATM   12  C   UNL     1     -39.980  51.943 -52.155  1.00  0.00     0.076 A 
HETATM   13  H   UNL     1     -40.075  53.469 -50.687  1.00  0.00     0.184 HD
HETATM   14  C   UNL     1     -40.270  52.019 -53.515  1.00  0.00     0.076 A 
HETATM   15  C   UNL     1     -39.548  50.771 -51.547  1.00  0.00     0.032 A 
HETATM   16  C   UNL     1     -40.142  50.937 -54.375  1.00  0.00     0.032 A 
HETATM   17  N   UNL     1     -40.670  53.317 -53.736  1.00  0.00    -0.190 N 
HETATM   18  C   UNL     1     -39.708  49.742 -53.779  1.00  0.00     0.002 A 
HETATM   19  C   UNL     1     -39.420  49.661 -52.399  1.00  0.00     0.002 A 
HETATM   20  H   UNL     1     -40.894  53.673 -54.656  1.00  0.00     0.184 HD
ENDBRANCH   8  10
ENDBRANCH   7   8
ENDBRANCH   1   7
BRANCH   3  21
HETATM   21  N   UNL     1     -44.006  56.328 -56.205  1.00  0.00    -0.326 N 
HETATM   22  C   UNL     1     -43.177  56.843 -57.186  1.00  0.00     0.242 C 
HETATM   23  O   UNL     1     -42.303  57.694 -56.980  1.00  0.00    -0.271 OA
HETATM   24  H   UNL     1     -44.802  55.775 -56.546  1.00  0.00     0.169 HD
BRANCH  22  25
HETATM   25  C   UNL     1     -43.457  56.402 -58.615  1.00  0.00     0.253 C 
BRANCH  25  26
HETATM   26  N   UNL     1     -44.830  56.527 -59.074  1.00  0.00    -0.273 N 
HETATM   27  N   UNL     1     -45.623  57.512 -58.591  1.00  0.00    -0.185 NA
HETATM   28  C   UNL     1     -46.748  57.391 -59.305  1.00  0.00     0.140 A 
HETATM   29  C   UNL     1     -46.681  56.338 -60.235  1.00  0.00     0.040 A 
HETATM   30  C   UNL     1     -45.426  55.799 -60.065  1.00  0.00     0.114 A 
ENDBRANCH  25  26
ENDBRANCH  22  25
ENDBRANCH   3  21
TORSDOF 6
ENDMDL
MODEL 3
REMARK VINA RESULT:      -7.6      1.246      1.798
REMARK  6 active torsions:
REMARK  status: ('A' for Active; 'I' for Inactive)
REMARK    1  A    between atoms: C_7  and  N_8 
REMARK    2  A    between atoms: N_8  and  C_9 
REMARK    3  A    between atoms: C_9  and  C_10 
REMARK    4  A    between atoms: C_12  and  N_13 
REMARK       I    between atoms: N_13  and  C_14 
REMARK    5  A    between atoms: C_14  and  C_15 
REMARK    6  A    between atoms: C_15  and  N_16 
ROOT
HETATM    1  C   UNL     1     -41.675  56.677 -51.017  1.00  0.00    -0.038 A 
HETATM    2  C   UNL     1     -42.494  56.678 -52.155  1.00  0.00     0.038 A 
HETATM    3  C   UNL     1     -42.435  57.709 -53.091  1.00  0.00     0.035 A 
HETATM    4  C   UNL     1     -41.637  58.822 -52.820  1.00  0.00     0.029 A 
HETATM    5  C   UNL     1     -40.853  58.861 -51.663  1.00  0.00     0.003 A 
HETATM    6  C   UNL     1     -40.852  57.782 -50.777  1.00  0.00     0.009 A 
ENDROOT
BRANCH   1   7
HETATM    7  C   UNL     1     -41.652  55.474 -50.122  1.00  0.00     0.176 C 
BRANCH   7   8
HETATM    8  N   UNL     1     -40.380  54.778 -50.276  1.00  0.00    -0.222 N 
HETATM    9  H   UNL     1     -39.582  55.083 -49.740  1.00  0.00     0.178 HD
BRANCH   8  10
HETATM   10  C   UNL     1     -40.235  53.659 -51.003  1.00  0.00     0.679 A 
HETATM   11  N   UNL     1     -40.376  53.613 -52.320  1.00  0.00    -0.190 N 
HETATM   12  C   UNL     1     -40.144  52.333 -52.784  1.00  0.00     0.076 A 
HETATM   13  H   UNL     1     -40.618  54.394 -52.912  1.00  0.00     0.184 HD
HETATM   14  C   UNL     1     -39.860  51.569 -51.654  1.00  0.00     0.076 A 
HETATM   15  C   UNL     1     -40.162  51.794 -54.064  1.00  0.00     0.032 A 
HETATM   16  C   UNL     1     -39.586  50.210 -51.711  1.00  0.00     0.032 A 
HETATM   17  N   UNL     1     -39.926  52.442 -50.592  1.00  0.00    -0.190 N 
HETATM   18  C   UNL     1     -39.598  49.647 -52.997  1.00  0.00     0.002 A 
HETATM   19  C   UNL     1     -39.877  50.420 -54.145  1.00  0.00     0.002 A 
HETATM   20  H   UNL     1     -39.814  52.146 -49.631  1.00  0.00     0.184 HD
ENDBRANCH   8  10
ENDBRANCH   7   8
ENDBRANCH   1   7
BRANCH   3  21
HETATM   21  N   UNL     1     -43.124  57.668 -54.316  1.00  0.00    -0.326 N 
HETATM   22  C   UNL     1     -42.760  56.978 -55.459  1.00  0.00     0.242 C 
HETATM   23  O   UNL     1     -41.731  56.299 -55.563  1.00  0.00    -0.271 OA
HETATM   24  H   UNL     1     -43.898  58.334 -54.430  1.00  0.00     0.169 HD
BRANCH  22  25
HETATM   25  C   UNL     1     -43.642  57.176 -56.683  1.00  0.00     0.253 C 
BRANCH  25  26
HETATM   26  N   UNL     1     -42.989  57.064 -57.977  1.00  0.00    -0.273 N 
HETATM   27  N   UNL     1     -43.097  55.923 -58.698  1.00  0.00    -0.185 NA
HETATM   28  C   UNL     1     -42.482  56.217 -59.849  1.00  0.00     0.140 A 
HETATM   29  C   UNL     1     -41.983  57.531 -59.868  1.00  0.00     0.040 A 
HETATM   30  C   UNL     1     -42.328  58.056 -58.644  1.00  0.00     0.114 A 
ENDBRANCH  25  26
ENDBRANCH  22  25
ENDBRANCH   3  21
TORSDOF 6
ENDMDL
MODEL 4
REMARK VINA RESULT:      -7.4      2.216      7.071
REMARK  6 active torsions:
REMARK  status: ('A' for Active; 'I' for Inactive)
REMARK    1  A    between atoms: C_7  and  N_8 
REMARK    2  A    between atoms: N_8  and  C_9 
REMARK    3  A    between atoms: C_9  and  C_10 
REMARK    4  A    between atoms: C_12  and  N_13 
REMARK       I    between atoms: N_13  and  C_14 
REMARK    5  A    between atoms: C_14  and  C_15 
REMARK    6  A    between atoms: C_15  and  N_16 
ROOT
HETATM    1  C   UNL     1     -42.665  56.785 -52.299  1.00  0.00    -0.038 A 
HETATM    2  C   UNL     1     -41.876  55.629 -52.211  1.00  0.00     0.038 A 
HETATM    3  C   UNL     1     -42.239  54.564 -51.389  1.00  0.00     0.035 A 
HETATM    4  C   UNL     1     -43.339  54.709 -50.542  1.00  0.00     0.029 A 
HETATM    5  C   UNL     1     -44.106  55.877 -50.579  1.00  0.00     0.003 A 
HETATM    6  C   UNL     1     -43.785  56.901 -51.472  1.00  0.00     0.009 A 
ENDROOT
BRANCH   1   7
HETATM    7  C   UNL     1     -42.327  57.837 -53.314  1.00  0.00     0.176 C 
BRANCH   7   8
HETATM    8  N   UNL     1     -43.366  57.875 -54.337  1.00  0.00    -0.222 N 
HETATM    9  H   UNL     1     -44.283  58.219 -54.096  1.00  0.00     0.178 HD
BRANCH   8  10
HETATM   10  C   UNL     1     -43.139  57.597 -55.630  1.00  0.00     0.679 A 
HETATM   11  N   UNL     1     -43.580  56.504 -56.236  1.00  0.00    -0.190 N 
HETATM   12  C   UNL     1     -43.209  56.509 -57.567  1.00  0.00     0.076 A 
HETATM   13  H   UNL     1     -44.112  55.764 -55.800  1.00  0.00     0.184 HD
HETATM   14  C   UNL     1     -42.485  57.684 -57.750  1.00  0.00     0.076 A 
HETATM   15  C   UNL     1     -43.437  55.604 -58.595  1.00  0.00     0.032 A 
HETATM   16  C   UNL     1     -41.923  58.043 -58.968  1.00  0.00     0.032 A 
HETATM   17  N   UNL     1     -42.482  58.312 -56.525  1.00  0.00    -0.190 N 
HETATM   18  C   UNL     1     -42.145  57.141 -60.022  1.00  0.00     0.002 A 
HETATM   19  C   UNL     1     -42.885  55.952 -59.840  1.00  0.00     0.002 A 
HETATM   20  H   UNL     1     -41.979  59.172 -56.351  1.00  0.00     0.184 HD
ENDBRANCH   8  10
ENDBRANCH   7   8
ENDBRANCH   1   7
BRANCH   3  21
HETATM   21  N   UNL     1     -41.561  53.332 -51.393  1.00  0.00    -0.326 N 
HETATM   22  C   UNL     1     -40.334  53.049 -50.818  1.00  0.00     0.242 C 
HETATM   23  O   UNL     1     -39.637  53.881 -50.225  1.00  0.00    -0.271 OA
HETATM   24  H   UNL     1     -41.939  52.602 -52.008  1.00  0.00     0.169 HD
BRANCH  22  25
HETATM   25  C   UNL     1     -39.782  51.650 -51.046  1.00  0.00     0.253 C 
BRANCH  25  26
HETATM   26  N   UNL     1     -39.850  51.140 -52.405  1.00  0.00    -0.273 N 
HETATM   27  N   UNL     1     -40.016  51.991 -53.445  1.00  0.00    -0.185 NA
HETATM   28  C   UNL     1     -39.920  51.200 -54.519  1.00  0.00     0.140 A 
HETATM   29  C   UNL     1     -39.697  49.855 -54.176  1.00  0.00     0.040 A 
HETATM   30  C   UNL     1     -39.654  49.847 -52.801  1.00  0.00     0.114 A 
ENDBRANCH  25  26
ENDBRANCH  22  25
ENDBRANCH   3  21
TORSDOF 6
ENDMDL
MODEL 5
REMARK VINA RESULT:      -7.4      2.502      3.548
REMARK  6 active torsions:
REMARK  status: ('A' for Active; 'I' for Inactive)
REMARK    1  A    between atoms: C_7  and  N_8 
REMARK    2  A    between atoms: N_8  and  C_9 
REMARK    3  A    between atoms: C_9  and  C_10 
REMARK    4  A    between atoms: C_12  and  N_13 
REMARK       I    between atoms: N_13  and  C_14 
REMARK    5  A    between atoms: C_14  and  C_15 
REMARK    6  A    between atoms: C_15  and  N_16 
ROOT
HETATM    1  C   UNL     1     -44.008  57.373 -52.968  1.00  0.00    -0.038 A 
HETATM    2  C   UNL     1     -44.107  56.788 -54.239  1.00  0.00     0.038 A 
HETATM    3  C   UNL     1     -44.592  57.505 -55.332  1.00  0.00     0.035 A 
HETATM    4  C   UNL     1     -45.110  58.784 -55.123  1.00  0.00     0.029 A 
HETATM    5  C   UNL     1     -45.069  59.361 -53.851  1.00  0.00     0.003 A 
HETATM    6  C   UNL     1     -44.498  58.669 -52.782  1.00  0.00     0.009 A 
ENDROOT
BRANCH   1   7
HETATM    7  C   UNL     1     -43.331  56.624 -51.858  1.00  0.00     0.176 C 
BRANCH   7   8
HETATM    8  N   UNL     1     -41.932  56.405 -52.204  1.00  0.00    -0.222 N 
HETATM    9  H   UNL     1     -41.305  57.195 -52.247  1.00  0.00     0.178 HD
BRANCH   8  10
HETATM   10  C   UNL     1     -41.388  55.187 -52.345  1.00  0.00     0.679 A 
HETATM   11  N   UNL     1     -41.270  54.563 -53.509  1.00  0.00    -0.190 N 
HETATM   12  C   UNL     1     -40.653  53.340 -53.338  1.00  0.00     0.076 A 
HETATM   13  H   UNL     1     -41.583  54.920 -54.400  1.00  0.00     0.184 HD
HETATM   14  C   UNL     1     -40.404  53.231 -51.972  1.00  0.00     0.076 A 
HETATM   15  C   UNL     1     -40.305  52.344 -54.242  1.00  0.00     0.032 A 
HETATM   16  C   UNL     1     -39.800  52.119 -51.401  1.00  0.00     0.032 A 
HETATM   17  N   UNL     1     -40.873  54.400 -51.417  1.00  0.00    -0.190 N 
HETATM   18  C   UNL     1     -39.439  51.102 -52.299  1.00  0.00     0.002 A 
HETATM   19  C   UNL     1     -39.684  51.213 -53.685  1.00  0.00     0.002 A 
HETATM   20  H   UNL     1     -40.870  54.574 -50.420  1.00  0.00     0.184 HD
ENDBRANCH   8  10
ENDBRANCH   7   8
ENDBRANCH   1   7
BRANCH   3  21
HETATM   21  N   UNL     1     -44.559  57.007 -56.646  1.00  0.00    -0.326 N 
HETATM   22  C   UNL     1     -43.516  57.100 -57.551  1.00  0.00     0.242 C 
HETATM   23  O   UNL     1     -42.446  57.675 -57.321  1.00  0.00    -0.271 OA
HETATM   24  H   UNL     1     -45.449  56.668 -57.031  1.00  0.00     0.169 HD
BRANCH  22  25
HETATM   25  C   UNL     1     -43.775  56.551 -58.946  1.00  0.00     0.253 C 
BRANCH  25  26
HETATM   26  N   UNL     1     -45.132  56.679 -59.451  1.00  0.00    -0.273 N 
HETATM   27  N   UNL     1     -45.788  57.859 -59.353  1.00  0.00    -0.185 NA
HETATM   28  C   UNL     1     -46.934  57.639 -60.006  1.00  0.00     0.140 A 
HETATM   29  C   UNL     1     -47.016  56.332 -60.518  1.00  0.00     0.040 A 
HETATM   30  C   UNL     1     -45.835  55.734 -60.146  1.00  0.00     0.114 A 
ENDBRANCH  25  26
ENDBRANCH  22  25
ENDBRANCH   3  21
TORSDOF 6
ENDMDL
MODEL 6
REMARK VINA RESULT:      -7.2     15.254     19.047
REMARK  6 active torsions:
REMARK  status: ('A' for Active; 'I' for Inactive)
REMARK    1  A    between atoms: C_7  and  N_8 
REMARK    2  A    between atoms: N_8  and  C_9 
REMARK    3  A    between atoms: C_9  and  C_10 
REMARK    4  A    between atoms: C_12  and  N_13 
REMARK       I    between atoms: N_13  and  C_14 
REMARK    5  A    between atoms: C_14  and  C_15 
REMARK    6  A    between atoms: C_15  and  N_16 
ROOT
HETATM    1  C   UNL     1     -34.195  40.627 -51.332  1.00  0.00    -0.038 A 
HETATM    2  C   UNL     1     -33.630  40.457 -50.060  1.00  0.00     0.038 A 
HETATM    3  C   UNL     1     -32.290  40.112 -49.901  1.00  0.00     0.035 A 
HETATM    4  C   UNL     1     -31.534  39.803 -51.034  1.00  0.00     0.029 A 
HETATM    5  C   UNL     1     -32.098  39.916 -52.308  1.00  0.00     0.003 A 
HETATM    6  C   UNL     1     -33.416  40.350 -52.459  1.00  0.00     0.009 A 
ENDROOT
BRANCH   1   7
HETATM    7  C   UNL     1     -35.593  41.157 -51.457  1.00  0.00     0.176 C 
BRANCH   7   8
HETATM    8  N   UNL     1     -35.615  42.245 -52.428  1.00  0.00    -0.222 N 
HETATM    9  H   UNL     1     -35.231  43.142 -52.172  1.00  0.00     0.178 HD
BRANCH   8  10
HETATM   10  C   UNL     1     -36.005  42.089 -53.703  1.00  0.00     0.679 A 
HETATM   11  N   UNL     1     -35.239  42.372 -54.747  1.00  0.00    -0.190 N 
HETATM   12  C   UNL     1     -35.904  42.087 -55.923  1.00  0.00     0.076 A 
HETATM   13  H   UNL     1     -34.300  42.743 -54.703  1.00  0.00     0.184 HD
HETATM   14  C   UNL     1     -37.158  41.616 -55.541  1.00  0.00     0.076 A 
HETATM   15  C   UNL     1     -35.524  42.203 -57.253  1.00  0.00     0.032 A 
HETATM   16  C   UNL     1     -38.132  41.236 -56.454  1.00  0.00     0.032 A 
HETATM   17  N   UNL     1     -37.156  41.635 -54.164  1.00  0.00    -0.190 N 
HETATM   18  C   UNL     1     -37.766  41.345 -57.805  1.00  0.00     0.002 A 
HETATM   19  C   UNL     1     -36.493  41.815 -58.195  1.00  0.00     0.002 A 
HETATM   20  H   UNL     1     -37.968  41.392 -53.611  1.00  0.00     0.184 HD
ENDBRANCH   8  10
ENDBRANCH   7   8
ENDBRANCH   1   7
BRANCH   3  21
HETATM   21  N   UNL     1     -31.651  40.086 -48.649  1.00  0.00    -0.326 N 
HETATM   22  C   UNL     1     -31.451  38.985 -47.834  1.00  0.00     0.242 C 
HETATM   23  O   UNL     1     -31.842  37.843 -48.100  1.00  0.00    -0.271 OA
HETATM   24  H   UNL     1     -31.441  40.996 -48.222  1.00  0.00     0.169 HD
BRANCH  22  25
HETATM   25  C   UNL     1     -30.807  39.250 -46.481  1.00  0.00     0.253 C 
BRANCH  25  26
HETATM   26  N   UNL     1     -29.354  39.241 -46.442  1.00  0.00    -0.273 N 
HETATM   27  N   UNL     1     -28.641  39.675 -47.508  1.00  0.00    -0.185 NA
HETATM   28  C   UNL     1     -27.374  39.631 -47.081  1.00  0.00     0.140 A 
HETATM   29  C   UNL     1     -27.273  39.173 -45.755  1.00  0.00     0.040 A 
HETATM   30  C   UNL     1     -28.570  38.931 -45.367  1.00  0.00     0.114 A 
ENDBRANCH  25  26
ENDBRANCH  22  25
ENDBRANCH   3  21
TORSDOF 6
ENDMDL
MODEL 7
REMARK VINA RESULT:      -7.1      1.913      2.747
REMARK  6 active torsions:
REMARK  status: ('A' for Active; 'I' for Inactive)
REMARK    1  A    between atoms: C_7  and  N_8 
REMARK    2  A    between atoms: N_8  and  C_9 
REMARK    3  A    between atoms: C_9  and  C_10 
REMARK    4  A    between atoms: C_12  and  N_13 
REMARK       I    between atoms: N_13  and  C_14 
REMARK    5  A    between atoms: C_14  and  C_15 
REMARK    6  A    between atoms: C_15  and  N_16 
ROOT
HETATM    1  C   UNL     1     -42.942  57.490 -52.600  1.00  0.00    -0.038 A 
HETATM    2  C   UNL     1     -43.380  57.195 -53.900  1.00  0.00     0.038 A 
HETATM    3  C   UNL     1     -42.753  57.741 -55.018  1.00  0.00     0.035 A 
HETATM    4  C   UNL     1     -41.756  58.700 -54.832  1.00  0.00     0.029 A 
HETATM    5  C   UNL     1     -41.343  59.045 -53.541  1.00  0.00     0.003 A 
HETATM    6  C   UNL     1     -41.917  58.425 -52.430  1.00  0.00     0.009 A 
ENDROOT
BRANCH   1   7
HETATM    7  C   UNL     1     -43.536  56.758 -51.434  1.00  0.00     0.176 C 
BRANCH   7   8
HETATM    8  N   UNL     1     -43.763  55.364 -51.799  1.00  0.00    -0.222 N 
HETATM    9  H   UNL     1     -44.708  55.035 -51.923  1.00  0.00     0.178 HD
BRANCH   8  10
HETATM   10  C   UNL     1     -42.774  54.513 -52.112  1.00  0.00     0.679 A 
HETATM   11  N   UNL     1     -41.923  54.016 -51.225  1.00  0.00    -0.190 N 
HETATM   12  C   UNL     1     -41.037  53.154 -51.840  1.00  0.00     0.076 A 
HETATM   13  H   UNL     1     -41.913  54.228 -50.238  1.00  0.00     0.184 HD
HETATM   14  C   UNL     1     -41.384  53.158 -53.189  1.00  0.00     0.076 A 
HETATM   15  C   UNL     1     -39.986  52.396 -51.342  1.00  0.00     0.032 A 
HETATM   16  C   UNL     1     -40.704  52.416 -54.145  1.00  0.00     0.032 A 
HETATM   17  N   UNL     1     -42.462  54.007 -53.291  1.00  0.00    -0.190 N 
HETATM   18  C   UNL     1     -39.638  51.641 -53.661  1.00  0.00     0.002 A 
HETATM   19  C   UNL     1     -39.289  51.630 -52.292  1.00  0.00     0.002 A 
HETATM   20  H   UNL     1     -42.893  54.243 -54.175  1.00  0.00     0.184 HD
ENDBRANCH   8  10
ENDBRANCH   7   8
ENDBRANCH   1   7
BRANCH   3  21
HETATM   21  N   UNL     1     -43.060  57.349 -56.333  1.00  0.00    -0.326 N 
HETATM   22  C   UNL     1     -42.909  56.091 -56.889  1.00  0.00     0.242 C 
HETATM   23  O   UNL     1     -42.444  55.116 -56.286  1.00  0.00    -0.271 OA
HETATM   24  H   UNL     1     -43.282  58.101 -56.996  1.00  0.00     0.169 HD
BRANCH  22  25
HETATM   25  C   UNL     1     -43.236  55.957 -58.369  1.00  0.00     0.253 C 
BRANCH  25  26
HETATM   26  N   UNL     1     -43.016  57.136 -59.190  1.00  0.00    -0.273 N 
HETATM   27  N   UNL     1     -43.891  58.168 -59.151  1.00  0.00    -0.185 NA
HETATM   28  C   UNL     1     -43.321  59.096 -59.926  1.00  0.00     0.140 A 
HETATM   29  C   UNL     1     -42.094  58.666 -60.461  1.00  0.00     0.040 A 
HETATM   30  C   UNL     1     -41.921  57.394 -59.965  1.00  0.00     0.114 A 
ENDBRANCH  25  26
ENDBRANCH  22  25
ENDBRANCH   3  21
TORSDOF 6
ENDMDL
MODEL 8
REMARK VINA RESULT:      -7.1      4.093      6.123
REMARK  6 active torsions:
REMARK  status: ('A' for Active; 'I' for Inactive)
REMARK    1  A    between atoms: C_7  and  N_8 
REMARK    2  A    between atoms: N_8  and  C_9 
REMARK    3  A    between atoms: C_9  and  C_10 
REMARK    4  A    between atoms: C_12  and  N_13 
REMARK       I    between atoms: N_13  and  C_14 
REMARK    5  A    between atoms: C_14  and  C_15 
REMARK    6  A    between atoms: C_15  and  N_16 
ROOT
HETATM    1  C   UNL     1     -42.366  58.068 -52.789  1.00  0.00    -0.038 A 
HETATM    2  C   UNL     1     -43.440  58.542 -52.022  1.00  0.00     0.038 A 
HETATM    3  C   UNL     1     -43.253  59.494 -51.021  1.00  0.00     0.035 A 
HETATM    4  C   UNL     1     -41.953  59.881 -50.693  1.00  0.00     0.029 A 
HETATM    5  C   UNL     1     -40.865  59.378 -51.413  1.00  0.00     0.003 A 
HETATM    6  C   UNL     1     -41.072  58.494 -52.473  1.00  0.00     0.009 A 
ENDROOT
BRANCH   1   7
HETATM    7  C   UNL     1     -42.631  57.170 -53.961  1.00  0.00     0.176 C 
BRANCH   7   8
HETATM    8  N   UNL     1     -43.078  55.867 -53.482  1.00  0.00    -0.222 N 
HETATM    9  H   UNL     1     -44.066  55.688 -53.390  1.00  0.00     0.178 HD
BRANCH   8  10
HETATM   10  C   UNL     1     -42.249  54.833 -53.275  1.00  0.00     0.679 A 
HETATM   11  N   UNL     1     -41.984  53.907 -54.186  1.00  0.00    -0.190 N 
HETATM   12  C   UNL     1     -41.081  52.988 -53.689  1.00  0.00     0.076 A 
HETATM   13  H   UNL     1     -42.381  53.866 -55.114  1.00  0.00     0.184 HD
HETATM   14  C   UNL     1     -40.807  53.397 -52.387  1.00  0.00     0.076 A 
HETATM   15  C   UNL     1     -40.500  51.861 -54.256  1.00  0.00     0.032 A 
HETATM   16  C   UNL     1     -39.943  52.709 -51.546  1.00  0.00     0.032 A 
HETATM   17  N   UNL     1     -41.550  54.539 -52.193  1.00  0.00    -0.190 N 
HETATM   18  C   UNL     1     -39.344  51.567 -52.101  1.00  0.00     0.002 A 
HETATM   19  C   UNL     1     -39.615  51.154 -53.424  1.00  0.00     0.002 A 
HETATM   20  H   UNL     1     -41.586  55.028 -51.308  1.00  0.00     0.184 HD
ENDBRANCH   8  10
ENDBRANCH   7   8
ENDBRANCH   1   7
BRANCH   3  21
HETATM   21  N   UNL     1     -44.320  60.105 -50.340  1.00  0.00    -0.326 N 
HETATM   22  C   UNL     1     -44.935  61.305 -50.653  1.00  0.00     0.242 C 
HETATM   23  O   UNL     1     -44.597  62.034 -51.593  1.00  0.00    -0.271 OA
HETATM   24  H   UNL     1     -44.578  59.700 -49.432  1.00  0.00     0.169 HD
BRANCH  22  25
HETATM   25  C   UNL     1     -46.014  61.786 -49.694  1.00  0.00     0.253 C 
BRANCH  25  26
HETATM   26  N   UNL     1     -45.789  61.527 -48.282  1.00  0.00    -0.273 N 
HETATM   27  N   UNL     1     -46.147  60.338 -47.741  1.00  0.00    -0.185 NA
HETATM   28  C   UNL     1     -45.697  60.414 -46.484  1.00  0.00     0.140 A 
HETATM   29  C   UNL     1     -45.058  61.638 -46.218  1.00  0.00     0.040 A 
HETATM   30  C   UNL     1     -45.130  62.337 -47.401  1.00  0.00     0.114 A 
ENDBRANCH  25  26
ENDBRANCH  22  25
ENDBRANCH   3  21
TORSDOF 6
ENDMDL
MODEL 9
REMARK VINA RESULT:      -7.0     15.519     17.475
REMARK  6 active torsions:
REMARK  status: ('A' for Active; 'I' for Inactive)
REMARK    1  A    between atoms: C_7  and  N_8 
REMARK    2  A    between atoms: N_8  and  C_9 
REMARK    3  A    between atoms: C_9  and  C_10 
REMARK    4  A    between atoms: C_12  and  N_13 
REMARK       I    between atoms: N_13  and  C_14 
REMARK    5  A    between atoms: C_14  and  C_15 
REMARK    6  A    between atoms: C_15  and  N_16 
ROOT
HETATM    1  C   UNL     1     -37.394  41.153 -56.890  1.00  0.00    -0.038 A 
HETATM    2  C   UNL     1     -38.113  40.110 -57.491  1.00  0.00     0.038 A 
HETATM    3  C   UNL     1     -38.229  40.013 -58.876  1.00  0.00     0.035 A 
HETATM    4  C   UNL     1     -37.729  41.047 -59.669  1.00  0.00     0.029 A 
HETATM    5  C   UNL     1     -37.055  42.122 -59.082  1.00  0.00     0.003 A 
HETATM    6  C   UNL     1     -36.866  42.163 -57.700  1.00  0.00     0.009 A 
ENDROOT
BRANCH   1   7
HETATM    7  C   UNL     1     -37.155  41.132 -55.409  1.00  0.00     0.176 C 
BRANCH   7   8
HETATM    8  N   UNL     1     -35.837  41.686 -55.121  1.00  0.00    -0.222 N 
HETATM    9  H   UNL     1     -35.485  42.441 -55.689  1.00  0.00     0.178 HD
BRANCH   8  10
HETATM   10  C   UNL     1     -35.106  41.333 -54.053  1.00  0.00     0.679 A 
HETATM   11  N   UNL     1     -33.840  40.947 -54.122  1.00  0.00    -0.190 N 
HETATM   12  C   UNL     1     -33.351  40.672 -52.860  1.00  0.00     0.076 A 
HETATM   13  H   UNL     1     -33.297  40.862 -54.970  1.00  0.00     0.184 HD
HETATM   14  C   UNL     1     -34.413  40.899 -51.988  1.00  0.00     0.076 A 
HETATM   15  C   UNL     1     -32.102  40.251 -52.422  1.00  0.00     0.032 A 
HETATM   16  C   UNL     1     -34.316  40.713 -50.616  1.00  0.00     0.032 A 
HETATM   17  N   UNL     1     -35.461  41.309 -52.781  1.00  0.00    -0.190 N 
HETATM   18  C   UNL     1     -33.060  40.288 -50.153  1.00  0.00     0.002 A 
HETATM   19  C   UNL     1     -31.980  40.065 -51.034  1.00  0.00     0.002 A 
HETATM   20  H   UNL     1     -36.386  41.495 -52.415  1.00  0.00     0.184 HD
ENDBRANCH   8  10
ENDBRANCH   7   8
ENDBRANCH   1   7
BRANCH   3  21
HETATM   21  N   UNL     1     -38.806  38.903 -59.518  1.00  0.00    -0.326 N 
HETATM   22  C   UNL     1     -38.165  37.749 -59.932  1.00  0.00     0.242 C 
HETATM   23  O   UNL     1     -36.951  37.546 -59.808  1.00  0.00    -0.271 OA
HETATM   24  H   UNL     1     -39.772  39.015 -59.848  1.00  0.00     0.169 HD
BRANCH  22  25
HETATM   25  C   UNL     1     -39.012  36.734 -60.686  1.00  0.00     0.253 C 
BRANCH  25  26
HETATM   26  N   UNL     1     -40.128  37.262 -61.452  1.00  0.00    -0.273 N 
HETATM   27  N   UNL     1     -41.260  37.657 -60.823  1.00  0.00    -0.185 NA
HETATM   28  C   UNL     1     -42.002  38.178 -61.806  1.00  0.00     0.140 A 
HETATM   29  C   UNL     1     -41.356  38.119 -63.053  1.00  0.00     0.040 A 
HETATM   30  C   UNL     1     -40.144  37.524 -62.793  1.00  0.00     0.114 A 
ENDBRANCH  25  26
ENDBRANCH  22  25
ENDBRANCH   3  21
TORSDOF 6
ENDMDL
MODEL 10
REMARK VINA RESULT:      -7.0      4.106      6.222
REMARK  6 active torsions:
REMARK  status: ('A' for Active; 'I' for Inactive)
REMARK    1  A    between atoms: C_7  and  N_8 
REMARK    2  A    between atoms: N_8  and  C_9 
REMARK    3  A    between atoms: C_9  and  C_10 
REMARK    4  A    between atoms: C_12  and  N_13 
REMARK       I    between atoms: N_13  and  C_14 
REMARK    5  A    between atoms: C_14  and  C_15 
REMARK    6  A    between atoms: C_15  and  N_16 
ROOT
HETATM    1  C   UNL     1     -42.455  57.636 -52.708  1.00  0.00    -0.038 A 
HETATM    2  C   UNL     1     -42.837  58.566 -51.729  1.00  0.00     0.038 A 
HETATM    3  C   UNL     1     -43.858  59.485 -51.960  1.00  0.00     0.035 A 
HETATM    4  C   UNL     1     -44.419  59.564 -53.235  1.00  0.00     0.029 A 
HETATM    5  C   UNL     1     -44.013  58.679 -54.239  1.00  0.00     0.003 A 
HETATM    6  C   UNL     1     -43.053  57.703 -53.970  1.00  0.00     0.009 A 
ENDROOT
BRANCH   1   7
HETATM    7  C   UNL     1     -41.467  56.561 -52.364  1.00  0.00     0.176 C 
BRANCH   7   8
HETATM    8  N   UNL     1     -41.359  55.628 -53.479  1.00  0.00    -0.222 N 
HETATM    9  H   UNL     1     -41.508  55.962 -54.418  1.00  0.00     0.178 HD
BRANCH   8  10
HETATM   10  C   UNL     1     -40.940  54.360 -53.342  1.00  0.00     0.679 A 
HETATM   11  N   UNL     1     -40.531  53.840 -52.193  1.00  0.00    -0.190 N 
HETATM   12  C   UNL     1     -40.186  52.513 -52.362  1.00  0.00     0.076 A 
HETATM   13  H   UNL     1     -40.474  54.332 -51.313  1.00  0.00     0.184 HD
HETATM   14  C   UNL     1     -40.395  52.239 -53.711  1.00  0.00     0.076 A 
HETATM   15  C   UNL     1     -39.718  51.558 -51.469  1.00  0.00     0.032 A 
HETATM   16  C   UNL     1     -40.142  50.997 -54.277  1.00  0.00     0.032 A 
HETATM   17  N   UNL     1     -40.864  53.412 -54.258  1.00  0.00    -0.190 N 
HETATM   18  C   UNL     1     -39.669  50.017 -53.391  1.00  0.00     0.002 A 
HETATM   19  C   UNL     1     -39.464  50.290 -52.020  1.00  0.00     0.002 A 
HETATM   20  H   UNL     1     -41.052  53.520 -55.246  1.00  0.00     0.184 HD
ENDBRANCH   8  10
ENDBRANCH   7   8
ENDBRANCH   1   7
BRANCH   3  21
HETATM   21  N   UNL     1     -44.372  60.324 -50.955  1.00  0.00    -0.326 N 
HETATM   22  C   UNL     1     -45.415  60.050 -50.088  1.00  0.00     0.242 C 
HETATM   23  O   UNL     1     -46.071  59.001 -50.100  1.00  0.00    -0.271 OA
HETATM   24  H   UNL     1     -44.042  61.296 -50.956  1.00  0.00     0.169 HD
BRANCH  22  25
HETATM   25  C   UNL     1     -45.831  61.172 -49.149  1.00  0.00     0.253 C 
BRANCH  25  26
HETATM   26  N   UNL     1     -45.686  60.914 -47.726  1.00  0.00    -0.273 N 
HETATM   27  N   UNL     1     -46.538  60.071 -47.096  1.00  0.00    -0.185 NA
HETATM   28  C   UNL     1     -46.043  59.991 -45.856  1.00  0.00     0.140 A 
HETATM   29  C   UNL     1     -44.888  60.775 -45.689  1.00  0.00     0.040 A 
HETATM   30  C   UNL     1     -44.679  61.359 -46.917  1.00  0.00     0.114 A 
ENDBRANCH  25  26
ENDBRANCH  22  25
ENDBRANCH   3  21
TORSDOF 6
ENDMDL
