MODEL 1
REMARK VINA RESULT:      -7.8      0.000      0.000
REMARK  4 active torsions:
REMARK  status: ('A' for Active; 'I' for Inactive)
REMARK    1  A    between atoms: S_2  and  N_3 
REMARK    2  A    between atoms: N_3  and  N_4 
REMARK    3  A    between atoms: C_10  and  C_11 
REMARK    4  A    between atoms: C_14  and  O_15 
ROOT
HETATM    1  N   UNL     1     -43.301  55.945 -53.995  1.00  0.00    -0.241 N 
HETATM    2  C   UNL     1     -42.585  55.004 -54.715  1.00  0.00     0.272 C 
HETATM    3  O   UNL     1     -42.752  54.836 -55.924  1.00  0.00    -0.266 OA
HETATM    4  C   UNL     1     -41.665  54.155 -53.937  1.00  0.00     0.054 A 
HETATM    5  C   UNL     1     -41.855  54.107 -52.548  1.00  0.00     0.026 A 
HETATM    6  N   UNL     1     -42.861  54.878 -51.938  1.00  0.00    -0.265 NA
HETATM    7  C   UNL     1     -43.066  56.193 -52.568  1.00  0.00     0.217 C 
HETATM    8  C   UNL     1     -40.722  53.343 -54.573  1.00  0.00     0.019 A 
HETATM    9  C   UNL     1     -39.956  52.464 -53.812  1.00  0.00     0.001 A 
HETATM   10  C   UNL     1     -40.159  52.377 -52.433  1.00  0.00     0.002 A 
HETATM   11  C   UNL     1     -41.116  53.182 -51.807  1.00  0.00     0.024 A 
HETATM   12  H   UNL     1     -42.769  54.936 -50.931  1.00  0.00     0.130 HD
ENDROOT
BRANCH   7  13
HETATM   13  C   UNL     1     -41.889  57.139 -52.270  1.00  0.00    -0.020 A 
HETATM   14  C   UNL     1     -41.223  57.845 -53.289  1.00  0.00     0.013 A 
HETATM   15  C   UNL     1     -40.172  58.724 -53.001  1.00  0.00     0.037 A 
HETATM   16  C   UNL     1     -39.772  58.906 -51.684  1.00  0.00     0.065 A 
HETATM   17  C   UNL     1     -40.413  58.238 -50.655  1.00  0.00     0.037 A 
HETATM   18  C   UNL     1     -41.475  57.374 -50.942  1.00  0.00     0.013 A 
BRANCH  16  19
HETATM   19  O   UNL     1     -38.751  59.748 -51.359  1.00  0.00    -0.361 OA
HETATM   20  H   UNL     1     -39.122  60.540 -50.937  1.00  0.00     0.217 HD
ENDBRANCH  16  19
ENDBRANCH   7  13
BRANCH   1  21
HETATM   21  N   UNL     1     -44.648  56.256 -54.538  1.00  0.00    -0.123 NA
HETATM   22  H   UNL     1     -44.955  55.573 -55.243  1.00  0.00     0.165 HD
BRANCH  21  23
HETATM   23  S   UNL     1     -45.025  57.841 -54.996  1.00  0.00     0.222 S 
HETATM   24  C   UNL     1     -43.575  58.265 -55.939  1.00  0.00     0.181 C 
HETATM   25  O   UNL     1     -45.071  58.674 -53.816  1.00  0.00    -0.210 OA
HETATM   26  O   UNL     1     -46.142  57.764 -55.911  1.00  0.00    -0.210 OA
ENDBRANCH  21  23
ENDBRANCH   1  21
TORSDOF 4
ENDMDL
MODEL 2
REMARK VINA RESULT:      -6.9      2.851      5.541
REMARK  4 active torsions:
REMARK  status: ('A' for Active; 'I' for Inactive)
REMARK    1  A    between atoms: S_2  and  N_3 
REMARK    2  A    between atoms: N_3  and  N_4 
REMARK    3  A    between atoms: C_10  and  C_11 
REMARK    4  A    between atoms: C_14  and  O_15 
ROOT
HETATM    1  N   UNL     1     -42.829  58.414 -55.362  1.00  0.00    -0.241 N 
HETATM    2  C   UNL     1     -42.269  58.824 -56.560  1.00  0.00     0.272 C 
HETATM    3  O   UNL     1     -41.654  59.885 -56.668  1.00  0.00    -0.266 OA
HETATM    4  C   UNL     1     -42.520  57.955 -57.724  1.00  0.00     0.054 A 
HETATM    5  C   UNL     1     -43.569  57.029 -57.620  1.00  0.00     0.026 A 
HETATM    6  N   UNL     1     -44.311  56.922 -56.430  1.00  0.00    -0.265 NA
HETATM    7  C   UNL     1     -43.510  57.124 -55.210  1.00  0.00     0.217 C 
HETATM    8  C   UNL     1     -41.818  58.131 -58.919  1.00  0.00     0.019 A 
HETATM    9  C   UNL     1     -42.169  57.373 -60.034  1.00  0.00     0.001 A 
HETATM   10  C   UNL     1     -43.235  56.474 -59.957  1.00  0.00     0.002 A 
HETATM   11  C   UNL     1     -43.942  56.316 -58.762  1.00  0.00     0.024 A 
HETATM   12  H   UNL     1     -44.886  56.089 -56.388  1.00  0.00     0.130 HD
ENDROOT
BRANCH   7  13
HETATM   13  C   UNL     1     -42.571  55.931 -54.962  1.00  0.00    -0.020 A 
HETATM   14  C   UNL     1     -43.038  54.603 -54.951  1.00  0.00     0.013 A 
HETATM   15  C   UNL     1     -42.168  53.524 -54.752  1.00  0.00     0.037 A 
HETATM   16  C   UNL     1     -40.814  53.763 -54.559  1.00  0.00     0.065 A 
HETATM   17  C   UNL     1     -40.317  55.055 -54.576  1.00  0.00     0.037 A 
HETATM   18  C   UNL     1     -41.184  56.130 -54.793  1.00  0.00     0.013 A 
BRANCH  16  19
HETATM   19  O   UNL     1     -39.932  52.743 -54.357  1.00  0.00    -0.361 OA
HETATM   20  H   UNL     1     -40.052  52.084 -55.060  1.00  0.00     0.217 HD
ENDBRANCH  16  19
ENDBRANCH   7  13
BRANCH   1  21
HETATM   21  N   UNL     1     -43.220  59.514 -54.445  1.00  0.00    -0.123 NA
HETATM   22  H   UNL     1     -43.472  60.375 -54.949  1.00  0.00     0.165 HD
BRANCH  21  23
HETATM   23  S   UNL     1     -42.281  59.842 -53.075  1.00  0.00     0.222 S 
HETATM   24  C   UNL     1     -42.878  58.589 -51.960  1.00  0.00     0.181 C 
HETATM   25  O   UNL     1     -42.648  61.139 -52.553  1.00  0.00    -0.210 OA
HETATM   26  O   UNL     1     -40.913  59.521 -53.412  1.00  0.00    -0.210 OA
ENDBRANCH  21  23
ENDBRANCH   1  21
TORSDOF 4
ENDMDL
MODEL 3
REMARK VINA RESULT:      -6.9     16.169     18.376
REMARK  4 active torsions:
REMARK  status: ('A' for Active; 'I' for Inactive)
REMARK    1  A    between atoms: S_2  and  N_3 
REMARK    2  A    between atoms: N_3  and  N_4 
REMARK    3  A    between atoms: C_10  and  C_11 
REMARK    4  A    between atoms: C_14  and  O_15 
ROOT
HETATM    1  N   UNL     1     -33.744  40.075 -56.541  1.00  0.00    -0.241 N 
HETATM    2  C   UNL     1     -34.433  39.371 -57.514  1.00  0.00     0.272 C 
HETATM    3  O   UNL     1     -34.020  38.304 -57.969  1.00  0.00    -0.266 OA
HETATM    4  C   UNL     1     -35.655  40.011 -58.035  1.00  0.00     0.054 A 
HETATM    5  C   UNL     1     -35.812  41.385 -57.795  1.00  0.00     0.026 A 
HETATM    6  N   UNL     1     -34.852  42.094 -57.050  1.00  0.00    -0.265 NA
HETATM    7  C   UNL     1     -34.260  41.314 -55.950  1.00  0.00     0.217 C 
HETATM    8  C   UNL     1     -36.556  39.302 -58.834  1.00  0.00     0.019 A 
HETATM    9  C   UNL     1     -37.632  39.974 -59.408  1.00  0.00     0.001 A 
HETATM   10  C   UNL     1     -37.781  41.348 -59.210  1.00  0.00     0.002 A 
HETATM   11  C   UNL     1     -36.866  42.052 -58.423  1.00  0.00     0.024 A 
HETATM   12  H   UNL     1     -35.168  43.010 -56.756  1.00  0.00     0.130 HD
ENDROOT
BRANCH   7  13
HETATM   13  C   UNL     1     -35.274  41.106 -54.812  1.00  0.00    -0.020 A 
HETATM   14  C   UNL     1     -35.661  39.822 -54.383  1.00  0.00     0.013 A 
HETATM   15  C   UNL     1     -36.563  39.646 -53.327  1.00  0.00     0.037 A 
HETATM   16  C   UNL     1     -37.093  40.757 -52.686  1.00  0.00     0.065 A 
HETATM   17  C   UNL     1     -36.726  42.035 -53.073  1.00  0.00     0.037 A 
HETATM   18  C   UNL     1     -35.810  42.210 -54.115  1.00  0.00     0.013 A 
BRANCH  16  19
HETATM   19  O   UNL     1     -37.978  40.632 -51.657  1.00  0.00    -0.361 OA
HETATM   20  H   UNL     1     -38.486  41.456 -51.581  1.00  0.00     0.217 HD
ENDBRANCH  16  19
ENDBRANCH   7  13
BRANCH   1  21
HETATM   21  N   UNL     1     -32.273  39.870 -56.544  1.00  0.00    -0.123 NA
HETATM   22  H   UNL     1     -31.949  39.359 -57.376  1.00  0.00     0.165 HD
BRANCH  21  23
HETATM   23  S   UNL     1     -31.495  39.337 -55.139  1.00  0.00     0.222 S 
HETATM   24  C   UNL     1     -32.482  37.911 -54.737  1.00  0.00     0.181 C 
HETATM   25  O   UNL     1     -31.667  40.328 -54.101  1.00  0.00    -0.210 OA
HETATM   26  O   UNL     1     -30.183  38.872 -55.531  1.00  0.00    -0.210 OA
ENDBRANCH  21  23
ENDBRANCH   1  21
TORSDOF 4
ENDMDL
MODEL 4
REMARK VINA RESULT:      -6.8      2.254      2.575
REMARK  4 active torsions:
REMARK  status: ('A' for Active; 'I' for Inactive)
REMARK    1  A    between atoms: S_2  and  N_3 
REMARK    2  A    between atoms: N_3  and  N_4 
REMARK    3  A    between atoms: C_10  and  C_11 
REMARK    4  A    between atoms: C_14  and  O_15 
ROOT
HETATM    1  N   UNL     1     -42.927  55.644 -55.266  1.00  0.00    -0.241 N 
HETATM    2  C   UNL     1     -41.802  54.898 -54.958  1.00  0.00     0.272 C 
HETATM    3  O   UNL     1     -40.985  54.559 -55.814  1.00  0.00    -0.266 OA
HETATM    4  C   UNL     1     -41.678  54.461 -53.555  1.00  0.00     0.054 A 
HETATM    5  C   UNL     1     -42.835  54.506 -52.763  1.00  0.00     0.026 A 
HETATM    6  N   UNL     1     -44.045  54.991 -53.294  1.00  0.00    -0.265 NA
HETATM    7  C   UNL     1     -43.874  56.104 -54.243  1.00  0.00     0.217 C 
HETATM    8  C   UNL     1     -40.485  53.916 -53.073  1.00  0.00     0.019 A 
HETATM    9  C   UNL     1     -40.445  53.401 -51.780  1.00  0.00     0.001 A 
HETATM   10  C   UNL     1     -41.598  53.404 -50.992  1.00  0.00     0.002 A 
HETATM   11  C   UNL     1     -42.791  53.938 -51.488  1.00  0.00     0.024 A 
HETATM   12  H   UNL     1     -44.746  55.182 -52.589  1.00  0.00     0.130 HD
ENDROOT
BRANCH   7  13
HETATM   13  C   UNL     1     -43.451  57.391 -53.515  1.00  0.00    -0.020 A 
HETATM   14  C   UNL     1     -42.424  58.222 -54.001  1.00  0.00     0.013 A 
HETATM   15  C   UNL     1     -42.069  59.406 -53.344  1.00  0.00     0.037 A 
HETATM   16  C   UNL     1     -42.738  59.773 -52.185  1.00  0.00     0.065 A 
HETATM   17  C   UNL     1     -43.762  58.987 -51.684  1.00  0.00     0.037 A 
HETATM   18  C   UNL     1     -44.129  57.815 -52.351  1.00  0.00     0.013 A 
BRANCH  16  19
HETATM   19  O   UNL     1     -42.422  60.915 -51.510  1.00  0.00    -0.361 OA
HETATM   20  H   UNL     1     -41.505  60.850 -51.201  1.00  0.00     0.217 HD
ENDBRANCH  16  19
ENDBRANCH   7  13
BRANCH   1  21
HETATM   21  N   UNL     1     -43.437  55.466 -56.649  1.00  0.00    -0.123 NA
HETATM   22  H   UNL     1     -43.156  54.565 -57.058  1.00  0.00     0.165 HD
BRANCH  21  23
HETATM   23  S   UNL     1     -43.300  56.731 -57.766  1.00  0.00     0.222 S 
HETATM   24  C   UNL     1     -42.918  55.821 -59.248  1.00  0.00     0.181 C 
HETATM   25  O   UNL     1     -42.159  57.547 -57.415  1.00  0.00    -0.210 OA
HETATM   26  O   UNL     1     -44.619  57.302 -57.923  1.00  0.00    -0.210 OA
ENDBRANCH  21  23
ENDBRANCH   1  21
TORSDOF 4
ENDMDL
MODEL 5
REMARK VINA RESULT:      -6.7     16.098     18.243
REMARK  4 active torsions:
REMARK  status: ('A' for Active; 'I' for Inactive)
REMARK    1  A    between atoms: S_2  and  N_3 
REMARK    2  A    between atoms: N_3  and  N_4 
REMARK    3  A    between atoms: C_10  and  C_11 
REMARK    4  A    between atoms: C_14  and  O_15 
ROOT
HETATM    1  N   UNL     1     -36.462  40.467 -55.442  1.00  0.00    -0.241 N 
HETATM    2  C   UNL     1     -36.866  41.487 -56.286  1.00  0.00     0.272 C 
HETATM    3  O   UNL     1     -37.217  42.589 -55.862  1.00  0.00    -0.266 OA
HETATM    4  C   UNL     1     -36.932  41.155 -57.721  1.00  0.00     0.054 A 
HETATM    5  C   UNL     1     -36.946  39.795 -58.065  1.00  0.00     0.026 A 
HETATM    6  N   UNL     1     -36.859  38.805 -57.068  1.00  0.00    -0.265 NA
HETATM    7  C   UNL     1     -35.985  39.172 -55.941  1.00  0.00     0.217 C 
HETATM    8  C   UNL     1     -37.091  42.153 -58.685  1.00  0.00     0.019 A 
HETATM    9  C   UNL     1     -37.272  41.791 -60.017  1.00  0.00     0.001 A 
HETATM   10  C   UNL     1     -37.327  40.441 -60.371  1.00  0.00     0.002 A 
HETATM   11  C   UNL     1     -37.182  39.448 -59.397  1.00  0.00     0.024 A 
HETATM   12  H   UNL     1     -36.660  37.882 -57.434  1.00  0.00     0.130 HD
ENDROOT
BRANCH   7  13
HETATM   13  C   UNL     1     -34.505  39.156 -56.361  1.00  0.00    -0.020 A 
HETATM   14  C   UNL     1     -33.628  40.211 -56.047  1.00  0.00     0.013 A 
HETATM   15  C   UNL     1     -32.276  40.170 -56.410  1.00  0.00     0.037 A 
HETATM   16  C   UNL     1     -31.785  39.069 -57.098  1.00  0.00     0.065 A 
HETATM   17  C   UNL     1     -32.615  38.007 -57.413  1.00  0.00     0.037 A 
HETATM   18  C   UNL     1     -33.961  38.041 -57.033  1.00  0.00     0.013 A 
BRANCH  16  19
HETATM   19  O   UNL     1     -30.477  38.990 -57.475  1.00  0.00    -0.361 OA
HETATM   20  H   UNL     1     -30.376  39.420 -58.340  1.00  0.00     0.217 HD
ENDBRANCH  16  19
ENDBRANCH   7  13
BRANCH   1  21
HETATM   21  N   UNL     1     -37.057  40.507 -54.082  1.00  0.00    -0.123 NA
HETATM   22  H   UNL     1     -37.984  40.951 -54.071  1.00  0.00     0.165 HD
BRANCH  21  23
HETATM   23  S   UNL     1     -36.113  40.996 -52.764  1.00  0.00     0.222 S 
HETATM   24  C   UNL     1     -37.096  40.385 -51.411  1.00  0.00     0.181 C 
HETATM   25  O   UNL     1     -36.096  42.441 -52.709  1.00  0.00    -0.210 OA
HETATM   26  O   UNL     1     -34.891  40.226 -52.808  1.00  0.00    -0.210 OA
ENDBRANCH  21  23
ENDBRANCH   1  21
TORSDOF 4
ENDMDL
MODEL 6
REMARK VINA RESULT:      -6.5      2.090      4.805
REMARK  4 active torsions:
REMARK  status: ('A' for Active; 'I' for Inactive)
REMARK    1  A    between atoms: S_2  and  N_3 
REMARK    2  A    between atoms: N_3  and  N_4 
REMARK    3  A    between atoms: C_10  and  C_11 
REMARK    4  A    between atoms: C_14  and  O_15 
ROOT
HETATM    1  N   UNL     1     -43.656  56.830 -54.451  1.00  0.00    -0.241 N 
HETATM    2  C   UNL     1     -43.785  57.486 -53.238  1.00  0.00     0.272 C 
HETATM    3  O   UNL     1     -44.883  57.720 -52.732  1.00  0.00    -0.266 OA
HETATM    4  C   UNL     1     -42.533  57.962 -52.622  1.00  0.00     0.054 A 
HETATM    5  C   UNL     1     -41.403  58.048 -53.448  1.00  0.00     0.026 A 
HETATM    6  N   UNL     1     -41.472  57.652 -54.796  1.00  0.00    -0.265 NA
HETATM    7  C   UNL     1     -42.351  56.494 -55.031  1.00  0.00     0.217 C 
HETATM    8  C   UNL     1     -42.509  58.418 -51.301  1.00  0.00     0.019 A 
HETATM    9  C   UNL     1     -41.337  58.975 -50.795  1.00  0.00     0.001 A 
HETATM   10  C   UNL     1     -40.214  59.102 -51.615  1.00  0.00     0.002 A 
HETATM   11  C   UNL     1     -40.253  58.657 -52.940  1.00  0.00     0.024 A 
HETATM   12  H   UNL     1     -40.564  57.549 -55.233  1.00  0.00     0.130 HD
ENDROOT
BRANCH   7  13
HETATM   13  C   UNL     1     -41.722  55.202 -54.481  1.00  0.00    -0.020 A 
HETATM   14  C   UNL     1     -42.270  54.515 -53.381  1.00  0.00     0.013 A 
HETATM   15  C   UNL     1     -41.704  53.324 -52.908  1.00  0.00     0.037 A 
HETATM   16  C   UNL     1     -40.577  52.807 -53.531  1.00  0.00     0.065 A 
HETATM   17  C   UNL     1     -40.018  53.449 -54.624  1.00  0.00     0.037 A 
HETATM   18  C   UNL     1     -40.595  54.627 -55.107  1.00  0.00     0.013 A 
BRANCH  16  19
HETATM   19  O   UNL     1     -39.991  51.653 -53.102  1.00  0.00    -0.361 OA
HETATM   20  H   UNL     1     -39.683  51.154 -53.875  1.00  0.00     0.217 HD
ENDBRANCH  16  19
ENDBRANCH   7  13
BRANCH   1  21
HETATM   21  N   UNL     1     -44.802  57.001 -55.380  1.00  0.00    -0.123 NA
HETATM   22  H   UNL     1     -45.262  56.110 -55.604  1.00  0.00     0.165 HD
BRANCH  21  23
HETATM   23  S   UNL     1     -44.635  57.982 -56.750  1.00  0.00     0.222 S 
HETATM   24  C   UNL     1     -46.333  58.434 -57.039  1.00  0.00     0.181 C 
HETATM   25  O   UNL     1     -44.177  57.172 -57.856  1.00  0.00    -0.210 OA
HETATM   26  O   UNL     1     -43.924  59.171 -56.336  1.00  0.00    -0.210 OA
ENDBRANCH  21  23
ENDBRANCH   1  21
TORSDOF 4
ENDMDL
MODEL 7
REMARK VINA RESULT:      -6.5      3.124      4.935
REMARK  4 active torsions:
REMARK  status: ('A' for Active; 'I' for Inactive)
REMARK    1  A    between atoms: S_2  and  N_3 
REMARK    2  A    between atoms: N_3  and  N_4 
REMARK    3  A    between atoms: C_10  and  C_11 
REMARK    4  A    between atoms: C_14  and  O_15 
ROOT
HETATM    1  N   UNL     1     -43.279  58.542 -51.287  1.00  0.00    -0.241 N 
HETATM    2  C   UNL     1     -42.740  59.052 -52.456  1.00  0.00     0.272 C 
HETATM    3  O   UNL     1     -42.228  60.171 -52.509  1.00  0.00    -0.266 OA
HETATM    4  C   UNL     1     -42.885  58.211 -53.658  1.00  0.00     0.054 A 
HETATM    5  C   UNL     1     -43.841  57.185 -53.612  1.00  0.00     0.026 A 
HETATM    6  N   UNL     1     -44.591  56.959 -52.443  1.00  0.00    -0.265 NA
HETATM    7  C   UNL     1     -43.836  57.187 -51.200  1.00  0.00     0.217 C 
HETATM    8  C   UNL     1     -42.181  58.501 -54.829  1.00  0.00     0.019 A 
HETATM    9  C   UNL     1     -42.437  57.759 -55.980  1.00  0.00     0.001 A 
HETATM   10  C   UNL     1     -43.412  56.760 -55.961  1.00  0.00     0.002 A 
HETATM   11  C   UNL     1     -44.122  56.486 -54.788  1.00  0.00     0.024 A 
HETATM   12  H   UNL     1     -45.083  56.074 -52.446  1.00  0.00     0.130 HD
ENDROOT
BRANCH   7  13
HETATM   13  C   UNL     1     -42.790  56.081 -50.977  1.00  0.00    -0.020 A 
HETATM   14  C   UNL     1     -41.569  56.329 -50.322  1.00  0.00     0.013 A 
HETATM   15  C   UNL     1     -40.639  55.306 -50.100  1.00  0.00     0.037 A 
HETATM   16  C   UNL     1     -40.919  54.018 -50.535  1.00  0.00     0.065 A 
HETATM   17  C   UNL     1     -42.116  53.735 -51.172  1.00  0.00     0.037 A 
HETATM   18  C   UNL     1     -43.052  54.753 -51.376  1.00  0.00     0.013 A 
BRANCH  16  19
HETATM   19  O   UNL     1     -40.040  52.994 -50.344  1.00  0.00    -0.361 OA
HETATM   20  H   UNL     1     -40.541  52.188 -50.138  1.00  0.00     0.217 HD
ENDBRANCH  16  19
ENDBRANCH   7  13
BRANCH   1  21
HETATM   21  N   UNL     1     -43.792  59.562 -50.337  1.00  0.00    -0.123 NA
HETATM   22  H   UNL     1     -43.518  59.367 -49.365  1.00  0.00     0.165 HD
BRANCH  21  23
HETATM   23  S   UNL     1     -45.401  60.076 -50.442  1.00  0.00     0.222 S 
HETATM   24  C   UNL     1     -45.533  61.053 -48.959  1.00  0.00     0.181 C 
HETATM   25  O   UNL     1     -46.271  58.928 -50.320  1.00  0.00    -0.210 OA
HETATM   26  O   UNL     1     -45.487  60.974 -51.573  1.00  0.00    -0.210 OA
ENDBRANCH  21  23
ENDBRANCH   1  21
TORSDOF 4
ENDMDL
MODEL 8
REMARK VINA RESULT:      -6.4      2.324      2.951
REMARK  4 active torsions:
REMARK  status: ('A' for Active; 'I' for Inactive)
REMARK    1  A    between atoms: S_2  and  N_3 
REMARK    2  A    between atoms: N_3  and  N_4 
REMARK    3  A    between atoms: C_10  and  C_11 
REMARK    4  A    between atoms: C_14  and  O_15 
ROOT
HETATM    1  N   UNL     1     -43.234  58.403 -53.892  1.00  0.00    -0.241 N 
HETATM    2  C   UNL     1     -43.189  57.045 -54.161  1.00  0.00     0.272 C 
HETATM    3  O   UNL     1     -43.207  56.602 -55.310  1.00  0.00    -0.266 OA
HETATM    4  C   UNL     1     -43.199  56.152 -52.988  1.00  0.00     0.054 A 
HETATM    5  C   UNL     1     -43.616  56.700 -51.766  1.00  0.00     0.026 A 
HETATM    6  N   UNL     1     -43.967  58.060 -51.677  1.00  0.00    -0.265 NA
HETATM    7  C   UNL     1     -43.151  58.941 -52.530  1.00  0.00     0.217 C 
HETATM    8  C   UNL     1     -42.917  54.789 -53.118  1.00  0.00     0.019 A 
HETATM    9  C   UNL     1     -43.057  53.956 -52.011  1.00  0.00     0.001 A 
HETATM   10  C   UNL     1     -43.508  54.480 -50.797  1.00  0.00     0.002 A 
HETATM   11  C   UNL     1     -43.803  55.841 -50.681  1.00  0.00     0.024 A 
HETATM   12  H   UNL     1     -44.039  58.395 -50.724  1.00  0.00     0.130 HD
ENDROOT
BRANCH   7  13
HETATM   13  C   UNL     1     -41.720  59.073 -51.981  1.00  0.00    -0.020 A 
HETATM   14  C   UNL     1     -40.588  58.846 -52.786  1.00  0.00     0.013 A 
HETATM   15  C   UNL     1     -39.291  58.997 -52.281  1.00  0.00     0.037 A 
HETATM   16  C   UNL     1     -39.110  59.376 -50.958  1.00  0.00     0.065 A 
HETATM   17  C   UNL     1     -40.200  59.620 -50.140  1.00  0.00     0.037 A 
HETATM   18  C   UNL     1     -41.496  59.487 -50.651  1.00  0.00     0.013 A 
BRANCH  16  19
HETATM   19  O   UNL     1     -37.865  59.531 -50.425  1.00  0.00    -0.361 OA
HETATM   20  H   UNL     1     -37.230  59.036 -50.967  1.00  0.00     0.217 HD
ENDBRANCH  16  19
ENDBRANCH   7  13
BRANCH   1  21
HETATM   21  N   UNL     1     -43.931  59.220 -54.918  1.00  0.00    -0.123 NA
HETATM   22  H   UNL     1     -44.580  58.664 -55.489  1.00  0.00     0.165 HD
BRANCH  21  23
HETATM   23  S   UNL     1     -43.051  60.319 -55.858  1.00  0.00     0.222 S 
HETATM   24  C   UNL     1     -43.192  61.790 -54.865  1.00  0.00     0.181 C 
HETATM   25  O   UNL     1     -43.749  60.534 -57.106  1.00  0.00    -0.210 OA
HETATM   26  O   UNL     1     -41.670  59.893 -55.827  1.00  0.00    -0.210 OA
ENDBRANCH  21  23
ENDBRANCH   1  21
TORSDOF 4
ENDMDL
MODEL 9
REMARK VINA RESULT:      -6.4      2.467      4.787
REMARK  4 active torsions:
REMARK  status: ('A' for Active; 'I' for Inactive)
REMARK    1  A    between atoms: S_2  and  N_3 
REMARK    2  A    between atoms: N_3  and  N_4 
REMARK    3  A    between atoms: C_10  and  C_11 
REMARK    4  A    between atoms: C_14  and  O_15 
ROOT
HETATM    1  N   UNL     1     -41.875  57.060 -51.845  1.00  0.00    -0.241 N 
HETATM    2  C   UNL     1     -41.829  55.687 -51.679  1.00  0.00     0.272 C 
HETATM    3  O   UNL     1     -42.047  55.149 -50.592  1.00  0.00    -0.266 OA
HETATM    4  C   UNL     1     -41.422  54.904 -52.860  1.00  0.00     0.054 A 
HETATM    5  C   UNL     1     -40.779  55.594 -53.898  1.00  0.00     0.026 A 
HETATM    6  N   UNL     1     -40.577  56.984 -53.813  1.00  0.00    -0.265 NA
HETATM    7  C   UNL     1     -41.676  57.705 -53.148  1.00  0.00     0.217 C 
HETATM    8  C   UNL     1     -41.569  53.514 -52.888  1.00  0.00     0.019 A 
HETATM    9  C   UNL     1     -41.061  52.798 -53.969  1.00  0.00     0.001 A 
HETATM   10  C   UNL     1     -40.385  53.466 -54.992  1.00  0.00     0.002 A 
HETATM   11  C   UNL     1     -40.230  54.855 -54.948  1.00  0.00     0.024 A 
HETATM   12  H   UNL     1     -40.308  57.406 -54.693  1.00  0.00     0.130 HD
ENDROOT
BRANCH   7  13
HETATM   13  C   UNL     1     -42.930  57.745 -54.039  1.00  0.00    -0.020 A 
HETATM   14  C   UNL     1     -42.848  57.892 -55.436  1.00  0.00     0.013 A 
HETATM   15  C   UNL     1     -43.996  57.898 -56.238  1.00  0.00     0.037 A 
HETATM   16  C   UNL     1     -45.245  57.758 -55.648  1.00  0.00     0.065 A 
HETATM   17  C   UNL     1     -45.363  57.599 -54.278  1.00  0.00     0.037 A 
HETATM   18  C   UNL     1     -44.215  57.574 -53.480  1.00  0.00     0.013 A 
BRANCH  16  19
HETATM   19  O   UNL     1     -46.389  57.763 -56.390  1.00  0.00    -0.361 OA
HETATM   20  H   UNL     1     -46.156  57.917 -57.320  1.00  0.00     0.217 HD
ENDBRANCH  16  19
ENDBRANCH   7  13
BRANCH   1  21
HETATM   21  N   UNL     1     -41.556  57.849 -50.628  1.00  0.00    -0.123 NA
HETATM   22  H   UNL     1     -42.338  57.878 -49.961  1.00  0.00     0.165 HD
BRANCH  21  23
HETATM   23  S   UNL     1     -40.805  59.359 -50.777  1.00  0.00     0.222 S 
HETATM   24  C   UNL     1     -42.216  60.398 -51.096  1.00  0.00     0.181 C 
HETATM   25  O   UNL     1     -39.961  59.351 -51.950  1.00  0.00    -0.210 OA
HETATM   26  O   UNL     1     -40.286  59.705 -49.473  1.00  0.00    -0.210 OA
ENDBRANCH  21  23
ENDBRANCH   1  21
TORSDOF 4
ENDMDL
MODEL 10
REMARK VINA RESULT:      -6.3     16.247     18.605
REMARK  4 active torsions:
REMARK  status: ('A' for Active; 'I' for Inactive)
REMARK    1  A    between atoms: S_2  and  N_3 
REMARK    2  A    between atoms: N_3  and  N_4 
REMARK    3  A    between atoms: C_10  and  C_11 
REMARK    4  A    between atoms: C_14  and  O_15 
ROOT
HETATM    1  N   UNL     1     -34.587  40.852 -55.079  1.00  0.00    -0.241 N 
HETATM    2  C   UNL     1     -35.171  41.782 -55.922  1.00  0.00     0.272 C 
HETATM    3  O   UNL     1     -35.020  42.995 -55.766  1.00  0.00    -0.266 OA
HETATM    4  C   UNL     1     -36.052  41.242 -56.973  1.00  0.00     0.054 A 
HETATM    5  C   UNL     1     -36.511  39.926 -56.813  1.00  0.00     0.026 A 
HETATM    6  N   UNL     1     -36.103  39.157 -55.708  1.00  0.00    -0.265 NA
HETATM    7  C   UNL     1     -34.711  39.406 -55.293  1.00  0.00     0.217 C 
HETATM    8  C   UNL     1     -36.501  42.050 -58.021  1.00  0.00     0.019 A 
HETATM    9  C   UNL     1     -37.430  41.539 -58.925  1.00  0.00     0.001 A 
HETATM   10  C   UNL     1     -37.925  40.244 -58.757  1.00  0.00     0.002 A 
HETATM   11  C   UNL     1     -37.482  39.449 -57.696  1.00  0.00     0.024 A 
HETATM   12  H   UNL     1     -36.313  38.171 -55.804  1.00  0.00     0.130 HD
ENDROOT
BRANCH   7  13
HETATM   13  C   UNL     1     -33.718  38.824 -56.314  1.00  0.00    -0.020 A 
HETATM   14  C   UNL     1     -34.094  37.834 -57.240  1.00  0.00     0.013 A 
HETATM   15  C   UNL     1     -33.188  37.333 -58.183  1.00  0.00     0.037 A 
HETATM   16  C   UNL     1     -31.887  37.817 -58.208  1.00  0.00     0.065 A 
HETATM   17  C   UNL     1     -31.485  38.800 -57.319  1.00  0.00     0.037 A 
HETATM   18  C   UNL     1     -32.396  39.313 -56.390  1.00  0.00     0.013 A 
BRANCH  16  19
HETATM   19  O   UNL     1     -30.971  37.355 -59.105  1.00  0.00    -0.361 OA
HETATM   20  H   UNL     1     -31.438  36.875 -59.807  1.00  0.00     0.217 HD
ENDBRANCH  16  19
ENDBRANCH   7  13
BRANCH   1  21
HETATM   21  N   UNL     1     -34.347  41.327 -53.692  1.00  0.00    -0.123 NA
HETATM   22  H   UNL     1     -33.498  40.919 -53.279  1.00  0.00     0.165 HD
BRANCH  21  23
HETATM   23  S   UNL     1     -35.626  41.369 -52.584  1.00  0.00     0.222 S 
HETATM   24  C   UNL     1     -34.733  41.591 -51.060  1.00  0.00     0.181 C 
HETATM   25  O   UNL     1     -36.270  40.075 -52.559  1.00  0.00    -0.210 OA
HETATM   26  O   UNL     1     -36.371  42.581 -52.842  1.00  0.00    -0.210 OA
ENDBRANCH  21  23
ENDBRANCH   1  21
TORSDOF 4
ENDMDL
