MODEL 1
REMARK VINA RESULT:      -8.6      0.000      0.000
REMARK  12 active torsions:
REMARK  status: ('A' for Active; 'I' for Inactive)
REMARK    1  A    between atoms: C_9  and  S_10 
REMARK    2  A    between atoms: S_10  and  C_11 
REMARK    3  A    between atoms: C_11  and  C_12 
REMARK       I    between atoms: C_12  and  N_13 
REMARK    4  A    between atoms: N_13  and  C_14 
REMARK    5  A    between atoms: C_14  and  C_15 
REMARK    6  A    between atoms: C_15  and  C_16 
REMARK    7  A    between atoms: C_19  and  S_20 
REMARK    8  A    between atoms: S_20  and  N_21 
REMARK    9  A    between atoms: N_27  and  C_28 
REMARK   10  A    between atoms: C_31  and  O_32 
REMARK   11  A    between atoms: O_32  and  C_33 
REMARK   12  A    between atoms: C_41  and  N_42 
ROOT
HETATM    1  C   UNL     1     -45.217  58.871 -50.727  1.00  0.00     0.073 C 
HETATM    2  C   UNL     1     -45.296  58.972 -52.209  1.00  0.00     0.068 A 
HETATM    3  N   UNL     1     -45.995  59.974 -52.755  1.00  0.00    -0.177 NA
HETATM    4  N   UNL     1     -45.853  59.796 -54.076  1.00  0.00    -0.260 N 
HETATM    5  H   UNL     1     -46.292  60.456 -54.710  1.00  0.00     0.191 HD
HETATM    6  C   UNL     1     -45.102  58.701 -54.388  1.00  0.00     0.162 A 
HETATM    7  C   UNL     1     -44.705  58.128 -53.199  1.00  0.00     0.081 A 
HETATM    8  N   UNL     1     -44.812  58.271 -55.612  1.00  0.00    -0.204 NA
HETATM    9  C   UNL     1     -44.008  57.185 -55.603  1.00  0.00     0.177 A 
HETATM   10  N   UNL     1     -43.540  56.567 -54.478  1.00  0.00    -0.276 N 
HETATM   11  C   UNL     1     -43.911  56.970 -53.224  1.00  0.00     0.124 A 
ENDROOT
BRANCH   9  12
HETATM   12  S   UNL     1     -43.561  56.663 -57.259  1.00  0.00    -0.082 SA
BRANCH  12  13
HETATM   13  C   UNL     1     -43.899  58.222 -58.144  1.00  0.00     0.185 C 
BRANCH  13  14
HETATM   14  C   UNL     1     -42.902  59.314 -57.790  1.00  0.00     0.227 C 
HETATM   15  N   UNL     1     -43.499  60.398 -57.169  1.00  0.00    -0.360 N 
HETATM   16  H   UNL     1     -44.433  60.288 -56.794  1.00  0.00     0.162 HD
HETATM   17  O   UNL     1     -41.715  59.275 -58.088  1.00  0.00    -0.273 OA
BRANCH  15  18
HETATM   18  C   UNL     1     -42.716  61.505 -56.640  1.00  0.00     0.127 C 
BRANCH  18  19
HETATM   19  C   UNL     1     -43.214  61.932 -55.257  1.00  0.00     0.058 C 
BRANCH  19  20
HETATM   20  C   UNL     1     -42.593  61.104 -54.160  1.00  0.00    -0.057 A 
HETATM   21  C   UNL     1     -42.782  61.446 -52.813  1.00  0.00     0.009 A 
HETATM   22  C   UNL     1     -42.166  60.704 -51.803  1.00  0.00     0.025 A 
HETATM   23  C   UNL     1     -41.361  59.613 -52.141  1.00  0.00     0.074 A 
HETATM   24  C   UNL     1     -41.158  59.265 -53.478  1.00  0.00     0.025 A 
HETATM   25  C   UNL     1     -41.777  60.009 -54.483  1.00  0.00     0.009 A 
BRANCH  23  26
HETATM   26  S   UNL     1     -40.521  58.713 -50.870  1.00  0.00     0.239 S 
HETATM   27  O   UNL     1     -40.870  57.314 -50.976  1.00  0.00    -0.206 OA
HETATM   28  O   UNL     1     -39.154  59.166 -50.793  1.00  0.00    -0.206 OA
BRANCH  26  29
HETATM   29  N   UNL     1     -41.279  59.276 -49.483  1.00  0.00    -0.225 NA
HETATM   30  H   UNL     1     -41.505  60.266 -49.590  1.00  0.00     0.136 HD
HETATM   31  H   UNL     1     -42.092  58.694 -49.275  1.00  0.00     0.136 HD
ENDBRANCH  26  29
ENDBRANCH  23  26
ENDBRANCH  19  20
ENDBRANCH  18  19
ENDBRANCH  15  18
ENDBRANCH  13  14
ENDBRANCH  12  13
ENDBRANCH   9  12
BRANCH  10  32
HETATM   32  C   UNL     1     -42.578  55.495 -54.588  1.00  0.00     0.043 A 
HETATM   33  C   UNL     1     -41.219  55.823 -54.594  1.00  0.00     0.033 A 
HETATM   34  C   UNL     1     -40.276  54.797 -54.591  1.00  0.00     0.039 A 
HETATM   35  C   UNL     1     -40.678  53.455 -54.593  1.00  0.00     0.076 A 
HETATM   36  C   UNL     1     -42.043  53.143 -54.608  1.00  0.00     0.039 A 
HETATM   37  C   UNL     1     -43.002  54.164 -54.582  1.00  0.00     0.033 A 
BRANCH  35  38
HETATM   38  O   UNL     1     -39.634  52.556 -54.582  1.00  0.00    -0.311 OA
BRANCH  38  39
HETATM   39  C   UNL     1     -39.574  51.607 -53.595  1.00  0.00     0.076 A 
HETATM   40  C   UNL     1     -39.637  52.040 -52.271  1.00  0.00     0.037 A 
HETATM   41  C   UNL     1     -39.661  51.103 -51.238  1.00  0.00     0.003 A 
HETATM   42  C   UNL     1     -39.629  49.740 -51.534  1.00  0.00     0.000 A 
HETATM   43  C   UNL     1     -39.591  49.310 -52.862  1.00  0.00     0.003 A 
HETATM   44  C   UNL     1     -39.579  50.244 -53.897  1.00  0.00     0.037 A 
ENDBRANCH  38  39
ENDBRANCH  35  38
ENDBRANCH  10  32
BRANCH  11  45
HETATM   45  N   UNL     1     -43.535  56.297 -52.066  1.00  0.00    -0.384 N 
HETATM   46  H   UNL     1     -43.459  55.285 -52.051  1.00  0.00     0.157 HD
HETATM   47  H   UNL     1     -43.790  56.702 -51.170  1.00  0.00     0.157 HD
ENDBRANCH  11  45
TORSDOF 12
ENDMDL
MODEL 2
REMARK VINA RESULT:      -8.4      2.809      4.601
REMARK  12 active torsions:
REMARK  status: ('A' for Active; 'I' for Inactive)
REMARK    1  A    between atoms: C_9  and  S_10 
REMARK    2  A    between atoms: S_10  and  C_11 
REMARK    3  A    between atoms: C_11  and  C_12 
REMARK       I    between atoms: C_12  and  N_13 
REMARK    4  A    between atoms: N_13  and  C_14 
REMARK    5  A    between atoms: C_14  and  C_15 
REMARK    6  A    between atoms: C_15  and  C_16 
REMARK    7  A    between atoms: C_19  and  S_20 
REMARK    8  A    between atoms: S_20  and  N_21 
REMARK    9  A    between atoms: N_27  and  C_28 
REMARK   10  A    between atoms: C_31  and  O_32 
REMARK   11  A    between atoms: O_32  and  C_33 
REMARK   12  A    between atoms: C_41  and  N_42 
ROOT
HETATM    1  C   UNL     1     -45.614  55.710 -60.519  1.00  0.00     0.073 C 
HETATM    2  C   UNL     1     -45.135  56.905 -59.774  1.00  0.00     0.068 A 
HETATM    3  N   UNL     1     -45.514  58.121 -60.184  1.00  0.00    -0.177 NA
HETATM    4  N   UNL     1     -44.944  58.959 -59.308  1.00  0.00    -0.260 N 
HETATM    5  H   UNL     1     -45.102  59.957 -59.408  1.00  0.00     0.191 HD
HETATM    6  C   UNL     1     -44.197  58.316 -58.364  1.00  0.00     0.162 A 
HETATM    7  C   UNL     1     -44.294  56.966 -58.620  1.00  0.00     0.081 A 
HETATM    8  N   UNL     1     -43.505  58.891 -57.385  1.00  0.00    -0.204 NA
HETATM    9  C   UNL     1     -42.903  57.989 -56.578  1.00  0.00     0.177 A 
HETATM   10  N   UNL     1     -42.966  56.634 -56.734  1.00  0.00    -0.276 N 
HETATM   11  C   UNL     1     -43.615  56.057 -57.792  1.00  0.00     0.124 A 
ENDROOT
BRANCH   9  12
HETATM   12  S   UNL     1     -42.039  58.774 -55.217  1.00  0.00    -0.082 SA
BRANCH  12  13
HETATM   13  C   UNL     1     -43.107  60.240 -55.017  1.00  0.00     0.185 C 
BRANCH  13  14
HETATM   14  C   UNL     1     -43.861  60.228 -53.697  1.00  0.00     0.227 C 
HETATM   15  N   UNL     1     -43.789  59.004 -53.055  1.00  0.00    -0.360 N 
HETATM   16  H   UNL     1     -43.087  58.339 -53.355  1.00  0.00     0.162 HD
HETATM   17  O   UNL     1     -44.523  61.171 -53.282  1.00  0.00    -0.273 OA
BRANCH  15  18
HETATM   18  C   UNL     1     -44.340  58.802 -51.722  1.00  0.00     0.127 C 
BRANCH  18  19
HETATM   19  C   UNL     1     -44.801  57.357 -51.520  1.00  0.00     0.058 C 
BRANCH  19  20
HETATM   20  C   UNL     1     -43.698  56.492 -50.966  1.00  0.00    -0.057 A 
HETATM   21  C   UNL     1     -43.959  55.176 -50.557  1.00  0.00     0.009 A 
HETATM   22  C   UNL     1     -42.943  54.394 -50.001  1.00  0.00     0.025 A 
HETATM   23  C   UNL     1     -41.661  54.930 -49.857  1.00  0.00     0.074 A 
HETATM   24  C   UNL     1     -41.388  56.240 -50.254  1.00  0.00     0.025 A 
HETATM   25  C   UNL     1     -42.405  57.016 -50.810  1.00  0.00     0.009 A 
BRANCH  23  26
HETATM   26  S   UNL     1     -40.388  53.969 -49.089  1.00  0.00     0.239 S 
HETATM   27  O   UNL     1     -40.750  52.571 -49.155  1.00  0.00    -0.206 OA
HETATM   28  O   UNL     1     -39.101  54.458 -49.519  1.00  0.00    -0.206 OA
BRANCH  26  29
HETATM   29  N   UNL     1     -40.540  54.411 -47.477  1.00  0.00    -0.225 NA
HETATM   30  H   UNL     1     -39.975  55.242 -47.292  1.00  0.00     0.136 HD
HETATM   31  H   UNL     1     -41.528  54.532 -47.246  1.00  0.00     0.136 HD
ENDBRANCH  26  29
ENDBRANCH  23  26
ENDBRANCH  19  20
ENDBRANCH  18  19
ENDBRANCH  15  18
ENDBRANCH  13  14
ENDBRANCH  12  13
ENDBRANCH   9  12
BRANCH  10  32
HETATM   32  C   UNL     1     -42.395  55.762 -55.733  1.00  0.00     0.043 A 
HETATM   33  C   UNL     1     -41.008  55.589 -55.720  1.00  0.00     0.033 A 
HETATM   34  C   UNL     1     -40.431  54.838 -54.698  1.00  0.00     0.039 A 
HETATM   35  C   UNL     1     -41.225  54.253 -53.703  1.00  0.00     0.076 A 
HETATM   36  C   UNL     1     -42.615  54.418 -53.743  1.00  0.00     0.039 A 
HETATM   37  C   UNL     1     -43.206  55.195 -54.748  1.00  0.00     0.033 A 
BRANCH  35  38
HETATM   38  O   UNL     1     -40.512  53.548 -52.758  1.00  0.00    -0.311 OA
BRANCH  38  39
HETATM   39  C   UNL     1     -40.167  52.246 -53.008  1.00  0.00     0.076 A 
HETATM   40  C   UNL     1     -39.753  51.463 -51.931  1.00  0.00     0.037 A 
HETATM   41  C   UNL     1     -39.470  50.112 -52.127  1.00  0.00     0.003 A 
HETATM   42  C   UNL     1     -39.609  49.548 -53.395  1.00  0.00     0.000 A 
HETATM   43  C   UNL     1     -40.048  50.329 -54.467  1.00  0.00     0.003 A 
HETATM   44  C   UNL     1     -40.343  51.678 -54.272  1.00  0.00     0.037 A 
ENDBRANCH  38  39
ENDBRANCH  35  38
ENDBRANCH  10  32
BRANCH  11  45
HETATM   45  N   UNL     1     -43.608  54.687 -58.034  1.00  0.00    -0.384 N 
HETATM   46  H   UNL     1     -42.819  54.112 -57.758  1.00  0.00     0.157 HD
HETATM   47  H   UNL     1     -44.103  54.341 -58.851  1.00  0.00     0.157 HD
ENDBRANCH  11  45
TORSDOF 12
ENDMDL
MODEL 3
REMARK VINA RESULT:      -7.9      2.785      4.340
REMARK  12 active torsions:
REMARK  status: ('A' for Active; 'I' for Inactive)
REMARK    1  A    between atoms: C_9  and  S_10 
REMARK    2  A    between atoms: S_10  and  C_11 
REMARK    3  A    between atoms: C_11  and  C_12 
REMARK       I    between atoms: C_12  and  N_13 
REMARK    4  A    between atoms: N_13  and  C_14 
REMARK    5  A    between atoms: C_14  and  C_15 
REMARK    6  A    between atoms: C_15  and  C_16 
REMARK    7  A    between atoms: C_19  and  S_20 
REMARK    8  A    between atoms: S_20  and  N_21 
REMARK    9  A    between atoms: N_27  and  C_28 
REMARK   10  A    between atoms: C_31  and  O_32 
REMARK   11  A    between atoms: O_32  and  C_33 
REMARK   12  A    between atoms: C_41  and  N_42 
ROOT
HETATM    1  C   UNL     1     -45.206  57.808 -59.234  1.00  0.00     0.073 C 
HETATM    2  C   UNL     1     -45.253  58.160 -57.790  1.00  0.00     0.068 A 
HETATM    3  N   UNL     1     -46.128  59.084 -57.375  1.00  0.00    -0.177 NA
HETATM    4  N   UNL     1     -45.937  59.151 -56.051  1.00  0.00    -0.260 N 
HETATM    5  H   UNL     1     -46.508  59.787 -55.503  1.00  0.00     0.191 HD
HETATM    6  C   UNL     1     -44.953  58.313 -55.612  1.00  0.00     0.162 A 
HETATM    7  C   UNL     1     -44.476  57.635 -56.712  1.00  0.00     0.081 A 
HETATM    8  N   UNL     1     -44.536  58.183 -54.356  1.00  0.00    -0.204 NA
HETATM    9  C   UNL     1     -43.577  57.239 -54.224  1.00  0.00     0.177 A 
HETATM   10  N   UNL     1     -43.065  56.496 -55.249  1.00  0.00    -0.276 N 
HETATM   11  C   UNL     1     -43.445  56.696 -56.549  1.00  0.00     0.124 A 
ENDROOT
BRANCH   9  12
HETATM   12  S   UNL     1     -43.080  57.018 -52.516  1.00  0.00    -0.082 SA
BRANCH  12  13
HETATM   13  C   UNL     1     -41.545  58.005 -52.543  1.00  0.00     0.185 C 
BRANCH  13  14
HETATM   14  C   UNL     1     -41.780  59.448 -52.127  1.00  0.00     0.227 C 
HETATM   15  N   UNL     1     -42.363  60.202 -53.130  1.00  0.00    -0.360 N 
HETATM   16  H   UNL     1     -42.791  59.722 -53.912  1.00  0.00     0.162 HD
HETATM   17  O   UNL     1     -41.425  59.913 -51.051  1.00  0.00    -0.273 OA
BRANCH  15  18
HETATM   18  C   UNL     1     -42.783  61.579 -52.910  1.00  0.00     0.127 C 
BRANCH  18  19
HETATM   19  C   UNL     1     -44.304  61.685 -52.776  1.00  0.00     0.058 C 
BRANCH  19  20
HETATM   20  C   UNL     1     -44.756  61.462 -51.355  1.00  0.00    -0.057 A 
HETATM   21  C   UNL     1     -44.549  62.445 -50.377  1.00  0.00     0.009 A 
HETATM   22  C   UNL     1     -44.927  62.215 -49.051  1.00  0.00     0.025 A 
HETATM   23  C   UNL     1     -45.519  60.997 -48.705  1.00  0.00     0.074 A 
HETATM   24  C   UNL     1     -45.725  60.007 -49.667  1.00  0.00     0.025 A 
HETATM   25  C   UNL     1     -45.347  60.242 -50.989  1.00  0.00     0.009 A 
BRANCH  23  26
HETATM   26  S   UNL     1     -45.935  60.672 -47.016  1.00  0.00     0.239 S 
HETATM   27  O   UNL     1     -44.754  60.837 -46.201  1.00  0.00    -0.206 OA
HETATM   28  O   UNL     1     -47.188  61.315 -46.705  1.00  0.00    -0.206 OA
BRANCH  26  29
HETATM   29  N   UNL     1     -46.252  59.024 -47.045  1.00  0.00    -0.225 NA
HETATM   30  H   UNL     1     -46.124  58.664 -47.992  1.00  0.00     0.136 HD
HETATM   31  H   UNL     1     -45.673  58.551 -46.349  1.00  0.00     0.136 HD
ENDBRANCH  26  29
ENDBRANCH  23  26
ENDBRANCH  19  20
ENDBRANCH  18  19
ENDBRANCH  15  18
ENDBRANCH  13  14
ENDBRANCH  12  13
ENDBRANCH   9  12
BRANCH  10  32
HETATM   32  C   UNL     1     -42.140  55.421 -54.972  1.00  0.00     0.043 A 
HETATM   33  C   UNL     1     -42.658  54.139 -54.767  1.00  0.00     0.033 A 
HETATM   34  C   UNL     1     -41.776  53.071 -54.606  1.00  0.00     0.039 A 
HETATM   35  C   UNL     1     -40.391  53.277 -54.635  1.00  0.00     0.076 A 
HETATM   36  C   UNL     1     -39.888  54.571 -54.820  1.00  0.00     0.039 A 
HETATM   37  C   UNL     1     -40.763  55.648 -55.013  1.00  0.00     0.033 A 
BRANCH  35  38
HETATM   38  O   UNL     1     -39.649  52.128 -54.469  1.00  0.00    -0.311 OA
BRANCH  38  39
HETATM   39  C   UNL     1     -39.744  51.430 -53.293  1.00  0.00     0.076 A 
HETATM   40  C   UNL     1     -39.721  50.037 -53.359  1.00  0.00     0.037 A 
HETATM   41  C   UNL     1     -39.733  49.289 -52.183  1.00  0.00     0.003 A 
HETATM   42  C   UNL     1     -39.761  49.936 -50.947  1.00  0.00     0.000 A 
HETATM   43  C   UNL     1     -39.759  51.331 -50.884  1.00  0.00     0.003 A 
HETATM   44  C   UNL     1     -39.735  52.082 -52.059  1.00  0.00     0.037 A 
ENDBRANCH  38  39
ENDBRANCH  35  38
ENDBRANCH  10  32
BRANCH  11  45
HETATM   45  N   UNL     1     -42.865  56.028 -57.623  1.00  0.00    -0.384 N 
HETATM   46  H   UNL     1     -41.884  55.769 -57.609  1.00  0.00     0.157 HD
HETATM   47  H   UNL     1     -43.229  56.208 -58.554  1.00  0.00     0.157 HD
ENDBRANCH  11  45
TORSDOF 12
ENDMDL
MODEL 4
REMARK VINA RESULT:      -7.8      3.170      7.097
REMARK  12 active torsions:
REMARK  status: ('A' for Active; 'I' for Inactive)
REMARK    1  A    between atoms: C_9  and  S_10 
REMARK    2  A    between atoms: S_10  and  C_11 
REMARK    3  A    between atoms: C_11  and  C_12 
REMARK       I    between atoms: C_12  and  N_13 
REMARK    4  A    between atoms: N_13  and  C_14 
REMARK    5  A    between atoms: C_14  and  C_15 
REMARK    6  A    between atoms: C_15  and  C_16 
REMARK    7  A    between atoms: C_19  and  S_20 
REMARK    8  A    between atoms: S_20  and  N_21 
REMARK    9  A    between atoms: N_27  and  C_28 
REMARK   10  A    between atoms: C_31  and  O_32 
REMARK   11  A    between atoms: O_32  and  C_33 
REMARK   12  A    between atoms: C_41  and  N_42 
ROOT
HETATM    1  C   UNL     1     -39.699  50.761 -53.992  1.00  0.00     0.073 C 
HETATM    2  C   UNL     1     -39.878  51.648 -52.813  1.00  0.00     0.068 A 
HETATM    3  N   UNL     1     -39.322  51.298 -51.646  1.00  0.00    -0.177 NA
HETATM    4  N   UNL     1     -39.643  52.297 -50.813  1.00  0.00    -0.260 N 
HETATM    5  H   UNL     1     -39.314  52.261 -49.853  1.00  0.00     0.191 HD
HETATM    6  C   UNL     1     -40.404  53.262 -51.407  1.00  0.00     0.162 A 
HETATM    7  C   UNL     1     -40.580  52.889 -52.721  1.00  0.00     0.081 A 
HETATM    8  N   UNL     1     -40.882  54.355 -50.820  1.00  0.00    -0.204 NA
HETATM    9  C   UNL     1     -41.562  55.148 -51.678  1.00  0.00     0.177 A 
HETATM   10  N   UNL     1     -41.763  54.877 -53.002  1.00  0.00    -0.276 N 
HETATM   11  C   UNL     1     -41.334  53.711 -53.575  1.00  0.00     0.124 A 
ENDROOT
BRANCH   9  12
HETATM   12  S   UNL     1     -42.134  56.655 -50.894  1.00  0.00    -0.082 SA
BRANCH  12  13
HETATM   13  C   UNL     1     -40.571  57.595 -50.919  1.00  0.00     0.185 C 
BRANCH  13  14
HETATM   14  C   UNL     1     -40.601  58.738 -51.921  1.00  0.00     0.227 C 
HETATM   15  N   UNL     1     -41.889  59.105 -52.269  1.00  0.00    -0.360 N 
HETATM   16  H   UNL     1     -42.657  58.790 -51.690  1.00  0.00     0.162 HD
HETATM   17  O   UNL     1     -39.598  59.230 -52.424  1.00  0.00    -0.273 OA
BRANCH  15  18
HETATM   18  C   UNL     1     -42.155  60.254 -53.124  1.00  0.00     0.127 C 
BRANCH  18  19
HETATM   19  C   UNL     1     -43.651  60.569 -53.188  1.00  0.00     0.058 C 
BRANCH  19  20
HETATM   20  C   UNL     1     -44.277  60.590 -51.816  1.00  0.00    -0.057 A 
HETATM   21  C   UNL     1     -44.032  61.653 -50.935  1.00  0.00     0.009 A 
HETATM   22  C   UNL     1     -44.576  61.644 -49.648  1.00  0.00     0.025 A 
HETATM   23  C   UNL     1     -45.372  60.570 -49.243  1.00  0.00     0.074 A 
HETATM   24  C   UNL     1     -45.619  59.501 -50.108  1.00  0.00     0.025 A 
HETATM   25  C   UNL     1     -45.074  59.515 -51.391  1.00  0.00     0.009 A 
BRANCH  23  26
HETATM   26  S   UNL     1     -46.006  60.519 -47.592  1.00  0.00     0.239 S 
HETATM   27  O   UNL     1     -46.805  61.700 -47.359  1.00  0.00    -0.206 OA
HETATM   28  O   UNL     1     -46.487  59.189 -47.310  1.00  0.00    -0.206 OA
BRANCH  26  29
HETATM   29  N   UNL     1     -44.613  60.714 -46.676  1.00  0.00    -0.225 NA
HETATM   30  H   UNL     1     -43.996  61.393 -47.125  1.00  0.00     0.136 HD
HETATM   31  H   UNL     1     -44.864  60.966 -45.718  1.00  0.00     0.136 HD
ENDBRANCH  26  29
ENDBRANCH  23  26
ENDBRANCH  19  20
ENDBRANCH  18  19
ENDBRANCH  15  18
ENDBRANCH  13  14
ENDBRANCH  12  13
ENDBRANCH   9  12
BRANCH  10  32
HETATM   32  C   UNL     1     -42.388  55.861 -53.856  1.00  0.00     0.043 A 
HETATM   33  C   UNL     1     -41.574  56.608 -54.711  1.00  0.00     0.033 A 
HETATM   34  C   UNL     1     -42.169  57.485 -55.617  1.00  0.00     0.039 A 
HETATM   35  C   UNL     1     -43.562  57.627 -55.665  1.00  0.00     0.076 A 
HETATM   36  C   UNL     1     -44.362  56.886 -54.786  1.00  0.00     0.039 A 
HETATM   37  C   UNL     1     -43.779  55.981 -53.891  1.00  0.00     0.033 A 
BRANCH  35  38
HETATM   38  O   UNL     1     -44.002  58.522 -56.614  1.00  0.00    -0.311 OA
BRANCH  38  39
HETATM   39  C   UNL     1     -44.912  58.113 -57.555  1.00  0.00     0.076 A 
HETATM   40  C   UNL     1     -44.481  57.216 -58.532  1.00  0.00     0.037 A 
HETATM   41  C   UNL     1     -45.393  56.712 -59.458  1.00  0.00     0.003 A 
HETATM   42  C   UNL     1     -46.732  57.099 -59.399  1.00  0.00     0.000 A 
HETATM   43  C   UNL     1     -47.165  57.978 -58.404  1.00  0.00     0.003 A 
HETATM   44  C   UNL     1     -46.258  58.475 -57.469  1.00  0.00     0.037 A 
ENDBRANCH  38  39
ENDBRANCH  35  38
ENDBRANCH  10  32
BRANCH  11  45
HETATM   45  N   UNL     1     -41.615  53.361 -54.892  1.00  0.00    -0.384 N 
HETATM   46  H   UNL     1     -42.572  53.321 -55.228  1.00  0.00     0.157 HD
HETATM   47  H   UNL     1     -40.987  52.718 -55.363  1.00  0.00     0.157 HD
ENDBRANCH  11  45
TORSDOF 12
ENDMDL
MODEL 5
REMARK VINA RESULT:      -7.7      2.510      5.339
REMARK  12 active torsions:
REMARK  status: ('A' for Active; 'I' for Inactive)
REMARK    1  A    between atoms: C_9  and  S_10 
REMARK    2  A    between atoms: S_10  and  C_11 
REMARK    3  A    between atoms: C_11  and  C_12 
REMARK       I    between atoms: C_12  and  N_13 
REMARK    4  A    between atoms: N_13  and  C_14 
REMARK    5  A    between atoms: C_14  and  C_15 
REMARK    6  A    between atoms: C_15  and  C_16 
REMARK    7  A    between atoms: C_19  and  S_20 
REMARK    8  A    between atoms: S_20  and  N_21 
REMARK    9  A    between atoms: N_27  and  C_28 
REMARK   10  A    between atoms: C_31  and  O_32 
REMARK   11  A    between atoms: O_32  and  C_33 
REMARK   12  A    between atoms: C_41  and  N_42 
ROOT
HETATM    1  C   UNL     1     -45.479  60.288 -48.591  1.00  0.00     0.073 C 
HETATM    2  C   UNL     1     -45.761  60.704 -49.990  1.00  0.00     0.068 A 
HETATM    3  N   UNL     1     -46.489  61.807 -50.206  1.00  0.00    -0.177 NA
HETATM    4  N   UNL     1     -46.541  61.914 -51.540  1.00  0.00    -0.260 N 
HETATM    5  H   UNL     1     -47.037  62.699 -51.951  1.00  0.00     0.191 HD
HETATM    6  C   UNL     1     -45.886  60.903 -52.182  1.00  0.00     0.162 A 
HETATM    7  C   UNL     1     -45.351  60.085 -51.211  1.00  0.00     0.081 A 
HETATM    8  N   UNL     1     -45.790  60.742 -53.498  1.00  0.00    -0.204 NA
HETATM    9  C   UNL     1     -45.037  59.670 -53.834  1.00  0.00     0.177 A 
HETATM   10  N   UNL     1     -44.443  58.821 -52.945  1.00  0.00    -0.276 N 
HETATM   11  C   UNL     1     -44.616  58.951 -51.594  1.00  0.00     0.124 A 
ENDROOT
BRANCH   9  12
HETATM   12  S   UNL     1     -44.849  59.509 -55.610  1.00  0.00    -0.082 SA
BRANCH  12  13
HETATM   13  C   UNL     1     -43.744  60.930 -55.904  1.00  0.00     0.185 C 
BRANCH  13  14
HETATM   14  C   UNL     1     -42.553  60.564 -56.775  1.00  0.00     0.227 C 
HETATM   15  N   UNL     1     -42.577  61.201 -58.003  1.00  0.00    -0.360 N 
HETATM   16  H   UNL     1     -43.193  61.995 -58.126  1.00  0.00     0.162 HD
HETATM   17  O   UNL     1     -41.705  59.738 -56.458  1.00  0.00    -0.273 OA
BRANCH  15  18
HETATM   18  C   UNL     1     -41.476  61.086 -58.949  1.00  0.00     0.127 C 
BRANCH  18  19
HETATM   19  C   UNL     1     -41.968  60.652 -60.331  1.00  0.00     0.058 C 
BRANCH  19  20
HETATM   20  C   UNL     1     -42.669  59.318 -60.281  1.00  0.00    -0.057 A 
HETATM   21  C   UNL     1     -41.932  58.126 -60.232  1.00  0.00     0.009 A 
HETATM   22  C   UNL     1     -42.585  56.890 -60.234  1.00  0.00     0.025 A 
HETATM   23  C   UNL     1     -43.981  56.849 -60.279  1.00  0.00     0.074 A 
HETATM   24  C   UNL     1     -44.727  58.028 -60.334  1.00  0.00     0.025 A 
HETATM   25  C   UNL     1     -44.070  59.258 -60.332  1.00  0.00     0.009 A 
BRANCH  23  26
HETATM   26  S   UNL     1     -44.812  55.288 -60.352  1.00  0.00     0.239 S 
HETATM   27  O   UNL     1     -44.936  54.886 -61.735  1.00  0.00    -0.206 OA
HETATM   28  O   UNL     1     -44.272  54.416 -59.338  1.00  0.00    -0.206 OA
BRANCH  26  29
HETATM   29  N   UNL     1     -46.360  55.691 -59.845  1.00  0.00    -0.225 NA
HETATM   30  H   UNL     1     -47.027  55.517 -60.599  1.00  0.00     0.136 HD
HETATM   31  H   UNL     1     -46.581  55.188 -58.984  1.00  0.00     0.136 HD
ENDBRANCH  26  29
ENDBRANCH  23  26
ENDBRANCH  19  20
ENDBRANCH  18  19
ENDBRANCH  15  18
ENDBRANCH  13  14
ENDBRANCH  12  13
ENDBRANCH   9  12
BRANCH  10  32
HETATM   32  C   UNL     1     -43.550  57.787 -53.416  1.00  0.00     0.043 A 
HETATM   33  C   UNL     1     -42.183  58.074 -53.486  1.00  0.00     0.033 A 
HETATM   34  C   UNL     1     -41.297  57.056 -53.835  1.00  0.00     0.039 A 
HETATM   35  C   UNL     1     -41.764  55.768 -54.126  1.00  0.00     0.076 A 
HETATM   36  C   UNL     1     -43.138  55.504 -54.072  1.00  0.00     0.039 A 
HETATM   37  C   UNL     1     -44.038  56.509 -53.694  1.00  0.00     0.033 A 
BRANCH  35  38
HETATM   38  O   UNL     1     -40.771  54.870 -54.446  1.00  0.00    -0.311 OA
BRANCH  38  39
HETATM   39  C   UNL     1     -40.504  53.829 -53.596  1.00  0.00     0.076 A 
HETATM   40  C   UNL     1     -40.103  52.617 -54.156  1.00  0.00     0.037 A 
HETATM   41  C   UNL     1     -39.743  51.556 -53.324  1.00  0.00     0.003 A 
HETATM   42  C   UNL     1     -39.779  51.715 -51.939  1.00  0.00     0.000 A 
HETATM   43  C   UNL     1     -40.158  52.938 -51.382  1.00  0.00     0.003 A 
HETATM   44  C   UNL     1     -40.506  54.004 -52.211  1.00  0.00     0.037 A 
ENDBRANCH  38  39
ENDBRANCH  35  38
ENDBRANCH  10  32
BRANCH  11  45
HETATM   45  N   UNL     1     -44.110  58.043 -50.670  1.00  0.00    -0.384 N 
HETATM   46  H   UNL     1     -43.717  58.357 -49.789  1.00  0.00     0.157 HD
HETATM   47  H   UNL     1     -43.699  57.181 -51.018  1.00  0.00     0.157 HD
ENDBRANCH  11  45
TORSDOF 12
ENDMDL
MODEL 6
REMARK VINA RESULT:      -7.7      2.698      4.926
REMARK  12 active torsions:
REMARK  status: ('A' for Active; 'I' for Inactive)
REMARK    1  A    between atoms: C_9  and  S_10 
REMARK    2  A    between atoms: S_10  and  C_11 
REMARK    3  A    between atoms: C_11  and  C_12 
REMARK       I    between atoms: C_12  and  N_13 
REMARK    4  A    between atoms: N_13  and  C_14 
REMARK    5  A    between atoms: C_14  and  C_15 
REMARK    6  A    between atoms: C_15  and  C_16 
REMARK    7  A    between atoms: C_19  and  S_20 
REMARK    8  A    between atoms: S_20  and  N_21 
REMARK    9  A    between atoms: N_27  and  C_28 
REMARK   10  A    between atoms: C_31  and  O_32 
REMARK   11  A    between atoms: O_32  and  C_33 
REMARK   12  A    between atoms: C_41  and  N_42 
ROOT
HETATM    1  C   UNL     1     -45.609  58.912 -51.314  1.00  0.00     0.073 C 
HETATM    2  C   UNL     1     -45.260  59.182 -52.734  1.00  0.00     0.068 A 
HETATM    3  N   UNL     1     -45.674  60.323 -53.299  1.00  0.00    -0.177 NA
HETATM    4  N   UNL     1     -45.186  60.271 -54.546  1.00  0.00    -0.260 N 
HETATM    5  H   UNL     1     -45.362  61.049 -55.175  1.00  0.00     0.191 HD
HETATM    6  C   UNL     1     -44.492  59.124 -54.799  1.00  0.00     0.162 A 
HETATM    7  C   UNL     1     -44.504  58.378 -53.641  1.00  0.00     0.081 A 
HETATM    8  N   UNL     1     -43.915  58.794 -55.951  1.00  0.00    -0.204 NA
HETATM    9  C   UNL     1     -43.259  57.614 -55.882  1.00  0.00     0.177 A 
HETATM   10  N   UNL     1     -43.190  56.821 -54.773  1.00  0.00    -0.276 N 
HETATM   11  C   UNL     1     -43.854  57.132 -53.617  1.00  0.00     0.124 A 
ENDROOT
BRANCH   9  12
HETATM   12  S   UNL     1     -42.422  57.218 -57.417  1.00  0.00    -0.082 SA
BRANCH  12  13
HETATM   13  C   UNL     1     -43.406  55.762 -57.905  1.00  0.00     0.185 C 
BRANCH  13  14
HETATM   14  C   UNL     1     -43.933  55.873 -59.327  1.00  0.00     0.227 C 
HETATM   15  N   UNL     1     -45.256  55.479 -59.436  1.00  0.00    -0.360 N 
HETATM   16  H   UNL     1     -45.809  55.397 -58.592  1.00  0.00     0.162 HD
HETATM   17  O   UNL     1     -43.245  56.202 -60.285  1.00  0.00    -0.273 OA
BRANCH  15  18
HETATM   18  C   UNL     1     -45.996  55.614 -60.682  1.00  0.00     0.127 C 
BRANCH  18  19
HETATM   19  C   UNL     1     -47.228  56.505 -60.507  1.00  0.00     0.058 C 
BRANCH  19  20
HETATM   20  C   UNL     1     -46.889  57.795 -59.805  1.00  0.00    -0.057 A 
HETATM   21  C   UNL     1     -47.185  57.967 -58.445  1.00  0.00     0.009 A 
HETATM   22  C   UNL     1     -46.912  59.181 -57.810  1.00  0.00     0.025 A 
HETATM   23  C   UNL     1     -46.337  60.226 -58.538  1.00  0.00     0.074 A 
HETATM   24  C   UNL     1     -46.043  60.071 -59.894  1.00  0.00     0.025 A 
HETATM   25  C   UNL     1     -46.317  58.856 -60.523  1.00  0.00     0.009 A 
BRANCH  23  26
HETATM   26  S   UNL     1     -46.053  61.789 -57.758  1.00  0.00     0.239 S 
HETATM   27  O   UNL     1     -46.123  62.831 -58.757  1.00  0.00    -0.206 OA
HETATM   28  O   UNL     1     -46.800  61.845 -56.525  1.00  0.00    -0.206 OA
BRANCH  26  29
HETATM   29  N   UNL     1     -44.438  61.674 -57.319  1.00  0.00    -0.225 NA
HETATM   30  H   UNL     1     -44.078  62.599 -57.080  1.00  0.00     0.136 HD
HETATM   31  H   UNL     1     -44.334  60.990 -56.567  1.00  0.00     0.136 HD
ENDBRANCH  26  29
ENDBRANCH  23  26
ENDBRANCH  19  20
ENDBRANCH  18  19
ENDBRANCH  15  18
ENDBRANCH  13  14
ENDBRANCH  12  13
ENDBRANCH   9  12
BRANCH  10  32
HETATM   32  C   UNL     1     -42.348  55.646 -54.773  1.00  0.00     0.043 A 
HETATM   33  C   UNL     1     -40.965  55.823 -54.672  1.00  0.00     0.033 A 
HETATM   34  C   UNL     1     -40.147  54.700 -54.563  1.00  0.00     0.039 A 
HETATM   35  C   UNL     1     -40.695  53.411 -54.567  1.00  0.00     0.076 A 
HETATM   36  C   UNL     1     -42.081  53.251 -54.691  1.00  0.00     0.039 A 
HETATM   37  C   UNL     1     -42.918  54.371 -54.772  1.00  0.00     0.033 A 
BRANCH  35  38
HETATM   38  O   UNL     1     -39.764  52.404 -54.445  1.00  0.00    -0.311 OA
BRANCH  38  39
HETATM   39  C   UNL     1     -39.799  51.585 -53.347  1.00  0.00     0.076 A 
HETATM   40  C   UNL     1     -39.677  50.211 -53.555  1.00  0.00     0.037 A 
HETATM   41  C   UNL     1     -39.625  49.348 -52.461  1.00  0.00     0.003 A 
HETATM   42  C   UNL     1     -39.689  49.862 -51.165  1.00  0.00     0.000 A 
HETATM   43  C   UNL     1     -39.786  51.240 -50.960  1.00  0.00     0.003 A 
HETATM   44  C   UNL     1     -39.826  52.106 -52.052  1.00  0.00     0.037 A 
ENDBRANCH  38  39
ENDBRANCH  35  38
ENDBRANCH  10  32
BRANCH  11  45
HETATM   45  N   UNL     1     -43.888  56.294 -52.508  1.00  0.00    -0.384 N 
HETATM   46  H   UNL     1     -44.428  55.435 -52.519  1.00  0.00     0.157 HD
HETATM   47  H   UNL     1     -43.800  56.711 -51.587  1.00  0.00     0.157 HD
ENDBRANCH  11  45
TORSDOF 12
ENDMDL
MODEL 7
REMARK VINA RESULT:      -7.7      3.357      8.313
REMARK  12 active torsions:
REMARK  status: ('A' for Active; 'I' for Inactive)
REMARK    1  A    between atoms: C_9  and  S_10 
REMARK    2  A    between atoms: S_10  and  C_11 
REMARK    3  A    between atoms: C_11  and  C_12 
REMARK       I    between atoms: C_12  and  N_13 
REMARK    4  A    between atoms: N_13  and  C_14 
REMARK    5  A    between atoms: C_14  and  C_15 
REMARK    6  A    between atoms: C_15  and  C_16 
REMARK    7  A    between atoms: C_19  and  S_20 
REMARK    8  A    between atoms: S_20  and  N_21 
REMARK    9  A    between atoms: N_27  and  C_28 
REMARK   10  A    between atoms: C_31  and  O_32 
REMARK   11  A    between atoms: O_32  and  C_33 
REMARK   12  A    between atoms: C_41  and  N_42 
ROOT
HETATM    1  C   UNL     1     -40.263  53.331 -50.397  1.00  0.00     0.073 C 
HETATM    2  C   UNL     1     -40.606  53.880 -51.736  1.00  0.00     0.068 A 
HETATM    3  N   UNL     1     -40.213  53.217 -52.830  1.00  0.00    -0.177 NA
HETATM    4  N   UNL     1     -40.689  53.945 -53.848  1.00  0.00    -0.260 N 
HETATM    5  H   UNL     1     -40.526  53.628 -54.799  1.00  0.00     0.191 HD
HETATM    6  C   UNL     1     -41.356  55.063 -53.437  1.00  0.00     0.162 A 
HETATM    7  C   UNL     1     -41.337  55.064 -52.060  1.00  0.00     0.081 A 
HETATM    8  N   UNL     1     -41.916  55.976 -54.225  1.00  0.00    -0.204 NA
HETATM    9  C   UNL     1     -42.546  56.946 -53.526  1.00  0.00     0.177 A 
HETATM   10  N   UNL     1     -42.607  57.015 -52.163  1.00  0.00    -0.276 N 
HETATM   11  C   UNL     1     -41.959  56.113 -51.363  1.00  0.00     0.124 A 
ENDROOT
BRANCH   9  12
HETATM   12  S   UNL     1     -43.363  58.128 -54.599  1.00  0.00    -0.082 SA
BRANCH  12  13
HETATM   13  C   UNL     1     -41.940  59.216 -54.950  1.00  0.00     0.185 C 
BRANCH  13  14
HETATM   14  C   UNL     1     -42.290  60.323 -55.930  1.00  0.00     0.227 C 
HETATM   15  N   UNL     1     -41.811  60.075 -57.205  1.00  0.00    -0.360 N 
HETATM   16  H   UNL     1     -41.512  59.136 -57.437  1.00  0.00     0.162 HD
HETATM   17  O   UNL     1     -42.865  61.358 -55.613  1.00  0.00    -0.273 OA
BRANCH  15  18
HETATM   18  C   UNL     1     -42.130  60.946 -58.327  1.00  0.00     0.127 C 
BRANCH  18  19
HETATM   19  C   UNL     1     -41.753  60.299 -59.662  1.00  0.00     0.058 C 
BRANCH  19  20
HETATM   20  C   UNL     1     -42.525  59.027 -59.904  1.00  0.00    -0.057 A 
HETATM   21  C   UNL     1     -43.915  59.059 -60.088  1.00  0.00     0.009 A 
HETATM   22  C   UNL     1     -44.632  57.873 -60.265  1.00  0.00     0.025 A 
HETATM   23  C   UNL     1     -43.954  56.650 -60.261  1.00  0.00     0.074 A 
HETATM   24  C   UNL     1     -42.571  56.603 -60.073  1.00  0.00     0.025 A 
HETATM   25  C   UNL     1     -41.860  57.791 -59.898  1.00  0.00     0.009 A 
BRANCH  23  26
HETATM   26  S   UNL     1     -44.864  55.141 -60.414  1.00  0.00     0.239 S 
HETATM   27  O   UNL     1     -44.997  54.812 -61.815  1.00  0.00    -0.206 OA
HETATM   28  O   UNL     1     -44.380  54.195 -59.439  1.00  0.00    -0.206 OA
BRANCH  26  29
HETATM   29  N   UNL     1     -46.394  55.600 -59.898  1.00  0.00    -0.225 NA
HETATM   30  H   UNL     1     -46.341  55.973 -58.949  1.00  0.00     0.136 HD
HETATM   31  H   UNL     1     -46.800  56.254 -60.570  1.00  0.00     0.136 HD
ENDBRANCH  26  29
ENDBRANCH  23  26
ENDBRANCH  19  20
ENDBRANCH  18  19
ENDBRANCH  15  18
ENDBRANCH  13  14
ENDBRANCH  12  13
ENDBRANCH   9  12
BRANCH  10  32
HETATM   32  C   UNL     1     -43.423  58.022 -51.524  1.00  0.00     0.043 A 
HETATM   33  C   UNL     1     -42.847  59.267 -51.254  1.00  0.00     0.033 A 
HETATM   34  C   UNL     1     -43.648  60.284 -50.737  1.00  0.00     0.039 A 
HETATM   35  C   UNL     1     -45.007  60.063 -50.479  1.00  0.00     0.076 A 
HETATM   36  C   UNL     1     -45.563  58.804 -50.735  1.00  0.00     0.039 A 
HETATM   37  C   UNL     1     -44.777  57.782 -51.282  1.00  0.00     0.033 A 
BRANCH  35  38
HETATM   38  O   UNL     1     -45.669  61.162 -49.977  1.00  0.00    -0.311 OA
BRANCH  38  39
HETATM   39  C   UNL     1     -45.447  61.548 -48.681  1.00  0.00     0.076 A 
HETATM   40  C   UNL     1     -45.118  62.882 -48.445  1.00  0.00     0.037 A 
HETATM   41  C   UNL     1     -44.964  63.335 -47.135  1.00  0.00     0.003 A 
HETATM   42  C   UNL     1     -45.147  62.456 -46.068  1.00  0.00     0.000 A 
HETATM   43  C   UNL     1     -45.501  61.126 -46.307  1.00  0.00     0.003 A 
HETATM   44  C   UNL     1     -45.667  60.673 -47.615  1.00  0.00     0.037 A 
ENDBRANCH  38  39
ENDBRANCH  35  38
ENDBRANCH  10  32
BRANCH  11  45
HETATM   45  N   UNL     1     -41.916  56.218 -49.977  1.00  0.00    -0.384 N 
HETATM   46  H   UNL     1     -41.144  55.826 -49.447  1.00  0.00     0.157 HD
HETATM   47  H   UNL     1     -42.795  56.237 -49.469  1.00  0.00     0.157 HD
ENDBRANCH  11  45
TORSDOF 12
ENDMDL
MODEL 8
REMARK VINA RESULT:      -7.7      2.671      4.974
REMARK  12 active torsions:
REMARK  status: ('A' for Active; 'I' for Inactive)
REMARK    1  A    between atoms: C_9  and  S_10 
REMARK    2  A    between atoms: S_10  and  C_11 
REMARK    3  A    between atoms: C_11  and  C_12 
REMARK       I    between atoms: C_12  and  N_13 
REMARK    4  A    between atoms: N_13  and  C_14 
REMARK    5  A    between atoms: C_14  and  C_15 
REMARK    6  A    between atoms: C_15  and  C_16 
REMARK    7  A    between atoms: C_19  and  S_20 
REMARK    8  A    between atoms: S_20  and  N_21 
REMARK    9  A    between atoms: N_27  and  C_28 
REMARK   10  A    between atoms: C_31  and  O_32 
REMARK   11  A    between atoms: O_32  and  C_33 
REMARK   12  A    between atoms: C_41  and  N_42 
ROOT
HETATM    1  C   UNL     1     -45.926  60.494 -50.990  1.00  0.00     0.073 C 
HETATM    2  C   UNL     1     -45.673  60.064 -52.391  1.00  0.00     0.068 A 
HETATM    3  N   UNL     1     -46.144  60.813 -53.395  1.00  0.00    -0.177 NA
HETATM    4  N   UNL     1     -45.737  60.178 -54.502  1.00  0.00    -0.260 N 
HETATM    5  H   UNL     1     -45.967  60.573 -55.409  1.00  0.00     0.191 HD
HETATM    6  C   UNL     1     -45.037  59.037 -54.234  1.00  0.00     0.162 A 
HETATM    7  C   UNL     1     -44.961  58.919 -52.864  1.00  0.00     0.081 A 
HETATM    8  N   UNL     1     -44.529  58.199 -55.134  1.00  0.00    -0.204 NA
HETATM    9  C   UNL     1     -43.847  57.180 -54.564  1.00  0.00     0.177 A 
HETATM   10  N   UNL     1     -43.692  56.997 -53.220  1.00  0.00    -0.276 N 
HETATM   11  C   UNL     1     -44.287  57.821 -52.303  1.00  0.00     0.124 A 
ENDROOT
BRANCH   9  12
HETATM   12  S   UNL     1     -43.102  56.102 -55.787  1.00  0.00    -0.082 SA
BRANCH  12  13
HETATM   13  C   UNL     1     -42.772  57.339 -57.086  1.00  0.00     0.185 C 
BRANCH  13  14
HETATM   14  C   UNL     1     -43.087  56.813 -58.477  1.00  0.00     0.227 C 
HETATM   15  N   UNL     1     -44.291  56.131 -58.527  1.00  0.00    -0.360 N 
HETATM   16  H   UNL     1     -44.944  56.243 -57.762  1.00  0.00     0.162 HD
HETATM   17  O   UNL     1     -42.326  56.913 -59.432  1.00  0.00    -0.273 OA
BRANCH  15  18
HETATM   18  C   UNL     1     -44.845  55.644 -59.782  1.00  0.00     0.127 C 
BRANCH  18  19
HETATM   19  C   UNL     1     -46.253  56.192 -60.022  1.00  0.00     0.058 C 
BRANCH  19  20
HETATM   20  C   UNL     1     -46.418  57.577 -59.451  1.00  0.00    -0.057 A 
HETATM   21  C   UNL     1     -45.913  58.695 -60.129  1.00  0.00     0.009 A 
HETATM   22  C   UNL     1     -46.027  59.972 -59.573  1.00  0.00     0.025 A 
HETATM   23  C   UNL     1     -46.653  60.130 -58.334  1.00  0.00     0.074 A 
HETATM   24  C   UNL     1     -47.156  59.025 -57.644  1.00  0.00     0.025 A 
HETATM   25  C   UNL     1     -47.040  57.754 -58.204  1.00  0.00     0.009 A 
BRANCH  23  26
HETATM   26  S   UNL     1     -46.738  61.734 -57.591  1.00  0.00     0.239 S 
HETATM   27  O   UNL     1     -45.450  62.056 -57.020  1.00  0.00    -0.206 OA
HETATM   28  O   UNL     1     -47.439  62.630 -58.477  1.00  0.00    -0.206 OA
BRANCH  26  29
HETATM   29  N   UNL     1     -47.767  61.464 -56.292  1.00  0.00    -0.225 NA
HETATM   30  H   UNL     1     -48.004  62.353 -55.849  1.00  0.00     0.136 HD
HETATM   31  H   UNL     1     -48.582  60.935 -56.604  1.00  0.00     0.136 HD
ENDBRANCH  26  29
ENDBRANCH  23  26
ENDBRANCH  19  20
ENDBRANCH  18  19
ENDBRANCH  15  18
ENDBRANCH  13  14
ENDBRANCH  12  13
ENDBRANCH   9  12
BRANCH  10  32
HETATM   32  C   UNL     1     -42.829  55.948 -52.726  1.00  0.00     0.043 A 
HETATM   33  C   UNL     1     -41.476  56.239 -52.536  1.00  0.00     0.033 A 
HETATM   34  C   UNL     1     -40.651  55.274 -51.960  1.00  0.00     0.039 A 
HETATM   35  C   UNL     1     -41.164  54.025 -51.588  1.00  0.00     0.076 A 
HETATM   36  C   UNL     1     -42.518  53.741 -51.805  1.00  0.00     0.039 A 
HETATM   37  C   UNL     1     -43.364  54.712 -52.355  1.00  0.00     0.033 A 
BRANCH  35  38
HETATM   38  O   UNL     1     -40.232  53.180 -51.026  1.00  0.00    -0.311 OA
BRANCH  38  39
HETATM   39  C   UNL     1     -39.952  51.985 -51.637  1.00  0.00     0.076 A 
HETATM   40  C   UNL     1     -39.907  50.842 -50.840  1.00  0.00     0.037 A 
HETATM   41  C   UNL     1     -39.707  49.595 -51.432  1.00  0.00     0.003 A 
HETATM   42  C   UNL     1     -39.560  49.496 -52.815  1.00  0.00     0.000 A 
HETATM   43  C   UNL     1     -39.630  50.641 -53.612  1.00  0.00     0.003 A 
HETATM   44  C   UNL     1     -39.842  51.888 -53.025  1.00  0.00     0.037 A 
ENDBRANCH  38  39
ENDBRANCH  35  38
ENDBRANCH  10  32
BRANCH  11  45
HETATM   45  N   UNL     1     -44.234  57.599 -50.931  1.00  0.00    -0.384 N 
HETATM   46  H   UNL     1     -43.585  56.926 -50.536  1.00  0.00     0.157 HD
HETATM   47  H   UNL     1     -45.087  57.713 -50.392  1.00  0.00     0.157 HD
ENDBRANCH  11  45
TORSDOF 12
ENDMDL
MODEL 9
REMARK VINA RESULT:      -7.6      2.890      6.003
REMARK  12 active torsions:
REMARK  status: ('A' for Active; 'I' for Inactive)
REMARK    1  A    between atoms: C_9  and  S_10 
REMARK    2  A    between atoms: S_10  and  C_11 
REMARK    3  A    between atoms: C_11  and  C_12 
REMARK       I    between atoms: C_12  and  N_13 
REMARK    4  A    between atoms: N_13  and  C_14 
REMARK    5  A    between atoms: C_14  and  C_15 
REMARK    6  A    between atoms: C_15  and  C_16 
REMARK    7  A    between atoms: C_19  and  S_20 
REMARK    8  A    between atoms: S_20  and  N_21 
REMARK    9  A    between atoms: N_27  and  C_28 
REMARK   10  A    between atoms: C_31  and  O_32 
REMARK   11  A    between atoms: O_32  and  C_33 
REMARK   12  A    between atoms: C_41  and  N_42 
ROOT
HETATM    1  C   UNL     1     -46.932  62.783 -48.582  1.00  0.00     0.073 C 
HETATM    2  C   UNL     1     -46.907  62.602 -50.058  1.00  0.00     0.068 A 
HETATM    3  N   UNL     1     -47.581  63.463 -50.830  1.00  0.00    -0.177 NA
HETATM    4  N   UNL     1     -47.342  63.045 -52.080  1.00  0.00    -0.260 N 
HETATM    5  H   UNL     1     -47.746  63.561 -52.856  1.00  0.00     0.191 HD
HETATM    6  C   UNL     1     -46.553  61.933 -52.128  1.00  0.00     0.162 A 
HETATM    7  C   UNL     1     -46.233  61.605 -50.829  1.00  0.00     0.081 A 
HETATM    8  N   UNL     1     -46.169  61.290 -53.227  1.00  0.00    -0.204 NA
HETATM    9  C   UNL     1     -45.350  60.249 -52.958  1.00  0.00     0.177 A 
HETATM   10  N   UNL     1     -44.955  59.867 -51.708  1.00  0.00    -0.276 N 
HETATM   11  C   UNL     1     -45.420  60.487 -50.580  1.00  0.00     0.124 A 
ENDROOT
BRANCH   9  12
HETATM   12  S   UNL     1     -44.777  59.439 -54.451  1.00  0.00    -0.082 SA
BRANCH  12  13
HETATM   13  C   UNL     1     -43.916  60.851 -55.222  1.00  0.00     0.185 C 
BRANCH  13  14
HETATM   14  C   UNL     1     -42.626  60.434 -55.909  1.00  0.00     0.227 C 
HETATM   15  N   UNL     1     -42.643  60.682 -57.270  1.00  0.00    -0.360 N 
HETATM   16  H   UNL     1     -43.350  61.305 -57.640  1.00  0.00     0.162 HD
HETATM   17  O   UNL     1     -41.701  59.870 -55.336  1.00  0.00    -0.273 OA
BRANCH  15  18
HETATM   18  C   UNL     1     -41.470  60.469 -58.105  1.00  0.00     0.127 C 
BRANCH  18  19
HETATM   19  C   UNL     1     -41.850  60.329 -59.580  1.00  0.00     0.058 C 
BRANCH  19  20
HETATM   20  C   UNL     1     -42.592  59.044 -59.847  1.00  0.00    -0.057 A 
HETATM   21  C   UNL     1     -43.965  59.057 -60.130  1.00  0.00     0.009 A 
HETATM   22  C   UNL     1     -44.658  57.860 -60.329  1.00  0.00     0.025 A 
HETATM   23  C   UNL     1     -43.971  56.645 -60.250  1.00  0.00     0.074 A 
HETATM   24  C   UNL     1     -42.605  56.617 -59.963  1.00  0.00     0.025 A 
HETATM   25  C   UNL     1     -41.919  57.815 -59.765  1.00  0.00     0.009 A 
BRANCH  23  26
HETATM   26  S   UNL     1     -44.855  55.123 -60.432  1.00  0.00     0.239 S 
HETATM   27  O   UNL     1     -44.950  54.800 -61.837  1.00  0.00    -0.206 OA
HETATM   28  O   UNL     1     -44.381  54.179 -59.449  1.00  0.00    -0.206 OA
BRANCH  26  29
HETATM   29  N   UNL     1     -46.404  55.557 -59.950  1.00  0.00    -0.225 NA
HETATM   30  H   UNL     1     -46.619  55.128 -59.049  1.00  0.00     0.136 HD
HETATM   31  H   UNL     1     -46.489  56.575 -59.946  1.00  0.00     0.136 HD
ENDBRANCH  26  29
ENDBRANCH  23  26
ENDBRANCH  19  20
ENDBRANCH  18  19
ENDBRANCH  15  18
ENDBRANCH  13  14
ENDBRANCH  12  13
ENDBRANCH   9  12
BRANCH  10  32
HETATM   32  C   UNL     1     -43.969  58.822 -51.547  1.00  0.00     0.043 A 
HETATM   33  C   UNL     1     -44.412  57.497 -51.496  1.00  0.00     0.033 A 
HETATM   34  C   UNL     1     -43.469  56.471 -51.449  1.00  0.00     0.039 A 
HETATM   35  C   UNL     1     -42.098  56.759 -51.442  1.00  0.00     0.076 A 
HETATM   36  C   UNL     1     -41.672  58.092 -51.472  1.00  0.00     0.039 A 
HETATM   37  C   UNL     1     -42.608  59.132 -51.548  1.00  0.00     0.033 A 
BRANCH  35  38
HETATM   38  O   UNL     1     -41.291  55.644 -51.401  1.00  0.00    -0.311 OA
BRANCH  38  39
HETATM   39  C   UNL     1     -41.089  54.917 -52.546  1.00  0.00     0.076 A 
HETATM   40  C   UNL     1     -40.717  55.607 -53.699  1.00  0.00     0.037 A 
HETATM   41  C   UNL     1     -40.423  54.899 -54.863  1.00  0.00     0.003 A 
HETATM   42  C   UNL     1     -40.494  53.506 -54.868  1.00  0.00     0.000 A 
HETATM   43  C   UNL     1     -40.843  52.817 -53.705  1.00  0.00     0.003 A 
HETATM   44  C   UNL     1     -41.126  53.521 -52.535  1.00  0.00     0.037 A 
ENDBRANCH  38  39
ENDBRANCH  35  38
ENDBRANCH  10  32
BRANCH  11  45
HETATM   45  N   UNL     1     -45.118  60.055 -49.293  1.00  0.00    -0.384 N 
HETATM   46  H   UNL     1     -45.712  59.386 -48.814  1.00  0.00     0.157 HD
HETATM   47  H   UNL     1     -44.638  60.697 -48.670  1.00  0.00     0.157 HD
ENDBRANCH  11  45
TORSDOF 12
ENDMDL
MODEL 10
REMARK VINA RESULT:      -7.6      2.292      4.141
REMARK  12 active torsions:
REMARK  status: ('A' for Active; 'I' for Inactive)
REMARK    1  A    between atoms: C_9  and  S_10 
REMARK    2  A    between atoms: S_10  and  C_11 
REMARK    3  A    between atoms: C_11  and  C_12 
REMARK       I    between atoms: C_12  and  N_13 
REMARK    4  A    between atoms: N_13  and  C_14 
REMARK    5  A    between atoms: C_14  and  C_15 
REMARK    6  A    between atoms: C_15  and  C_16 
REMARK    7  A    between atoms: C_19  and  S_20 
REMARK    8  A    between atoms: S_20  and  N_21 
REMARK    9  A    between atoms: N_27  and  C_28 
REMARK   10  A    between atoms: C_31  and  O_32 
REMARK   11  A    between atoms: O_32  and  C_33 
REMARK   12  A    between atoms: C_41  and  N_42 
ROOT
HETATM    1  C   UNL     1     -45.113  55.592 -60.838  1.00  0.00     0.073 C 
HETATM    2  C   UNL     1     -45.187  56.852 -60.051  1.00  0.00     0.068 A 
HETATM    3  N   UNL     1     -45.849  57.898 -60.561  1.00  0.00    -0.177 NA
HETATM    4  N   UNL     1     -45.749  58.844 -59.619  1.00  0.00    -0.260 N 
HETATM    5  H   UNL     1     -46.195  59.743 -59.776  1.00  0.00     0.191 HD
HETATM    6  C   UNL     1     -45.028  58.441 -58.532  1.00  0.00     0.162 A 
HETATM    7  C   UNL     1     -44.642  57.139 -58.762  1.00  0.00     0.081 A 
HETATM    8  N   UNL     1     -44.753  59.174 -57.457  1.00  0.00    -0.204 NA
HETATM    9  C   UNL     1     -44.058  58.484 -56.525  1.00  0.00     0.177 A 
HETATM   10  N   UNL     1     -43.658  57.184 -56.651  1.00  0.00    -0.276 N 
HETATM   11  C   UNL     1     -43.878  56.466 -57.794  1.00  0.00     0.124 A 
ENDROOT
BRANCH   9  12
HETATM   12  S   UNL     1     -43.760  59.457 -55.050  1.00  0.00    -0.082 SA
BRANCH  12  13
HETATM   13  C   UNL     1     -44.730  60.938 -55.492  1.00  0.00     0.185 C 
BRANCH  13  14
HETATM   14  C   UNL     1     -45.408  61.565 -54.285  1.00  0.00     0.227 C 
HETATM   15  N   UNL     1     -46.151  60.650 -53.558  1.00  0.00    -0.360 N 
HETATM   16  H   UNL     1     -45.996  59.663 -53.718  1.00  0.00     0.162 HD
HETATM   17  O   UNL     1     -45.367  62.761 -54.024  1.00  0.00    -0.273 OA
BRANCH  15  18
HETATM   18  C   UNL     1     -46.789  61.007 -52.299  1.00  0.00     0.127 C 
BRANCH  18  19
HETATM   19  C   UNL     1     -46.393  60.043 -51.178  1.00  0.00     0.058 C 
BRANCH  19  20
HETATM   20  C   UNL     1     -44.905  59.804 -51.146  1.00  0.00    -0.057 A 
HETATM   21  C   UNL     1     -44.018  60.858 -50.886  1.00  0.00     0.009 A 
HETATM   22  C   UNL     1     -42.637  60.641 -50.904  1.00  0.00     0.025 A 
HETATM   23  C   UNL     1     -42.144  59.362 -51.179  1.00  0.00     0.074 A 
HETATM   24  C   UNL     1     -43.016  58.305 -51.445  1.00  0.00     0.025 A 
HETATM   25  C   UNL     1     -44.393  58.527 -51.425  1.00  0.00     0.009 A 
BRANCH  23  26
HETATM   26  S   UNL     1     -40.397  59.096 -51.273  1.00  0.00     0.239 S 
HETATM   27  O   UNL     1     -39.989  59.142 -52.658  1.00  0.00    -0.206 OA
HETATM   28  O   UNL     1     -39.744  59.871 -50.246  1.00  0.00    -0.206 OA
BRANCH  26  29
HETATM   29  N   UNL     1     -40.262  57.491 -50.802  1.00  0.00    -0.225 NA
HETATM   30  H   UNL     1     -39.297  57.289 -50.536  1.00  0.00     0.136 HD
HETATM   31  H   UNL     1     -40.937  57.292 -50.062  1.00  0.00     0.136 HD
ENDBRANCH  26  29
ENDBRANCH  23  26
ENDBRANCH  19  20
ENDBRANCH  18  19
ENDBRANCH  15  18
ENDBRANCH  13  14
ENDBRANCH  12  13
ENDBRANCH   9  12
BRANCH  10  32
HETATM   32  C   UNL     1     -43.038  56.506 -55.535  1.00  0.00     0.043 A 
HETATM   33  C   UNL     1     -41.665  56.676 -55.337  1.00  0.00     0.033 A 
HETATM   34  C   UNL     1     -41.071  56.118 -54.206  1.00  0.00     0.039 A 
HETATM   35  C   UNL     1     -41.832  55.386 -53.286  1.00  0.00     0.076 A 
HETATM   36  C   UNL     1     -43.202  55.206 -53.510  1.00  0.00     0.039 A 
HETATM   37  C   UNL     1     -43.818  55.786 -54.627  1.00  0.00     0.033 A 
BRANCH  35  38
HETATM   38  O   UNL     1     -41.109  54.903 -52.218  1.00  0.00    -0.311 OA
BRANCH  38  39
HETATM   39  C   UNL     1     -40.553  53.652 -52.291  1.00  0.00     0.076 A 
HETATM   40  C   UNL     1     -40.303  52.979 -51.095  1.00  0.00     0.037 A 
HETATM   41  C   UNL     1     -39.815  51.674 -51.126  1.00  0.00     0.003 A 
HETATM   42  C   UNL     1     -39.586  51.044 -52.350  1.00  0.00     0.000 A 
HETATM   43  C   UNL     1     -39.861  51.713 -53.545  1.00  0.00     0.003 A 
HETATM   44  C   UNL     1     -40.361  53.014 -53.517  1.00  0.00     0.037 A 
ENDBRANCH  38  39
ENDBRANCH  35  38
ENDBRANCH  10  32
BRANCH  11  45
HETATM   45  N   UNL     1     -43.392  55.177 -57.990  1.00  0.00    -0.384 N 
HETATM   46  H   UNL     1     -42.705  54.777 -57.359  1.00  0.00     0.157 HD
HETATM   47  H   UNL     1     -43.329  54.827 -58.941  1.00  0.00     0.157 HD
ENDBRANCH  11  45
TORSDOF 12
ENDMDL
