MODEL 1
REMARK VINA RESULT:      -8.3      0.000      0.000
REMARK  3 active torsions:
REMARK  status: ('A' for Active; 'I' for Inactive)
REMARK    1  A    between atoms: C_5  and  N_6 
REMARK    2  A    between atoms: C_10  and  C_11 
REMARK    3  A    between atoms: C_21  and  O_22 
ROOT
HETATM    1  N   UNL     1     -42.571  58.413 -51.453  1.00  0.00    -0.231 N 
HETATM    2  N   UNL     1     -43.580  57.656 -50.874  1.00  0.00    -0.257 N 
HETATM    3  C   UNL     1     -43.360  56.333 -51.215  1.00  0.00     0.275 C 
HETATM    4  O   UNL     1     -43.886  55.350 -50.723  1.00  0.00    -0.266 OA
HETATM    5  C   UNL     1     -42.300  56.313 -52.267  1.00  0.00     0.087 C 
HETATM    6  C   UNL     1     -41.872  57.589 -52.314  1.00  0.00     0.178 C 
HETATM    7  H   UNL     1     -43.983  57.899 -49.981  1.00  0.00     0.191 HD
ENDROOT
BRANCH   5   8
HETATM    8  C   UNL     1     -41.809  55.129 -52.911  1.00  0.00     0.035 C 
HETATM    9  C   UNL     1     -41.083  54.164 -52.335  1.00  0.00    -0.005 A 
HETATM   10  C   UNL     1     -40.639  52.903 -52.913  1.00  0.00     0.004 A 
HETATM   11  C   UNL     1     -40.552  54.121 -50.944  1.00  0.00     0.129 A 
HETATM   12  C   UNL     1     -39.957  52.261 -51.866  1.00  0.00     0.067 A 
HETATM   13  C   UNL     1     -40.799  52.307 -54.152  1.00  0.00     0.014 A 
HETATM   14  C   UNL     1     -39.416  51.001 -52.045  1.00  0.00     0.032 A 
HETATM   15  N   UNL     1     -39.911  53.019 -50.672  1.00  0.00    -0.259 NA
HETATM   16  C   UNL     1     -39.570  50.385 -53.289  1.00  0.00     0.002 A 
HETATM   17  C   UNL     1     -40.255  51.032 -54.333  1.00  0.00     0.001 A 
ENDBRANCH   5   8
BRANCH   6  18
HETATM   18  O   UNL     1     -40.810  58.045 -53.050  1.00  0.00    -0.344 OA
HETATM   19  H   UNL     1     -40.153  58.429 -52.446  1.00  0.00     0.219 HD
ENDBRANCH   6  18
BRANCH   1  20
HETATM   20  C   UNL     1     -42.740  59.820 -51.473  1.00  0.00     0.059 A 
HETATM   21  C   UNL     1     -43.182  60.479 -52.634  1.00  0.00     0.032 A 
HETATM   22  C   UNL     1     -43.401  61.863 -52.656  1.00  0.00     0.009 A 
HETATM   23  C   UNL     1     -43.174  62.634 -51.514  1.00  0.00    -0.062 A 
HETATM   24  C   UNL     1     -43.445  64.108 -51.507  1.00  0.00     0.048 C 
HETATM   25  C   UNL     1     -42.731  61.998 -50.353  1.00  0.00     0.009 A 
HETATM   26  C   UNL     1     -42.519  60.613 -50.337  1.00  0.00     0.032 A 
ENDBRANCH   1  20
TORSDOF 3
ENDMDL
MODEL 2
REMARK VINA RESULT:      -8.1      1.255      1.973
REMARK  3 active torsions:
REMARK  status: ('A' for Active; 'I' for Inactive)
REMARK    1  A    between atoms: C_5  and  N_6 
REMARK    2  A    between atoms: C_10  and  C_11 
REMARK    3  A    between atoms: C_21  and  O_22 
ROOT
HETATM    1  N   UNL     1     -43.000  58.856 -51.052  1.00  0.00    -0.231 N 
HETATM    2  N   UNL     1     -44.187  58.144 -50.956  1.00  0.00    -0.257 N 
HETATM    3  C   UNL     1     -43.865  56.800 -50.881  1.00  0.00     0.275 C 
HETATM    4  O   UNL     1     -44.604  55.884 -50.565  1.00  0.00    -0.266 OA
HETATM    5  C   UNL     1     -42.412  56.671 -51.201  1.00  0.00     0.087 C 
HETATM    6  C   UNL     1     -41.981  57.945 -51.253  1.00  0.00     0.178 C 
HETATM    7  H   UNL     1     -44.990  58.510 -50.468  1.00  0.00     0.191 HD
ENDROOT
BRANCH   5   8
HETATM    8  C   UNL     1     -41.696  55.429 -51.262  1.00  0.00     0.035 C 
HETATM    9  C   UNL     1     -41.637  54.605 -52.314  1.00  0.00    -0.005 A 
HETATM   10  C   UNL     1     -40.854  53.385 -52.461  1.00  0.00     0.004 A 
HETATM   11  C   UNL     1     -42.346  54.729 -53.618  1.00  0.00     0.129 A 
HETATM   12  C   UNL     1     -41.134  52.948 -53.768  1.00  0.00     0.067 A 
HETATM   13  C   UNL     1     -39.971  52.707 -51.640  1.00  0.00     0.014 A 
HETATM   14  C   UNL     1     -40.529  51.814 -54.276  1.00  0.00     0.032 A 
HETATM   15  N   UNL     1     -42.048  53.779 -54.459  1.00  0.00    -0.259 NA
HETATM   16  C   UNL     1     -39.633  51.118 -53.460  1.00  0.00     0.002 A 
HETATM   17  C   UNL     1     -39.357  51.561 -52.154  1.00  0.00     0.001 A 
ENDBRANCH   5   8
BRANCH   6  18
HETATM   18  O   UNL     1     -40.675  58.338 -51.396  1.00  0.00    -0.344 OA
HETATM   19  H   UNL     1     -40.255  57.786 -52.076  1.00  0.00     0.219 HD
ENDBRANCH   6  18
BRANCH   1  20
HETATM   20  C   UNL     1     -43.086  60.223 -51.417  1.00  0.00     0.059 A 
HETATM   21  C   UNL     1     -43.080  61.234 -50.441  1.00  0.00     0.032 A 
HETATM   22  C   UNL     1     -43.113  62.592 -50.788  1.00  0.00     0.009 A 
HETATM   23  C   UNL     1     -43.164  62.979 -52.129  1.00  0.00    -0.062 A 
HETATM   24  C   UNL     1     -43.156  64.426 -52.519  1.00  0.00     0.048 C 
HETATM   25  C   UNL     1     -43.175  61.988 -53.112  1.00  0.00     0.009 A 
HETATM   26  C   UNL     1     -43.136  60.633 -52.758  1.00  0.00     0.032 A 
ENDBRANCH   1  20
TORSDOF 3
ENDMDL
MODEL 3
REMARK VINA RESULT:      -8.0     16.406     18.533
REMARK  3 active torsions:
REMARK  status: ('A' for Active; 'I' for Inactive)
REMARK    1  A    between atoms: C_5  and  N_6 
REMARK    2  A    between atoms: C_10  and  C_11 
REMARK    3  A    between atoms: C_21  and  O_22 
ROOT
HETATM    1  N   UNL     1     -35.092  41.335 -53.925  1.00  0.00    -0.231 N 
HETATM    2  N   UNL     1     -35.073  42.460 -53.113  1.00  0.00    -0.257 N 
HETATM    3  C   UNL     1     -34.814  42.039 -51.820  1.00  0.00     0.275 C 
HETATM    4  O   UNL     1     -34.499  42.734 -50.870  1.00  0.00    -0.266 OA
HETATM    5  C   UNL     1     -34.931  40.550 -51.803  1.00  0.00     0.087 C 
HETATM    6  C   UNL     1     -35.062  40.225 -53.103  1.00  0.00     0.178 C 
HETATM    7  H   UNL     1     -34.733  43.350 -53.444  1.00  0.00     0.191 HD
ENDROOT
BRANCH   5   8
HETATM    8  C   UNL     1     -34.766  39.730 -50.637  1.00  0.00     0.035 C 
HETATM    9  C   UNL     1     -33.626  39.540 -49.963  1.00  0.00    -0.005 A 
HETATM   10  C   UNL     1     -33.424  38.797 -48.727  1.00  0.00     0.004 A 
HETATM   11  C   UNL     1     -32.268  40.052 -50.294  1.00  0.00     0.129 A 
HETATM   12  C   UNL     1     -32.056  38.956 -48.446  1.00  0.00     0.067 A 
HETATM   13  C   UNL     1     -34.264  38.090 -47.884  1.00  0.00     0.014 A 
HETATM   14  C   UNL     1     -31.502  38.403 -47.306  1.00  0.00     0.032 A 
HETATM   15  N   UNL     1     -31.365  39.723 -49.414  1.00  0.00    -0.259 NA
HETATM   16  C   UNL     1     -32.337  37.687 -46.444  1.00  0.00     0.002 A 
HETATM   17  C   UNL     1     -33.705  37.532 -46.730  1.00  0.00     0.001 A 
ENDBRANCH   5   8
BRANCH   6  18
HETATM   18  O   UNL     1     -35.078  38.950 -53.606  1.00  0.00    -0.344 OA
HETATM   19  H   UNL     1     -35.974  38.751 -53.925  1.00  0.00     0.219 HD
ENDBRANCH   6  18
BRANCH   1  20
HETATM   20  C   UNL     1     -35.609  41.484 -55.236  1.00  0.00     0.059 A 
HETATM   21  C   UNL     1     -36.967  41.776 -55.450  1.00  0.00     0.032 A 
HETATM   22  C   UNL     1     -37.483  41.976 -56.738  1.00  0.00     0.009 A 
HETATM   23  C   UNL     1     -36.653  41.879 -57.856  1.00  0.00    -0.062 A 
HETATM   24  C   UNL     1     -37.179  42.133 -59.237  1.00  0.00     0.048 C 
HETATM   25  C   UNL     1     -35.302  41.586 -57.664  1.00  0.00     0.009 A 
HETATM   26  C   UNL     1     -34.792  41.392 -56.374  1.00  0.00     0.032 A 
ENDBRANCH   1  20
TORSDOF 3
ENDMDL
MODEL 4
REMARK VINA RESULT:      -8.0      4.516      8.635
REMARK  3 active torsions:
REMARK  status: ('A' for Active; 'I' for Inactive)
REMARK    1  A    between atoms: C_5  and  N_6 
REMARK    2  A    between atoms: C_10  and  C_11 
REMARK    3  A    between atoms: C_21  and  O_22 
ROOT
HETATM    1  N   UNL     1     -41.625  53.936 -54.117  1.00  0.00    -0.231 N 
HETATM    2  N   UNL     1     -42.852  54.370 -53.635  1.00  0.00    -0.257 N 
HETATM    3  C   UNL     1     -43.202  55.507 -54.342  1.00  0.00     0.275 C 
HETATM    4  O   UNL     1     -44.294  56.046 -54.371  1.00  0.00    -0.266 OA
HETATM    5  C   UNL     1     -42.004  55.931 -55.127  1.00  0.00     0.087 C 
HETATM    6  C   UNL     1     -41.134  54.919 -54.955  1.00  0.00     0.178 C 
HETATM    7  H   UNL     1     -43.557  53.724 -53.314  1.00  0.00     0.191 HD
ENDROOT
BRANCH   5   8
HETATM    8  C   UNL     1     -41.948  57.092 -55.968  1.00  0.00     0.035 C 
HETATM    9  C   UNL     1     -42.406  57.179 -57.222  1.00  0.00    -0.005 A 
HETATM   10  C   UNL     1     -42.458  58.352 -58.084  1.00  0.00     0.004 A 
HETATM   11  C   UNL     1     -42.999  56.099 -58.059  1.00  0.00     0.129 A 
HETATM   12  C   UNL     1     -43.067  57.890 -59.264  1.00  0.00     0.067 A 
HETATM   13  C   UNL     1     -42.087  59.676 -57.926  1.00  0.00     0.014 A 
HETATM   14  C   UNL     1     -43.313  58.754 -60.314  1.00  0.00     0.032 A 
HETATM   15  N   UNL     1     -43.389  56.512 -59.232  1.00  0.00    -0.259 NA
HETATM   16  C   UNL     1     -42.946  60.094 -60.170  1.00  0.00     0.002 A 
HETATM   17  C   UNL     1     -42.338  60.551 -58.987  1.00  0.00     0.001 A 
ENDBRANCH   5   8
BRANCH   6  18
HETATM   18  O   UNL     1     -39.925  54.793 -55.590  1.00  0.00    -0.344 OA
HETATM   19  H   UNL     1     -39.216  54.876 -54.931  1.00  0.00     0.219 HD
ENDBRANCH   6  18
BRANCH   1  20
HETATM   20  C   UNL     1     -40.937  52.954 -53.363  1.00  0.00     0.059 A 
HETATM   21  C   UNL     1     -40.742  53.109 -51.979  1.00  0.00     0.032 A 
HETATM   22  C   UNL     1     -40.107  52.123 -51.211  1.00  0.00     0.009 A 
HETATM   23  C   UNL     1     -39.637  50.953 -51.809  1.00  0.00    -0.062 A 
HETATM   24  C   UNL     1     -38.995  49.870 -50.995  1.00  0.00     0.048 C 
HETATM   25  C   UNL     1     -39.818  50.783 -53.182  1.00  0.00     0.009 A 
HETATM   26  C   UNL     1     -40.458  51.769 -53.944  1.00  0.00     0.032 A 
ENDBRANCH   1  20
TORSDOF 3
ENDMDL
MODEL 5
REMARK VINA RESULT:      -7.9      2.219      8.495
REMARK  3 active torsions:
REMARK  status: ('A' for Active; 'I' for Inactive)
REMARK    1  A    between atoms: C_5  and  N_6 
REMARK    2  A    between atoms: C_10  and  C_11 
REMARK    3  A    between atoms: C_21  and  O_22 
ROOT
HETATM    1  N   UNL     1     -41.535  54.710 -51.742  1.00  0.00    -0.231 N 
HETATM    2  N   UNL     1     -40.656  55.619 -51.169  1.00  0.00    -0.257 N 
HETATM    3  C   UNL     1     -41.373  56.765 -50.870  1.00  0.00     0.275 C 
HETATM    4  O   UNL     1     -41.017  57.691 -50.164  1.00  0.00    -0.266 OA
HETATM    5  C   UNL     1     -42.709  56.639 -51.527  1.00  0.00     0.087 C 
HETATM    6  C   UNL     1     -42.721  55.375 -51.988  1.00  0.00     0.178 C 
HETATM    7  H   UNL     1     -39.890  55.323 -50.584  1.00  0.00     0.191 HD
ENDROOT
BRANCH   5   8
HETATM    8  C   UNL     1     -43.738  57.639 -51.484  1.00  0.00     0.035 C 
HETATM    9  C   UNL     1     -43.897  58.642 -52.355  1.00  0.00    -0.005 A 
HETATM   10  C   UNL     1     -44.971  59.624 -52.411  1.00  0.00     0.004 A 
HETATM   11  C   UNL     1     -43.023  59.008 -53.504  1.00  0.00     0.129 A 
HETATM   12  C   UNL     1     -44.666  60.409 -53.537  1.00  0.00     0.067 A 
HETATM   13  C   UNL     1     -46.109  59.846 -51.656  1.00  0.00     0.014 A 
HETATM   14  C   UNL     1     -45.501  61.439 -53.925  1.00  0.00     0.032 A 
HETATM   15  N   UNL     1     -43.472  60.020 -54.190  1.00  0.00    -0.259 NA
HETATM   16  C   UNL     1     -46.655  61.676 -53.173  1.00  0.00     0.002 A 
HETATM   17  C   UNL     1     -46.956  60.887 -52.049  1.00  0.00     0.001 A 
ENDBRANCH   5   8
BRANCH   6  18
HETATM   18  O   UNL     1     -43.797  54.748 -52.562  1.00  0.00    -0.344 OA
HETATM   19  H   UNL     1     -44.060  54.000 -52.000  1.00  0.00     0.219 HD
ENDBRANCH   6  18
BRANCH   1  20
HETATM   20  C   UNL     1     -40.977  53.575 -52.381  1.00  0.00     0.059 A 
HETATM   21  C   UNL     1     -40.215  52.640 -51.658  1.00  0.00     0.032 A 
HETATM   22  C   UNL     1     -39.698  51.486 -52.264  1.00  0.00     0.009 A 
HETATM   23  C   UNL     1     -39.921  51.239 -53.620  1.00  0.00    -0.062 A 
HETATM   24  C   UNL     1     -39.414  49.989 -54.274  1.00  0.00     0.048 C 
HETATM   25  C   UNL     1     -40.672  52.158 -54.354  1.00  0.00     0.009 A 
HETATM   26  C   UNL     1     -41.190  53.306 -53.741  1.00  0.00     0.032 A 
ENDBRANCH   1  20
TORSDOF 3
ENDMDL
MODEL 6
REMARK VINA RESULT:      -7.9      1.824      8.540
REMARK  3 active torsions:
REMARK  status: ('A' for Active; 'I' for Inactive)
REMARK    1  A    between atoms: C_5  and  N_6 
REMARK    2  A    between atoms: C_10  and  C_11 
REMARK    3  A    between atoms: C_21  and  O_22 
ROOT
HETATM    1  N   UNL     1     -41.104  55.159 -52.937  1.00  0.00    -0.231 N 
HETATM    2  N   UNL     1     -40.854  56.004 -54.010  1.00  0.00    -0.257 N 
HETATM    3  C   UNL     1     -41.597  57.156 -53.818  1.00  0.00     0.275 C 
HETATM    4  O   UNL     1     -41.479  58.213 -54.412  1.00  0.00    -0.266 OA
HETATM    5  C   UNL     1     -42.544  56.894 -52.694  1.00  0.00     0.087 C 
HETATM    6  C   UNL     1     -42.152  55.699 -52.215  1.00  0.00     0.178 C 
HETATM    7  H   UNL     1     -39.952  56.041 -54.460  1.00  0.00     0.191 HD
ENDROOT
BRANCH   5   8
HETATM    8  C   UNL     1     -43.514  57.833 -52.206  1.00  0.00     0.035 C 
HETATM    9  C   UNL     1     -43.259  58.908 -51.451  1.00  0.00    -0.005 A 
HETATM   10  C   UNL     1     -44.188  59.940 -51.009  1.00  0.00     0.004 A 
HETATM   11  C   UNL     1     -41.954  59.339 -50.879  1.00  0.00     0.129 A 
HETATM   12  C   UNL     1     -43.387  60.842 -50.288  1.00  0.00     0.067 A 
HETATM   13  C   UNL     1     -45.542  60.157 -51.198  1.00  0.00     0.014 A 
HETATM   14  C   UNL     1     -43.935  61.985 -49.737  1.00  0.00     0.032 A 
HETATM   15  N   UNL     1     -42.026  60.459 -50.216  1.00  0.00    -0.259 NA
HETATM   16  C   UNL     1     -45.301  62.220 -49.920  1.00  0.00     0.002 A 
HETATM   17  C   UNL     1     -46.096  61.314 -50.643  1.00  0.00     0.001 A 
ENDBRANCH   5   8
BRANCH   6  18
HETATM   18  O   UNL     1     -42.645  55.091 -51.090  1.00  0.00    -0.344 OA
HETATM   19  H   UNL     1     -41.982  55.156 -50.383  1.00  0.00     0.219 HD
ENDBRANCH   6  18
BRANCH   1  20
HETATM   20  C   UNL     1     -40.673  53.814 -53.051  1.00  0.00     0.059 A 
HETATM   21  C   UNL     1     -40.061  53.157 -51.969  1.00  0.00     0.032 A 
HETATM   22  C   UNL     1     -39.674  51.812 -52.049  1.00  0.00     0.009 A 
HETATM   23  C   UNL     1     -39.881  51.085 -53.223  1.00  0.00    -0.062 A 
HETATM   24  C   UNL     1     -39.514  49.634 -53.311  1.00  0.00     0.048 C 
HETATM   25  C   UNL     1     -40.484  51.722 -54.308  1.00  0.00     0.009 A 
HETATM   26  C   UNL     1     -40.873  53.064 -54.220  1.00  0.00     0.032 A 
ENDBRANCH   1  20
TORSDOF 3
ENDMDL
MODEL 7
REMARK VINA RESULT:      -7.9      1.864      8.425
REMARK  3 active torsions:
REMARK  status: ('A' for Active; 'I' for Inactive)
REMARK    1  A    between atoms: C_5  and  N_6 
REMARK    2  A    between atoms: C_10  and  C_11 
REMARK    3  A    between atoms: C_21  and  O_22 
ROOT
HETATM    1  N   UNL     1     -41.387  54.550 -51.916  1.00  0.00    -0.231 N 
HETATM    2  N   UNL     1     -40.826  54.920 -50.702  1.00  0.00    -0.257 N 
HETATM    3  C   UNL     1     -41.206  56.225 -50.444  1.00  0.00     0.275 C 
HETATM    4  O   UNL     1     -41.107  56.824 -49.387  1.00  0.00    -0.266 OA
HETATM    5  C   UNL     1     -41.828  56.764 -51.690  1.00  0.00     0.087 C 
HETATM    6  C   UNL     1     -41.921  55.687 -52.493  1.00  0.00     0.178 C 
HETATM    7  H   UNL     1     -40.703  54.260 -49.949  1.00  0.00     0.191 HD
ENDROOT
BRANCH   5   8
HETATM    8  C   UNL     1     -42.324  58.102 -51.844  1.00  0.00     0.035 C 
HETATM    9  C   UNL     1     -43.556  58.524 -51.537  1.00  0.00    -0.005 A 
HETATM   10  C   UNL     1     -44.082  59.881 -51.586  1.00  0.00     0.004 A 
HETATM   11  C   UNL     1     -44.708  57.716 -51.050  1.00  0.00     0.129 A 
HETATM   12  C   UNL     1     -45.403  59.760 -51.122  1.00  0.00     0.067 A 
HETATM   13  C   UNL     1     -43.541  61.107 -51.933  1.00  0.00     0.014 A 
HETATM   14  C   UNL     1     -46.212  60.873 -51.000  1.00  0.00     0.032 A 
HETATM   15  N   UNL     1     -45.770  58.431 -50.801  1.00  0.00    -0.259 NA
HETATM   16  C   UNL     1     -45.682  62.119 -51.345  1.00  0.00     0.002 A 
HETATM   17  C   UNL     1     -44.358  62.235 -51.807  1.00  0.00     0.001 A 
ENDBRANCH   5   8
BRANCH   6  18
HETATM   18  O   UNL     1     -42.546  55.655 -53.712  1.00  0.00    -0.344 OA
HETATM   19  H   UNL     1     -41.996  56.129 -54.358  1.00  0.00     0.219 HD
ENDBRANCH   6  18
BRANCH   1  20
HETATM   20  C   UNL     1     -40.914  53.359 -52.519  1.00  0.00     0.059 A 
HETATM   21  C   UNL     1     -41.298  53.007 -53.825  1.00  0.00     0.032 A 
HETATM   22  C   UNL     1     -40.799  51.857 -54.454  1.00  0.00     0.009 A 
HETATM   23  C   UNL     1     -39.906  51.017 -53.788  1.00  0.00    -0.062 A 
HETATM   24  C   UNL     1     -39.329  49.808 -54.460  1.00  0.00     0.048 C 
HETATM   25  C   UNL     1     -39.516  51.348 -52.489  1.00  0.00     0.009 A 
HETATM   26  C   UNL     1     -40.014  52.501 -51.868  1.00  0.00     0.032 A 
ENDBRANCH   1  20
TORSDOF 3
ENDMDL
MODEL 8
REMARK VINA RESULT:      -7.8      1.466      8.543
REMARK  3 active torsions:
REMARK  status: ('A' for Active; 'I' for Inactive)
REMARK    1  A    between atoms: C_5  and  N_6 
REMARK    2  A    between atoms: C_10  and  C_11 
REMARK    3  A    between atoms: C_21  and  O_22 
ROOT
HETATM    1  N   UNL     1     -42.385  55.550 -52.629  1.00  0.00    -0.231 N 
HETATM    2  N   UNL     1     -43.547  55.411 -51.883  1.00  0.00    -0.257 N 
HETATM    3  C   UNL     1     -43.865  56.654 -51.366  1.00  0.00     0.275 C 
HETATM    4  O   UNL     1     -44.919  56.990 -50.854  1.00  0.00    -0.266 OA
HETATM    5  C   UNL     1     -42.694  57.550 -51.605  1.00  0.00     0.087 C 
HETATM    6  C   UNL     1     -41.883  56.815 -52.389  1.00  0.00     0.178 C 
HETATM    7  H   UNL     1     -44.272  54.759 -52.143  1.00  0.00     0.191 HD
ENDROOT
BRANCH   5   8
HETATM    8  C   UNL     1     -42.613  58.920 -51.186  1.00  0.00     0.035 C 
HETATM    9  C   UNL     1     -42.845  59.992 -51.952  1.00  0.00    -0.005 A 
HETATM   10  C   UNL     1     -42.868  61.394 -51.556  1.00  0.00     0.004 A 
HETATM   11  C   UNL     1     -43.157  60.030 -53.407  1.00  0.00     0.129 A 
HETATM   12  C   UNL     1     -43.201  62.082 -52.736  1.00  0.00     0.067 A 
HETATM   13  C   UNL     1     -42.679  62.055 -50.356  1.00  0.00     0.014 A 
HETATM   14  C   UNL     1     -43.347  63.456 -52.733  1.00  0.00     0.032 A 
HETATM   15  N   UNL     1     -43.371  61.234 -53.857  1.00  0.00    -0.259 NA
HETATM   16  C   UNL     1     -43.160  64.140 -51.528  1.00  0.00     0.002 A 
HETATM   17  C   UNL     1     -42.829  63.445 -50.351  1.00  0.00     0.001 A 
ENDBRANCH   5   8
BRANCH   6  18
HETATM   18  O   UNL     1     -40.728  57.260 -52.979  1.00  0.00    -0.344 OA
HETATM   19  H   UNL     1     -40.495  56.657 -53.703  1.00  0.00     0.219 HD
ENDBRANCH   6  18
BRANCH   1  20
HETATM   20  C   UNL     1     -41.717  54.365 -53.026  1.00  0.00     0.059 A 
HETATM   21  C   UNL     1     -40.727  53.786 -52.213  1.00  0.00     0.032 A 
HETATM   22  C   UNL     1     -40.092  52.587 -52.567  1.00  0.00     0.009 A 
HETATM   23  C   UNL     1     -40.425  51.934 -53.755  1.00  0.00    -0.062 A 
HETATM   24  C   UNL     1     -39.788  50.630 -54.129  1.00  0.00     0.048 C 
HETATM   25  C   UNL     1     -41.403  52.496 -54.577  1.00  0.00     0.009 A 
HETATM   26  C   UNL     1     -42.037  53.692 -54.215  1.00  0.00     0.032 A 
ENDBRANCH   1  20
TORSDOF 3
ENDMDL
MODEL 9
REMARK VINA RESULT:      -7.7      2.282      8.642
REMARK  3 active torsions:
REMARK  status: ('A' for Active; 'I' for Inactive)
REMARK    1  A    between atoms: C_5  and  N_6 
REMARK    2  A    between atoms: C_10  and  C_11 
REMARK    3  A    between atoms: C_21  and  O_22 
ROOT
HETATM    1  N   UNL     1     -41.489  56.367 -53.250  1.00  0.00    -0.231 N 
HETATM    2  N   UNL     1     -40.662  57.406 -53.654  1.00  0.00    -0.257 N 
HETATM    3  C   UNL     1     -41.421  58.563 -53.674  1.00  0.00     0.275 C 
HETATM    4  O   UNL     1     -41.013  59.708 -53.755  1.00  0.00    -0.266 OA
HETATM    5  C   UNL     1     -42.850  58.162 -53.514  1.00  0.00     0.087 C 
HETATM    6  C   UNL     1     -42.785  56.847 -53.235  1.00  0.00     0.178 C 
HETATM    7  H   UNL     1     -39.684  57.435 -53.409  1.00  0.00     0.191 HD
ENDROOT
BRANCH   5   8
HETATM    8  C   UNL     1     -43.960  59.072 -53.515  1.00  0.00     0.035 C 
HETATM    9  C   UNL     1     -44.443  59.726 -52.453  1.00  0.00    -0.005 A 
HETATM   10  C   UNL     1     -45.502  60.726 -52.415  1.00  0.00     0.004 A 
HETATM   11  C   UNL     1     -44.013  59.613 -51.032  1.00  0.00     0.129 A 
HETATM   12  C   UNL     1     -45.571  61.108 -51.065  1.00  0.00     0.067 A 
HETATM   13  C   UNL     1     -46.309  61.305 -53.379  1.00  0.00     0.014 A 
HETATM   14  C   UNL     1     -46.461  62.083 -50.653  1.00  0.00     0.032 A 
HETATM   15  N   UNL     1     -44.657  60.417 -50.233  1.00  0.00    -0.259 NA
HETATM   16  C   UNL     1     -47.282  62.678 -51.613  1.00  0.00     0.002 A 
HETATM   17  C   UNL     1     -47.207  62.293 -52.963  1.00  0.00     0.001 A 
ENDBRANCH   5   8
BRANCH   6  18
HETATM   18  O   UNL     1     -43.846  56.054 -52.882  1.00  0.00    -0.344 OA
HETATM   19  H   UNL     1     -44.079  56.237 -51.956  1.00  0.00     0.219 HD
ENDBRANCH   6  18
BRANCH   1  20
HETATM   20  C   UNL     1     -41.008  55.045 -53.420  1.00  0.00     0.059 A 
HETATM   21  C   UNL     1     -40.909  54.165 -52.328  1.00  0.00     0.032 A 
HETATM   22  C   UNL     1     -40.483  52.839 -52.488  1.00  0.00     0.009 A 
HETATM   23  C   UNL     1     -40.132  52.356 -53.750  1.00  0.00    -0.062 A 
HETATM   24  C   UNL     1     -39.716  50.929 -53.946  1.00  0.00     0.048 C 
HETATM   25  C   UNL     1     -40.221  53.216 -54.846  1.00  0.00     0.009 A 
HETATM   26  C   UNL     1     -40.652  54.539 -54.680  1.00  0.00     0.032 A 
ENDBRANCH   1  20
TORSDOF 3
ENDMDL
MODEL 10
REMARK VINA RESULT:      -7.6     17.492     19.412
REMARK  3 active torsions:
REMARK  status: ('A' for Active; 'I' for Inactive)
REMARK    1  A    between atoms: C_5  and  N_6 
REMARK    2  A    between atoms: C_10  and  C_11 
REMARK    3  A    between atoms: C_21  and  O_22 
ROOT
HETATM    1  N   UNL     1     -33.096  40.403 -52.645  1.00  0.00    -0.231 N 
HETATM    2  N   UNL     1     -32.072  40.025 -53.501  1.00  0.00    -0.257 N 
HETATM    3  C   UNL     1     -32.436  40.400 -54.782  1.00  0.00     0.275 C 
HETATM    4  O   UNL     1     -31.719  40.447 -55.766  1.00  0.00    -0.266 OA
HETATM    5  C   UNL     1     -33.873  40.804 -54.737  1.00  0.00     0.087 C 
HETATM    6  C   UNL     1     -34.165  40.806 -53.423  1.00  0.00     0.178 C 
HETATM    7  H   UNL     1     -31.105  40.040 -53.215  1.00  0.00     0.191 HD
ENDROOT
BRANCH   5   8
HETATM    8  C   UNL     1     -34.639  41.230 -55.874  1.00  0.00     0.035 C 
HETATM    9  C   UNL     1     -35.048  40.452 -56.883  1.00  0.00    -0.005 A 
HETATM   10  C   UNL     1     -35.901  40.810 -58.008  1.00  0.00     0.004 A 
HETATM   11  C   UNL     1     -34.749  39.011 -57.111  1.00  0.00     0.129 A 
HETATM   12  C   UNL     1     -36.042  39.614 -58.732  1.00  0.00     0.067 A 
HETATM   13  C   UNL     1     -36.537  41.976 -58.397  1.00  0.00     0.014 A 
HETATM   14  C   UNL     1     -36.827  39.566 -59.868  1.00  0.00     0.032 A 
HETATM   15  N   UNL     1     -35.331  38.526 -58.172  1.00  0.00    -0.259 NA
HETATM   16  C   UNL     1     -37.478  40.735 -60.274  1.00  0.00     0.002 A 
HETATM   17  C   UNL     1     -37.334  41.929 -59.545  1.00  0.00     0.001 A 
ENDBRANCH   5   8
BRANCH   6  18
HETATM   18  O   UNL     1     -35.343  41.235 -52.869  1.00  0.00    -0.344 OA
HETATM   19  H   UNL     1     -35.169  41.541 -51.964  1.00  0.00     0.219 HD
ENDBRANCH   6  18
BRANCH   1  20
HETATM   20  C   UNL     1     -33.074  39.879 -51.328  1.00  0.00     0.059 A 
HETATM   21  C   UNL     1     -34.143  39.110 -50.837  1.00  0.00     0.032 A 
HETATM   22  C   UNL     1     -34.115  38.543 -49.555  1.00  0.00     0.009 A 
HETATM   23  C   UNL     1     -33.014  38.739 -48.720  1.00  0.00    -0.062 A 
HETATM   24  C   UNL     1     -32.947  38.105 -47.363  1.00  0.00     0.048 C 
HETATM   25  C   UNL     1     -31.944  39.503 -49.188  1.00  0.00     0.009 A 
HETATM   26  C   UNL     1     -31.977  40.063 -50.472  1.00  0.00     0.032 A 
ENDBRANCH   1  20
TORSDOF 3
ENDMDL
