MODEL 1
REMARK VINA RESULT:      -9.4      0.000      0.000
REMARK  8 active torsions:
REMARK  status: ('A' for Active; 'I' for Inactive)
REMARK    1  A    between atoms: C_4  and  S_5 
REMARK    2  A    between atoms: S_5  and  C_6 
REMARK    3  A    between atoms: C_6  and  C_7 
REMARK       I    between atoms: C_7  and  N_8 
REMARK    4  A    between atoms: N_8  and  C_9 
REMARK    5  A    between atoms: C_9  and  C_10 
REMARK    6  A    between atoms: C_20  and  C_21 
REMARK    7  A    between atoms: C_26  and  C_27 
REMARK       I    between atoms: C_27  and  N_28 
REMARK    8  A    between atoms: N_28  and  C_29 
ROOT
HETATM    1  C   UNL     1     -44.436  55.646 -50.426  1.00  0.00     0.069 C 
HETATM    2  C   UNL     1     -43.903  56.890 -51.094  1.00  0.00     0.019 C 
HETATM    3  N   UNL     1     -44.506  58.087 -50.721  1.00  0.00    -0.353 N 
HETATM    4  C   UNL     1     -44.427  59.253 -51.474  1.00  0.00     0.087 C 
HETATM    5  C   UNL     1     -43.444  59.342 -52.410  1.00  0.00     0.057 C 
HETATM    6  C   UNL     1     -43.351  60.540 -53.342  1.00  0.00     0.019 C 
HETATM    7  N   UNL     1     -43.274  61.532 -54.116  1.00  0.00    -0.096 N 
HETATM    8  C   UNL     1     -42.433  58.218 -52.608  1.00  0.00     0.129 C 
HETATM    9  C   UNL     1     -42.923  56.900 -52.027  1.00  0.00     0.048 C 
HETATM   10  H   UNL     1     -45.344  57.977 -50.160  1.00  0.00     0.166 HD
ENDROOT
BRANCH   4  11
HETATM   11  S   UNL     1     -45.562  60.592 -51.311  1.00  0.00    -0.102 SA
BRANCH  11  12
HETATM   12  C   UNL     1     -44.847  61.644 -50.025  1.00  0.00     0.183 C 
BRANCH  12  13
HETATM   13  C   UNL     1     -45.510  61.440 -48.669  1.00  0.00     0.227 C 
HETATM   14  N   UNL     1     -44.684  60.998 -47.659  1.00  0.00    -0.356 N 
HETATM   15  H   UNL     1     -43.881  60.449 -47.946  1.00  0.00     0.162 HD
HETATM   16  O   UNL     1     -46.680  61.764 -48.481  1.00  0.00    -0.273 OA
BRANCH  14  17
HETATM   17  C   UNL     1     -45.204  60.778 -46.327  1.00  0.00     0.161 C 
BRANCH  17  18
HETATM   18  C   UNL     1     -44.830  61.841 -45.320  1.00  0.00    -0.041 A 
HETATM   19  C   UNL     1     -45.248  63.177 -45.413  1.00  0.00     0.009 A 
HETATM   20  C   UNL     1     -44.887  64.108 -44.435  1.00  0.00     0.001 A 
HETATM   21  C   UNL     1     -44.121  63.714 -43.340  1.00  0.00     0.000 A 
HETATM   22  C   UNL     1     -43.713  62.389 -43.223  1.00  0.00     0.001 A 
HETATM   23  C   UNL     1     -44.065  61.461 -44.204  1.00  0.00     0.009 A 
ENDBRANCH  17  18
ENDBRANCH  14  17
ENDBRANCH  12  13
ENDBRANCH  11  12
ENDBRANCH   4  11
BRANCH   8  24
HETATM   24  C   UNL     1     -41.074  58.594 -52.072  1.00  0.00     0.066 A 
HETATM   25  O   UNL     1     -40.114  58.883 -52.999  1.00  0.00    -0.326 OA
HETATM   26  C   UNL     1     -38.977  59.170 -52.314  1.00  0.00     0.142 A 
HETATM   27  C   UNL     1     -39.185  59.042 -50.960  1.00  0.00     0.027 A 
HETATM   28  C   UNL     1     -40.538  58.664 -50.801  1.00  0.00     0.035 A 
ENDBRANCH   8  24
BRANCH   9  29
HETATM   29  C   UNL     1     -42.472  55.618 -52.642  1.00  0.00     0.255 C 
HETATM   30  N   UNL     1     -41.350  55.049 -52.077  1.00  0.00    -0.322 N 
HETATM   31  H   UNL     1     -40.757  55.640 -51.506  1.00  0.00     0.169 HD
HETATM   32  O   UNL     1     -43.034  55.211 -53.655  1.00  0.00    -0.268 OA
BRANCH  30  33
HETATM   33  C   UNL     1     -40.753  53.859 -52.560  1.00  0.00     0.057 A 
HETATM   34  C   UNL     1     -40.349  52.774 -51.757  1.00  0.00     0.062 A 
HETATM   35 CL   UNL     1     -40.265  52.860 -50.028  1.00  0.00    -0.082 Cl
HETATM   36  C   UNL     1     -39.831  51.617 -52.346  1.00  0.00     0.050 A 
HETATM   37  C   UNL     1     -39.689  51.545 -53.729  1.00  0.00     0.035 A 
HETATM   38 CL   UNL     1     -39.058  50.119 -54.452  1.00  0.00    -0.084 Cl
HETATM   39  C   UNL     1     -40.029  52.633 -54.530  1.00  0.00     0.026 A 
HETATM   40  C   UNL     1     -40.544  53.793 -53.945  1.00  0.00     0.033 A 
ENDBRANCH  30  33
ENDBRANCH   9  29
TORSDOF 8
ENDMDL
MODEL 2
REMARK VINA RESULT:      -9.1      3.816     10.072
REMARK  8 active torsions:
REMARK  status: ('A' for Active; 'I' for Inactive)
REMARK    1  A    between atoms: C_4  and  S_5 
REMARK    2  A    between atoms: S_5  and  C_6 
REMARK    3  A    between atoms: C_6  and  C_7 
REMARK       I    between atoms: C_7  and  N_8 
REMARK    4  A    between atoms: N_8  and  C_9 
REMARK    5  A    between atoms: C_9  and  C_10 
REMARK    6  A    between atoms: C_20  and  C_21 
REMARK    7  A    between atoms: C_26  and  C_27 
REMARK       I    between atoms: C_27  and  N_28 
REMARK    8  A    between atoms: N_28  and  C_29 
ROOT
HETATM    1  C   UNL     1     -45.244  60.964 -53.089  1.00  0.00     0.069 C 
HETATM    2  C   UNL     1     -44.417  59.820 -52.553  1.00  0.00     0.019 C 
HETATM    3  N   UNL     1     -44.292  58.717 -53.391  1.00  0.00    -0.353 N 
HETATM    4  C   UNL     1     -43.909  57.456 -52.947  1.00  0.00     0.087 C 
HETATM    5  C   UNL     1     -43.291  57.366 -51.739  1.00  0.00     0.057 C 
HETATM    6  C   UNL     1     -42.932  56.017 -51.137  1.00  0.00     0.019 C 
HETATM    7  N   UNL     1     -42.635  54.898 -50.637  1.00  0.00    -0.096 N 
HETATM    8  C   UNL     1     -42.990  58.608 -50.908  1.00  0.00     0.129 C 
HETATM    9  C   UNL     1     -43.837  59.799 -51.332  1.00  0.00     0.048 C 
HETATM   10  H   UNL     1     -44.899  58.736 -54.203  1.00  0.00     0.166 HD
ENDROOT
BRANCH   4  11
HETATM   11  S   UNL     1     -44.229  55.972 -53.844  1.00  0.00    -0.102 SA
BRANCH  11  12
HETATM   12  C   UNL     1     -42.875  55.858 -55.037  1.00  0.00     0.183 C 
BRANCH  12  13
HETATM   13  C   UNL     1     -41.550  55.490 -54.382  1.00  0.00     0.227 C 
HETATM   14  N   UNL     1     -41.487  54.232 -53.823  1.00  0.00    -0.356 N 
HETATM   15  H   UNL     1     -42.366  53.842 -53.501  1.00  0.00     0.162 HD
HETATM   16  O   UNL     1     -40.576  56.236 -54.459  1.00  0.00    -0.273 OA
BRANCH  14  17
HETATM   17  C   UNL     1     -40.275  53.772 -53.181  1.00  0.00     0.161 C 
BRANCH  17  18
HETATM   18  C   UNL     1     -40.100  52.271 -53.166  1.00  0.00    -0.041 A 
HETATM   19  C   UNL     1     -40.279  51.459 -54.296  1.00  0.00     0.009 A 
HETATM   20  C   UNL     1     -40.078  50.078 -54.222  1.00  0.00     0.001 A 
HETATM   21  C   UNL     1     -39.676  49.491 -53.024  1.00  0.00     0.000 A 
HETATM   22  C   UNL     1     -39.475  50.284 -51.899  1.00  0.00     0.001 A 
HETATM   23  C   UNL     1     -39.686  51.662 -51.969  1.00  0.00     0.009 A 
ENDBRANCH  17  18
ENDBRANCH  14  17
ENDBRANCH  12  13
ENDBRANCH  11  12
ENDBRANCH   4  11
BRANCH   8  24
HETATM   24  C   UNL     1     -41.518  58.938 -50.918  1.00  0.00     0.066 A 
HETATM   25  O   UNL     1     -40.841  58.662 -52.072  1.00  0.00    -0.326 OA
HETATM   26  C   UNL     1     -39.546  59.010 -51.861  1.00  0.00     0.142 A 
HETATM   27  C   UNL     1     -39.373  59.480 -50.581  1.00  0.00     0.027 A 
HETATM   28  C   UNL     1     -40.646  59.429 -49.965  1.00  0.00     0.035 A 
ENDBRANCH   8  24
BRANCH   9  29
HETATM   29  C   UNL     1     -44.197  60.836 -50.321  1.00  0.00     0.255 C 
HETATM   30  N   UNL     1     -45.219  60.497 -49.459  1.00  0.00    -0.322 N 
HETATM   31  H   UNL     1     -45.830  59.734 -49.728  1.00  0.00     0.169 HD
HETATM   32  O   UNL     1     -43.663  61.940 -50.382  1.00  0.00    -0.268 OA
BRANCH  30  33
HETATM   33  C   UNL     1     -45.725  61.373 -48.469  1.00  0.00     0.057 A 
HETATM   34  C   UNL     1     -46.676  62.387 -48.697  1.00  0.00     0.062 A 
HETATM   35 CL   UNL     1     -47.152  62.895 -50.284  1.00  0.00    -0.082 Cl
HETATM   36  C   UNL     1     -47.159  63.153 -47.631  1.00  0.00     0.050 A 
HETATM   37  C   UNL     1     -46.679  62.930 -46.344  1.00  0.00     0.035 A 
HETATM   38 CL   UNL     1     -47.279  63.868 -45.033  1.00  0.00    -0.084 Cl
HETATM   39  C   UNL     1     -45.696  61.971 -46.113  1.00  0.00     0.026 A 
HETATM   40  C   UNL     1     -45.208  61.206 -47.176  1.00  0.00     0.033 A 
ENDBRANCH  30  33
ENDBRANCH   9  29
TORSDOF 8
ENDMDL
MODEL 3
REMARK VINA RESULT:      -9.0      5.185      8.898
REMARK  8 active torsions:
REMARK  status: ('A' for Active; 'I' for Inactive)
REMARK    1  A    between atoms: C_4  and  S_5 
REMARK    2  A    between atoms: S_5  and  C_6 
REMARK    3  A    between atoms: C_6  and  C_7 
REMARK       I    between atoms: C_7  and  N_8 
REMARK    4  A    between atoms: N_8  and  C_9 
REMARK    5  A    between atoms: C_9  and  C_10 
REMARK    6  A    between atoms: C_20  and  C_21 
REMARK    7  A    between atoms: C_26  and  C_27 
REMARK       I    between atoms: C_27  and  N_28 
REMARK    8  A    between atoms: N_28  and  C_29 
ROOT
HETATM    1  C   UNL     1     -42.604  55.941 -56.259  1.00  0.00     0.069 C 
HETATM    2  C   UNL     1     -42.589  57.386 -55.822  1.00  0.00     0.019 C 
HETATM    3  N   UNL     1     -41.657  57.714 -54.843  1.00  0.00    -0.353 N 
HETATM    4  C   UNL     1     -41.739  58.859 -54.059  1.00  0.00     0.087 C 
HETATM    5  C   UNL     1     -42.538  59.872 -54.491  1.00  0.00     0.057 C 
HETATM    6  C   UNL     1     -42.762  61.114 -53.643  1.00  0.00     0.019 C 
HETATM    7  N   UNL     1     -42.948  62.145 -52.941  1.00  0.00    -0.096 N 
HETATM    8  C   UNL     1     -43.295  59.777 -55.811  1.00  0.00     0.129 C 
HETATM    9  C   UNL     1     -43.424  58.340 -56.294  1.00  0.00     0.048 C 
HETATM   10  H   UNL     1     -41.198  56.916 -54.416  1.00  0.00     0.166 HD
ENDROOT
BRANCH   4  11
HETATM   11  S   UNL     1     -40.904  59.042 -52.516  1.00  0.00    -0.102 SA
BRANCH  11  12
HETATM   12  C   UNL     1     -42.007  58.275 -51.306  1.00  0.00     0.183 C 
BRANCH  12  13
HETATM   13  C   UNL     1     -42.652  56.999 -51.831  1.00  0.00     0.227 C 
HETATM   14  N   UNL     1     -42.003  55.825 -51.514  1.00  0.00    -0.356 N 
HETATM   15  H   UNL     1     -41.003  55.894 -51.368  1.00  0.00     0.162 HD
HETATM   16  O   UNL     1     -43.742  57.027 -52.400  1.00  0.00    -0.273 OA
BRANCH  14  17
HETATM   17  C   UNL     1     -42.531  54.551 -51.953  1.00  0.00     0.161 C 
BRANCH  17  18
HETATM   18  C   UNL     1     -41.487  53.567 -52.428  1.00  0.00    -0.041 A 
HETATM   19  C   UNL     1     -40.559  52.950 -51.576  1.00  0.00     0.009 A 
HETATM   20  C   UNL     1     -39.634  52.029 -52.075  1.00  0.00     0.001 A 
HETATM   21  C   UNL     1     -39.635  51.696 -53.428  1.00  0.00     0.000 A 
HETATM   22  C   UNL     1     -40.561  52.284 -54.284  1.00  0.00     0.001 A 
HETATM   23  C   UNL     1     -41.479  53.211 -53.788  1.00  0.00     0.009 A 
ENDBRANCH  17  18
ENDBRANCH  14  17
ENDBRANCH  12  13
ENDBRANCH  11  12
ENDBRANCH   4  11
BRANCH   8  24
HETATM   24  C   UNL     1     -42.684  60.666 -56.864  1.00  0.00     0.066 A 
HETATM   25  O   UNL     1     -41.394  60.390 -57.220  1.00  0.00    -0.326 OA
HETATM   26  C   UNL     1     -41.036  61.310 -58.152  1.00  0.00     0.142 A 
HETATM   27  C   UNL     1     -42.067  62.191 -58.382  1.00  0.00     0.027 A 
HETATM   28  C   UNL     1     -43.132  61.781 -57.546  1.00  0.00     0.035 A 
ENDBRANCH   8  24
BRANCH   9  29
HETATM   29  C   UNL     1     -44.605  57.950 -57.119  1.00  0.00     0.255 C 
HETATM   30  N   UNL     1     -44.359  57.775 -58.464  1.00  0.00    -0.322 N 
HETATM   31  H   UNL     1     -43.512  58.182 -58.846  1.00  0.00     0.169 HD
HETATM   32  O   UNL     1     -45.715  57.918 -56.595  1.00  0.00    -0.268 OA
BRANCH  30  33
HETATM   33  C   UNL     1     -45.367  57.452 -59.404  1.00  0.00     0.057 A 
HETATM   34  C   UNL     1     -45.620  56.159 -59.903  1.00  0.00     0.062 A 
HETATM   35 CL   UNL     1     -44.546  54.822 -59.653  1.00  0.00    -0.082 Cl
HETATM   36  C   UNL     1     -46.688  55.940 -60.780  1.00  0.00     0.050 A 
HETATM   37  C   UNL     1     -47.487  57.006 -61.182  1.00  0.00     0.035 A 
HETATM   38 CL   UNL     1     -48.803  56.734 -62.254  1.00  0.00    -0.084 Cl
HETATM   39  C   UNL     1     -47.211  58.299 -60.742  1.00  0.00     0.026 A 
HETATM   40  C   UNL     1     -46.143  58.523 -59.869  1.00  0.00     0.033 A 
ENDBRANCH  30  33
ENDBRANCH   9  29
TORSDOF 8
ENDMDL
MODEL 4
REMARK VINA RESULT:      -8.7      6.716     10.458
REMARK  8 active torsions:
REMARK  status: ('A' for Active; 'I' for Inactive)
REMARK    1  A    between atoms: C_4  and  S_5 
REMARK    2  A    between atoms: S_5  and  C_6 
REMARK    3  A    between atoms: C_6  and  C_7 
REMARK       I    between atoms: C_7  and  N_8 
REMARK    4  A    between atoms: N_8  and  C_9 
REMARK    5  A    between atoms: C_9  and  C_10 
REMARK    6  A    between atoms: C_20  and  C_21 
REMARK    7  A    between atoms: C_26  and  C_27 
REMARK       I    between atoms: C_27  and  N_28 
REMARK    8  A    between atoms: N_28  and  C_29 
ROOT
HETATM    1  C   UNL     1     -42.883  55.880 -59.161  1.00  0.00     0.069 C 
HETATM    2  C   UNL     1     -42.899  57.014 -58.165  1.00  0.00     0.019 C 
HETATM    3  N   UNL     1     -42.246  56.773 -56.961  1.00  0.00    -0.353 N 
HETATM    4  C   UNL     1     -42.467  57.517 -55.807  1.00  0.00     0.087 C 
HETATM    5  C   UNL     1     -43.060  58.734 -55.936  1.00  0.00     0.057 C 
HETATM    6  C   UNL     1     -43.428  59.564 -54.716  1.00  0.00     0.019 C 
HETATM    7  N   UNL     1     -43.734  60.252 -53.705  1.00  0.00    -0.096 N 
HETATM    8  C   UNL     1     -43.439  59.290 -57.303  1.00  0.00     0.129 C 
HETATM    9  C   UNL     1     -43.519  58.200 -58.362  1.00  0.00     0.048 C 
HETATM   10  H   UNL     1     -41.967  55.809 -56.821  1.00  0.00     0.166 HD
ENDROOT
BRANCH   4  11
HETATM   11  S   UNL     1     -42.067  56.940 -54.189  1.00  0.00    -0.102 SA
BRANCH  11  12
HETATM   12  C   UNL     1     -43.000  55.402 -54.008  1.00  0.00     0.183 C 
BRANCH  12  13
HETATM   13  C   UNL     1     -42.402  54.477 -52.957  1.00  0.00     0.227 C 
HETATM   14  N   UNL     1     -41.028  54.374 -52.961  1.00  0.00    -0.356 N 
HETATM   15  H   UNL     1     -40.571  54.532 -53.852  1.00  0.00     0.162 HD
HETATM   16  O   UNL     1     -43.108  53.954 -52.096  1.00  0.00    -0.273 OA
BRANCH  14  17
HETATM   17  C   UNL     1     -40.350  53.530 -52.000  1.00  0.00     0.161 C 
BRANCH  17  18
HETATM   18  C   UNL     1     -40.097  52.117 -52.472  1.00  0.00    -0.041 A 
HETATM   19  C   UNL     1     -40.146  51.728 -53.819  1.00  0.00     0.009 A 
HETATM   20  C   UNL     1     -39.877  50.409 -54.192  1.00  0.00     0.001 A 
HETATM   21  C   UNL     1     -39.536  49.463 -53.228  1.00  0.00     0.000 A 
HETATM   22  C   UNL     1     -39.465  49.835 -51.889  1.00  0.00     0.001 A 
HETATM   23  C   UNL     1     -39.743  51.150 -51.514  1.00  0.00     0.009 A 
ENDBRANCH  17  18
ENDBRANCH  14  17
ENDBRANCH  12  13
ENDBRANCH  11  12
ENDBRANCH   4  11
BRANCH   8  24
HETATM   24  C   UNL     1     -42.516  60.408 -57.723  1.00  0.00     0.066 A 
HETATM   25  O   UNL     1     -42.918  61.676 -57.414  1.00  0.00    -0.326 OA
HETATM   26  C   UNL     1     -41.968  62.519 -57.894  1.00  0.00     0.142 A 
HETATM   27  C   UNL     1     -40.974  61.813 -58.531  1.00  0.00     0.027 A 
HETATM   28  C   UNL     1     -41.328  60.448 -58.427  1.00  0.00     0.035 A 
ENDBRANCH   8  24
BRANCH   9  29
HETATM   29  C   UNL     1     -44.457  58.365 -59.511  1.00  0.00     0.255 C 
HETATM   30  N   UNL     1     -45.773  58.043 -59.257  1.00  0.00    -0.322 N 
HETATM   31  H   UNL     1     -45.970  57.468 -58.445  1.00  0.00     0.169 HD
HETATM   32  O   UNL     1     -44.003  58.659 -60.614  1.00  0.00    -0.268 OA
BRANCH  30  33
HETATM   33  C   UNL     1     -46.791  58.094 -60.239  1.00  0.00     0.057 A 
HETATM   34  C   UNL     1     -47.510  59.251 -60.598  1.00  0.00     0.062 A 
HETATM   35 CL   UNL     1     -47.449  60.722 -59.685  1.00  0.00    -0.082 Cl
HETATM   36  C   UNL     1     -48.451  59.203 -61.633  1.00  0.00     0.050 A 
HETATM   37  C   UNL     1     -48.696  58.002 -62.293  1.00  0.00     0.035 A 
HETATM   38 CL   UNL     1     -49.847  57.947 -63.568  1.00  0.00    -0.084 Cl
HETATM   39  C   UNL     1     -48.034  56.839 -61.908  1.00  0.00     0.026 A 
HETATM   40  C   UNL     1     -47.097  56.881 -60.873  1.00  0.00     0.033 A 
ENDBRANCH  30  33
ENDBRANCH   9  29
TORSDOF 8
ENDMDL
MODEL 5
REMARK VINA RESULT:      -8.7      5.551      8.489
REMARK  8 active torsions:
REMARK  status: ('A' for Active; 'I' for Inactive)
REMARK    1  A    between atoms: C_4  and  S_5 
REMARK    2  A    between atoms: S_5  and  C_6 
REMARK    3  A    between atoms: C_6  and  C_7 
REMARK       I    between atoms: C_7  and  N_8 
REMARK    4  A    between atoms: N_8  and  C_9 
REMARK    5  A    between atoms: C_9  and  C_10 
REMARK    6  A    between atoms: C_20  and  C_21 
REMARK    7  A    between atoms: C_26  and  C_27 
REMARK       I    between atoms: C_27  and  N_28 
REMARK    8  A    between atoms: N_28  and  C_29 
ROOT
HETATM    1  C   UNL     1     -43.093  53.464 -55.527  1.00  0.00     0.069 C 
HETATM    2  C   UNL     1     -42.991  54.868 -56.072  1.00  0.00     0.019 C 
HETATM    3  N   UNL     1     -43.476  55.054 -57.363  1.00  0.00    -0.353 N 
HETATM    4  C   UNL     1     -43.136  56.142 -58.159  1.00  0.00     0.087 C 
HETATM    5  C   UNL     1     -42.611  57.239 -57.551  1.00  0.00     0.057 C 
HETATM    6  C   UNL     1     -42.120  58.429 -58.360  1.00  0.00     0.019 C 
HETATM    7  N   UNL     1     -41.713  59.416 -59.030  1.00  0.00    -0.096 N 
HETATM    8  C   UNL     1     -42.430  57.296 -56.038  1.00  0.00     0.129 C 
HETATM    9  C   UNL     1     -42.446  55.912 -55.407  1.00  0.00     0.048 C 
HETATM   10  H   UNL     1     -43.699  54.196 -57.855  1.00  0.00     0.166 HD
ENDROOT
BRANCH   4  11
HETATM   11  S   UNL     1     -43.305  56.150 -59.914  1.00  0.00    -0.102 SA
BRANCH  11  12
HETATM   12  C   UNL     1     -44.846  55.256 -60.230  1.00  0.00     0.183 C 
BRANCH  12  13
HETATM   13  C   UNL     1     -46.077  56.130 -60.033  1.00  0.00     0.227 C 
HETATM   14  N   UNL     1     -46.004  57.047 -59.007  1.00  0.00    -0.356 N 
HETATM   15  H   UNL     1     -45.396  56.805 -58.234  1.00  0.00     0.162 HD
HETATM   16  O   UNL     1     -47.020  56.084 -60.820  1.00  0.00    -0.273 OA
BRANCH  14  17
HETATM   17  C   UNL     1     -47.113  57.936 -58.734  1.00  0.00     0.161 C 
BRANCH  17  18
HETATM   18  C   UNL     1     -46.716  59.295 -58.204  1.00  0.00    -0.041 A 
HETATM   19  C   UNL     1     -47.594  60.144 -57.514  1.00  0.00     0.009 A 
HETATM   20  C   UNL     1     -47.158  61.380 -57.028  1.00  0.00     0.001 A 
HETATM   21  C   UNL     1     -45.834  61.776 -57.205  1.00  0.00     0.000 A 
HETATM   22  C   UNL     1     -44.945  60.937 -57.870  1.00  0.00     0.001 A 
HETATM   23  C   UNL     1     -45.382  59.708 -58.365  1.00  0.00     0.009 A 
ENDBRANCH  17  18
ENDBRANCH  14  17
ENDBRANCH  12  13
ENDBRANCH  11  12
ENDBRANCH   4  11
BRANCH   8  24
HETATM   24  C   UNL     1     -43.440  58.214 -55.394  1.00  0.00     0.066 A 
HETATM   25  O   UNL     1     -42.959  59.391 -54.894  1.00  0.00    -0.326 OA
HETATM   26  C   UNL     1     -44.015  60.047 -54.347  1.00  0.00     0.142 A 
HETATM   27  C   UNL     1     -45.162  59.298 -54.463  1.00  0.00     0.027 A 
HETATM   28  C   UNL     1     -44.792  58.109 -55.134  1.00  0.00     0.035 A 
ENDBRANCH   8  24
BRANCH   9  29
HETATM   29  C   UNL     1     -41.670  55.670 -54.156  1.00  0.00     0.255 C 
HETATM   30  N   UNL     1     -42.417  55.319 -53.051  1.00  0.00    -0.322 N 
HETATM   31  H   UNL     1     -43.411  55.518 -53.070  1.00  0.00     0.169 HD
HETATM   32  O   UNL     1     -40.464  55.901 -54.147  1.00  0.00    -0.268 OA
BRANCH  30  33
HETATM   33  C   UNL     1     -41.856  55.098 -51.770  1.00  0.00     0.057 A 
HETATM   34  C   UNL     1     -41.759  56.068 -50.753  1.00  0.00     0.062 A 
HETATM   35 CL   UNL     1     -42.054  57.754 -51.025  1.00  0.00    -0.082 Cl
HETATM   36  C   UNL     1     -41.247  55.724 -49.498  1.00  0.00     0.050 A 
HETATM   37  C   UNL     1     -40.808  54.425 -49.260  1.00  0.00     0.035 A 
HETATM   38 CL   UNL     1     -40.185  54.001 -47.714  1.00  0.00    -0.084 Cl
HETATM   39  C   UNL     1     -40.844  53.471 -50.275  1.00  0.00     0.026 A 
HETATM   40  C   UNL     1     -41.351  53.812 -51.532  1.00  0.00     0.033 A 
ENDBRANCH  30  33
ENDBRANCH   9  29
TORSDOF 8
ENDMDL
MODEL 6
REMARK VINA RESULT:      -8.5      5.977     10.043
REMARK  8 active torsions:
REMARK  status: ('A' for Active; 'I' for Inactive)
REMARK    1  A    between atoms: C_4  and  S_5 
REMARK    2  A    between atoms: S_5  and  C_6 
REMARK    3  A    between atoms: C_6  and  C_7 
REMARK       I    between atoms: C_7  and  N_8 
REMARK    4  A    between atoms: N_8  and  C_9 
REMARK    5  A    between atoms: C_9  and  C_10 
REMARK    6  A    between atoms: C_20  and  C_21 
REMARK    7  A    between atoms: C_26  and  C_27 
REMARK       I    between atoms: C_27  and  N_28 
REMARK    8  A    between atoms: N_28  and  C_29 
ROOT
HETATM    1  C   UNL     1     -42.947  54.144 -55.732  1.00  0.00     0.069 C 
HETATM    2  C   UNL     1     -42.914  55.631 -55.988  1.00  0.00     0.019 C 
HETATM    3  N   UNL     1     -43.412  56.047 -57.218  1.00  0.00    -0.353 N 
HETATM    4  C   UNL     1     -43.127  57.286 -57.782  1.00  0.00     0.087 C 
HETATM    5  C   UNL     1     -42.651  58.264 -56.965  1.00  0.00     0.057 C 
HETATM    6  C   UNL     1     -42.220  59.612 -57.519  1.00  0.00     0.019 C 
HETATM    7  N   UNL     1     -41.863  60.731 -57.979  1.00  0.00    -0.096 N 
HETATM    8  C   UNL     1     -42.467  58.029 -55.470  1.00  0.00     0.129 C 
HETATM    9  C   UNL     1     -42.415  56.547 -55.126  1.00  0.00     0.048 C 
HETATM   10  H   UNL     1     -43.596  55.295 -57.872  1.00  0.00     0.166 HD
ENDROOT
BRANCH   4  11
HETATM   11  S   UNL     1     -43.303  57.634 -59.501  1.00  0.00    -0.102 SA
BRANCH  11  12
HETATM   12  C   UNL     1     -43.391  56.009 -60.290  1.00  0.00     0.183 C 
BRANCH  12  13
HETATM   13  C   UNL     1     -44.798  55.663 -60.758  1.00  0.00     0.227 C 
HETATM   14  N   UNL     1     -45.821  56.352 -60.143  1.00  0.00    -0.356 N 
HETATM   15  H   UNL     1     -45.639  56.673 -59.199  1.00  0.00     0.162 HD
HETATM   16  O   UNL     1     -44.982  54.899 -61.704  1.00  0.00    -0.273 OA
BRANCH  14  17
HETATM   17  C   UNL     1     -47.198  56.111 -60.514  1.00  0.00     0.161 C 
BRANCH  17  18
HETATM   18  C   UNL     1     -47.801  57.161 -61.418  1.00  0.00    -0.041 A 
HETATM   19  C   UNL     1     -48.659  56.864 -62.488  1.00  0.00     0.009 A 
HETATM   20  C   UNL     1     -49.203  57.884 -63.272  1.00  0.00     0.001 A 
HETATM   21  C   UNL     1     -48.914  59.217 -62.988  1.00  0.00     0.000 A 
HETATM   22  C   UNL     1     -48.081  59.531 -61.919  1.00  0.00     0.001 A 
HETATM   23  C   UNL     1     -47.529  58.512 -61.141  1.00  0.00     0.009 A 
ENDBRANCH  17  18
ENDBRANCH  14  17
ENDBRANCH  12  13
ENDBRANCH  11  12
ENDBRANCH   4  11
BRANCH   8  24
HETATM   24  C   UNL     1     -43.515  58.752 -54.662  1.00  0.00     0.066 A 
HETATM   25  O   UNL     1     -43.719  58.301 -53.389  1.00  0.00    -0.326 OA
HETATM   26  C   UNL     1     -44.706  59.065 -52.853  1.00  0.00     0.142 A 
HETATM   27  C   UNL     1     -45.159  59.983 -53.772  1.00  0.00     0.027 A 
HETATM   28  C   UNL     1     -44.395  59.779 -54.945  1.00  0.00     0.035 A 
ENDBRANCH   8  24
BRANCH   9  29
HETATM   29  C   UNL     1     -41.623  56.099 -53.944  1.00  0.00     0.255 C 
HETATM   30  N   UNL     1     -42.336  55.438 -52.966  1.00  0.00    -0.322 N 
HETATM   31  H   UNL     1     -43.345  55.545 -52.963  1.00  0.00     0.169 HD
HETATM   32  O   UNL     1     -40.444  56.431 -53.853  1.00  0.00    -0.268 OA
BRANCH  30  33
HETATM   33  C   UNL     1     -41.761  54.984 -51.755  1.00  0.00     0.057 A 
HETATM   34  C   UNL     1     -40.929  53.854 -51.630  1.00  0.00     0.062 A 
HETATM   35 CL   UNL     1     -40.722  52.689 -52.897  1.00  0.00    -0.082 Cl
HETATM   36  C   UNL     1     -40.358  53.533 -50.394  1.00  0.00     0.050 A 
HETATM   37  C   UNL     1     -40.632  54.318 -49.278  1.00  0.00     0.035 A 
HETATM   38 CL   UNL     1     -39.924  53.926 -47.761  1.00  0.00    -0.084 Cl
HETATM   39  C   UNL     1     -41.499  55.403 -49.375  1.00  0.00     0.026 A 
HETATM   40  C   UNL     1     -42.075  55.725 -50.607  1.00  0.00     0.033 A 
ENDBRANCH  30  33
ENDBRANCH   9  29
TORSDOF 8
ENDMDL
MODEL 7
REMARK VINA RESULT:      -8.5      6.335      9.709
REMARK  8 active torsions:
REMARK  status: ('A' for Active; 'I' for Inactive)
REMARK    1  A    between atoms: C_4  and  S_5 
REMARK    2  A    between atoms: S_5  and  C_6 
REMARK    3  A    between atoms: C_6  and  C_7 
REMARK       I    between atoms: C_7  and  N_8 
REMARK    4  A    between atoms: N_8  and  C_9 
REMARK    5  A    between atoms: C_9  and  C_10 
REMARK    6  A    between atoms: C_20  and  C_21 
REMARK    7  A    between atoms: C_26  and  C_27 
REMARK       I    between atoms: C_27  and  N_28 
REMARK    8  A    between atoms: N_28  and  C_29 
ROOT
HETATM    1  C   UNL     1     -43.482  55.420 -58.717  1.00  0.00     0.069 C 
HETATM    2  C   UNL     1     -43.173  56.870 -58.433  1.00  0.00     0.019 C 
HETATM    3  N   UNL     1     -43.108  57.706 -59.543  1.00  0.00    -0.353 N 
HETATM    4  C   UNL     1     -42.482  58.947 -59.533  1.00  0.00     0.087 C 
HETATM    5  C   UNL     1     -42.239  59.529 -58.328  1.00  0.00     0.057 C 
HETATM    6  C   UNL     1     -41.469  60.836 -58.225  1.00  0.00     0.019 C 
HETATM    7  N   UNL     1     -40.830  61.920 -58.140  1.00  0.00    -0.096 N 
HETATM    8  C   UNL     1     -42.671  58.865 -57.025  1.00  0.00     0.129 C 
HETATM    9  C   UNL     1     -42.935  57.377 -57.202  1.00  0.00     0.048 C 
HETATM   10  H   UNL     1     -43.118  57.222 -60.434  1.00  0.00     0.166 HD
ENDROOT
BRANCH   4  11
HETATM   11  S   UNL     1     -41.943  59.775 -60.993  1.00  0.00    -0.102 SA
BRANCH  11  12
HETATM   12  C   UNL     1     -43.003  61.236 -61.108  1.00  0.00     0.183 C 
BRANCH  12  13
HETATM   13  C   UNL     1     -44.459  60.881 -61.375  1.00  0.00     0.227 C 
HETATM   14  N   UNL     1     -45.284  60.864 -60.272  1.00  0.00    -0.356 N 
HETATM   15  H   UNL     1     -44.840  60.653 -59.385  1.00  0.00     0.162 HD
HETATM   16  O   UNL     1     -44.876  60.735 -62.522  1.00  0.00    -0.273 OA
BRANCH  14  17
HETATM   17  C   UNL     1     -46.690  60.548 -60.408  1.00  0.00     0.161 C 
BRANCH  17  18
HETATM   18  C   UNL     1     -46.999  59.070 -60.484  1.00  0.00    -0.041 A 
HETATM   19  C   UNL     1     -47.676  58.474 -61.559  1.00  0.00     0.009 A 
HETATM   20  C   UNL     1     -47.910  57.096 -61.579  1.00  0.00     0.001 A 
HETATM   21  C   UNL     1     -47.454  56.292 -60.537  1.00  0.00     0.000 A 
HETATM   22  C   UNL     1     -46.765  56.864 -59.472  1.00  0.00     0.001 A 
HETATM   23  C   UNL     1     -46.540  58.241 -59.446  1.00  0.00     0.009 A 
ENDBRANCH  17  18
ENDBRANCH  14  17
ENDBRANCH  12  13
ENDBRANCH  11  12
ENDBRANCH   4  11
BRANCH   8  24
HETATM   24  C   UNL     1     -43.853  59.571 -56.409  1.00  0.00     0.066 A 
HETATM   25  O   UNL     1     -44.709  60.193 -57.273  1.00  0.00    -0.326 OA
HETATM   26  C   UNL     1     -45.676  60.776 -56.520  1.00  0.00     0.142 A 
HETATM   27  C   UNL     1     -45.440  60.563 -55.182  1.00  0.00     0.027 A 
HETATM   28  C   UNL     1     -44.259  59.789 -55.106  1.00  0.00     0.035 A 
ENDBRANCH   8  24
BRANCH   9  29
HETATM   29  C   UNL     1     -42.717  56.455 -56.049  1.00  0.00     0.255 C 
HETATM   30  N   UNL     1     -41.419  56.028 -55.866  1.00  0.00    -0.322 N 
HETATM   31  H   UNL     1     -40.777  56.119 -56.646  1.00  0.00     0.169 HD
HETATM   32  O   UNL     1     -43.688  56.048 -55.418  1.00  0.00    -0.268 OA
BRANCH  30  33
HETATM   33  C   UNL     1     -41.034  55.115 -54.854  1.00  0.00     0.057 A 
HETATM   34  C   UNL     1     -41.096  55.371 -53.470  1.00  0.00     0.062 A 
HETATM   35 CL   UNL     1     -41.382  56.949 -52.813  1.00  0.00    -0.082 Cl
HETATM   36  C   UNL     1     -40.754  54.371 -52.553  1.00  0.00     0.050 A 
HETATM   37  C   UNL     1     -40.328  53.128 -53.010  1.00  0.00     0.035 A 
HETATM   38 CL   UNL     1     -39.915  51.898 -51.881  1.00  0.00    -0.084 Cl
HETATM   39  C   UNL     1     -40.207  52.881 -54.375  1.00  0.00     0.026 A 
HETATM   40  C   UNL     1     -40.543  53.878 -55.294  1.00  0.00     0.033 A 
ENDBRANCH  30  33
ENDBRANCH   9  29
TORSDOF 8
ENDMDL
MODEL 8
REMARK VINA RESULT:      -8.5      4.256      8.511
REMARK  8 active torsions:
REMARK  status: ('A' for Active; 'I' for Inactive)
REMARK    1  A    between atoms: C_4  and  S_5 
REMARK    2  A    between atoms: S_5  and  C_6 
REMARK    3  A    between atoms: C_6  and  C_7 
REMARK       I    between atoms: C_7  and  N_8 
REMARK    4  A    between atoms: N_8  and  C_9 
REMARK    5  A    between atoms: C_9  and  C_10 
REMARK    6  A    between atoms: C_20  and  C_21 
REMARK    7  A    between atoms: C_26  and  C_27 
REMARK       I    between atoms: C_27  and  N_28 
REMARK    8  A    between atoms: N_28  and  C_29 
ROOT
HETATM    1  C   UNL     1     -42.933  56.872 -56.598  1.00  0.00     0.069 C 
HETATM    2  C   UNL     1     -43.130  58.050 -55.675  1.00  0.00     0.019 C 
HETATM    3  N   UNL     1     -43.801  59.141 -56.217  1.00  0.00    -0.353 N 
HETATM    4  C   UNL     1     -43.746  60.421 -55.676  1.00  0.00     0.087 C 
HETATM    5  C   UNL     1     -43.330  60.551 -54.388  1.00  0.00     0.057 C 
HETATM    6  C   UNL     1     -43.146  61.921 -53.755  1.00  0.00     0.019 C 
HETATM    7  N   UNL     1     -42.993  63.058 -53.229  1.00  0.00    -0.096 N 
HETATM    8  C   UNL     1     -42.968  59.334 -53.544  1.00  0.00     0.129 C 
HETATM    9  C   UNL     1     -42.679  58.110 -54.401  1.00  0.00     0.048 C 
HETATM   10  H   UNL     1     -43.944  59.089 -57.220  1.00  0.00     0.166 HD
ENDROOT
BRANCH   4  11
HETATM   11  S   UNL     1     -44.138  61.878 -56.588  1.00  0.00    -0.102 SA
BRANCH  11  12
HETATM   12  C   UNL     1     -42.542  62.495 -57.172  1.00  0.00     0.183 C 
BRANCH  12  13
HETATM   13  C   UNL     1     -41.838  61.510 -58.096  1.00  0.00     0.227 C 
HETATM   14  N   UNL     1     -42.594  61.022 -59.139  1.00  0.00    -0.356 N 
HETATM   15  H   UNL     1     -43.595  60.984 -58.986  1.00  0.00     0.162 HD
HETATM   16  O   UNL     1     -40.640  61.267 -57.969  1.00  0.00    -0.273 OA
BRANCH  14  17
HETATM   17  C   UNL     1     -42.026  60.086 -60.085  1.00  0.00     0.161 C 
BRANCH  17  18
HETATM   18  C   UNL     1     -42.666  58.717 -60.079  1.00  0.00    -0.041 A 
HETATM   19  C   UNL     1     -44.052  58.509 -60.153  1.00  0.00     0.009 A 
HETATM   20  C   UNL     1     -44.580  57.216 -60.168  1.00  0.00     0.001 A 
HETATM   21  C   UNL     1     -43.733  56.111 -60.130  1.00  0.00     0.000 A 
HETATM   22  C   UNL     1     -42.355  56.298 -60.077  1.00  0.00     0.001 A 
HETATM   23  C   UNL     1     -41.827  57.590 -60.051  1.00  0.00     0.009 A 
ENDBRANCH  17  18
ENDBRANCH  14  17
ENDBRANCH  12  13
ENDBRANCH  11  12
ENDBRANCH   4  11
BRANCH   8  24
HETATM   24  C   UNL     1     -44.020  59.049 -52.502  1.00  0.00     0.066 A 
HETATM   25  O   UNL     1     -43.896  57.874 -51.818  1.00  0.00    -0.326 OA
HETATM   26  C   UNL     1     -44.943  57.806 -50.957  1.00  0.00     0.142 A 
HETATM   27  C   UNL     1     -45.755  58.907 -51.095  1.00  0.00     0.027 A 
HETATM   28  C   UNL     1     -45.164  59.710 -52.098  1.00  0.00     0.035 A 
ENDBRANCH   8  24
BRANCH   9  29
HETATM   29  C   UNL     1     -41.720  57.081 -53.904  1.00  0.00     0.255 C 
HETATM   30  N   UNL     1     -42.280  55.879 -53.527  1.00  0.00    -0.322 N 
HETATM   31  H   UNL     1     -43.276  55.860 -53.340  1.00  0.00     0.169 HD
HETATM   32  O   UNL     1     -40.540  57.387 -53.754  1.00  0.00    -0.268 OA
BRANCH  30  33
HETATM   33  C   UNL     1     -41.530  54.805 -52.989  1.00  0.00     0.057 A 
HETATM   34  C   UNL     1     -41.188  54.660 -51.630  1.00  0.00     0.062 A 
HETATM   35 CL   UNL     1     -41.394  55.927 -50.465  1.00  0.00    -0.082 Cl
HETATM   36  C   UNL     1     -40.500  53.523 -51.194  1.00  0.00     0.050 A 
HETATM   37  C   UNL     1     -40.130  52.543 -52.109  1.00  0.00     0.035 A 
HETATM   38 CL   UNL     1     -39.290  51.142 -51.571  1.00  0.00    -0.084 Cl
HETATM   39  C   UNL     1     -40.409  52.701 -53.464  1.00  0.00     0.026 A 
HETATM   40  C   UNL     1     -41.093  53.838 -53.905  1.00  0.00     0.033 A 
ENDBRANCH  30  33
ENDBRANCH   9  29
TORSDOF 8
ENDMDL
MODEL 9
REMARK VINA RESULT:      -8.5      5.199     10.606
REMARK  8 active torsions:
REMARK  status: ('A' for Active; 'I' for Inactive)
REMARK    1  A    between atoms: C_4  and  S_5 
REMARK    2  A    between atoms: S_5  and  C_6 
REMARK    3  A    between atoms: C_6  and  C_7 
REMARK       I    between atoms: C_7  and  N_8 
REMARK    4  A    between atoms: N_8  and  C_9 
REMARK    5  A    between atoms: C_9  and  C_10 
REMARK    6  A    between atoms: C_20  and  C_21 
REMARK    7  A    between atoms: C_26  and  C_27 
REMARK       I    between atoms: C_27  and  N_28 
REMARK    8  A    between atoms: N_28  and  C_29 
ROOT
HETATM    1  C   UNL     1     -45.717  60.079 -53.574  1.00  0.00     0.069 C 
HETATM    2  C   UNL     1     -44.793  59.001 -53.062  1.00  0.00     0.019 C 
HETATM    3  N   UNL     1     -44.242  58.165 -54.028  1.00  0.00    -0.353 N 
HETATM    4  C   UNL     1     -43.694  56.920 -53.741  1.00  0.00     0.087 C 
HETATM    5  C   UNL     1     -43.352  56.655 -52.451  1.00  0.00     0.057 C 
HETATM    6  C   UNL     1     -42.842  55.284 -52.038  1.00  0.00     0.019 C 
HETATM    7  N   UNL     1     -42.419  54.146 -51.694  1.00  0.00    -0.096 N 
HETATM    8  C   UNL     1     -43.528  57.698 -51.354  1.00  0.00     0.129 C 
HETATM    9  C   UNL     1     -44.505  58.793 -51.757  1.00  0.00     0.048 C 
HETATM   10  H   UNL     1     -44.645  58.270 -54.952  1.00  0.00     0.166 HD
ENDROOT
BRANCH   4  11
HETATM   11  S   UNL     1     -43.469  55.656 -54.950  1.00  0.00    -0.102 SA
BRANCH  11  12
HETATM   12  C   UNL     1     -42.095  56.242 -55.972  1.00  0.00     0.183 C 
BRANCH  12  13
HETATM   13  C   UNL     1     -42.561  57.107 -57.135  1.00  0.00     0.227 C 
HETATM   14  N   UNL     1     -42.424  56.550 -58.388  1.00  0.00    -0.356 N 
HETATM   15  H   UNL     1     -41.681  55.870 -58.496  1.00  0.00     0.162 HD
HETATM   16  O   UNL     1     -43.125  58.182 -56.940  1.00  0.00    -0.273 OA
BRANCH  14  17
HETATM   17  C   UNL     1     -42.842  57.279 -59.566  1.00  0.00     0.161 C 
BRANCH  17  18
HETATM   18  C   UNL     1     -44.241  56.963 -60.041  1.00  0.00    -0.041 A 
HETATM   19  C   UNL     1     -44.612  55.726 -60.592  1.00  0.00     0.009 A 
HETATM   20  C   UNL     1     -45.930  55.488 -60.989  1.00  0.00     0.001 A 
HETATM   21  C   UNL     1     -46.901  56.473 -60.824  1.00  0.00     0.000 A 
HETATM   22  C   UNL     1     -46.555  57.698 -60.262  1.00  0.00     0.001 A 
HETATM   23  C   UNL     1     -45.237  57.941 -59.874  1.00  0.00     0.009 A 
ENDBRANCH  17  18
ENDBRANCH  14  17
ENDBRANCH  12  13
ENDBRANCH  11  12
ENDBRANCH   4  11
BRANCH   8  24
HETATM   24  C   UNL     1     -42.202  58.269 -50.915  1.00  0.00     0.066 A 
HETATM   25  O   UNL     1     -42.120  59.631 -50.845  1.00  0.00    -0.326 OA
HETATM   26  C   UNL     1     -40.853  59.930 -50.457  1.00  0.00     0.142 A 
HETATM   27  C   UNL     1     -40.111  58.782 -50.304  1.00  0.00     0.027 A 
HETATM   28  C   UNL     1     -40.979  57.706 -50.605  1.00  0.00     0.035 A 
ENDBRANCH   8  24
BRANCH   9  29
HETATM   29  C   UNL     1     -45.302  59.485 -50.702  1.00  0.00     0.255 C 
HETATM   30  N   UNL     1     -44.786  60.683 -50.256  1.00  0.00    -0.322 N 
HETATM   31  H   UNL     1     -43.807  60.873 -50.441  1.00  0.00     0.169 HD
HETATM   32  O   UNL     1     -46.279  58.916 -50.222  1.00  0.00    -0.268 OA
BRANCH  30  33
HETATM   33  C   UNL     1     -45.381  61.453 -49.228  1.00  0.00     0.057 A 
HETATM   34  C   UNL     1     -46.504  62.287 -49.390  1.00  0.00     0.062 A 
HETATM   35 CL   UNL     1     -47.147  62.713 -50.942  1.00  0.00    -0.082 Cl
HETATM   36  C   UNL     1     -47.053  62.953 -48.289  1.00  0.00     0.050 A 
HETATM   37  C   UNL     1     -46.472  62.810 -47.032  1.00  0.00     0.035 A 
HETATM   38 CL   UNL     1     -47.152  63.623 -45.678  1.00  0.00    -0.084 Cl
HETATM   39  C   UNL     1     -45.326  62.035 -46.868  1.00  0.00     0.026 A 
HETATM   40  C   UNL     1     -44.772  61.372 -47.967  1.00  0.00     0.033 A 
ENDBRANCH  30  33
ENDBRANCH   9  29
TORSDOF 8
ENDMDL
MODEL 10
REMARK VINA RESULT:      -8.3      4.622      8.646
REMARK  8 active torsions:
REMARK  status: ('A' for Active; 'I' for Inactive)
REMARK    1  A    between atoms: C_4  and  S_5 
REMARK    2  A    between atoms: S_5  and  C_6 
REMARK    3  A    between atoms: C_6  and  C_7 
REMARK       I    between atoms: C_7  and  N_8 
REMARK    4  A    between atoms: N_8  and  C_9 
REMARK    5  A    between atoms: C_9  and  C_10 
REMARK    6  A    between atoms: C_20  and  C_21 
REMARK    7  A    between atoms: C_26  and  C_27 
REMARK       I    between atoms: C_27  and  N_28 
REMARK    8  A    between atoms: N_28  and  C_29 
ROOT
HETATM    1  C   UNL     1     -42.991  55.082 -56.688  1.00  0.00     0.069 C 
HETATM    2  C   UNL     1     -43.061  56.342 -55.859  1.00  0.00     0.019 C 
HETATM    3  N   UNL     1     -43.779  57.396 -56.415  1.00  0.00    -0.353 N 
HETATM    4  C   UNL     1     -43.645  58.716 -56.003  1.00  0.00     0.087 C 
HETATM    5  C   UNL     1     -43.076  58.951 -54.790  1.00  0.00     0.057 C 
HETATM    6  C   UNL     1     -42.801  60.367 -54.310  1.00  0.00     0.019 C 
HETATM    7  N   UNL     1     -42.572  61.542 -53.912  1.00  0.00    -0.096 N 
HETATM    8  C   UNL     1     -42.630  57.806 -53.888  1.00  0.00     0.129 C 
HETATM    9  C   UNL     1     -42.460  56.505 -54.659  1.00  0.00     0.048 C 
HETATM   10  H   UNL     1     -44.042  57.258 -57.385  1.00  0.00     0.166 HD
ENDROOT
BRANCH   4  11
HETATM   11  S   UNL     1     -44.126  60.096 -56.990  1.00  0.00    -0.102 SA
BRANCH  11  12
HETATM   12  C   UNL     1     -45.020  59.369 -58.385  1.00  0.00     0.183 C 
BRANCH  12  13
HETATM   13  C   UNL     1     -44.380  59.702 -59.726  1.00  0.00     0.227 C 
HETATM   14  N   UNL     1     -43.259  60.502 -59.672  1.00  0.00    -0.356 N 
HETATM   15  H   UNL     1     -43.199  61.135 -58.883  1.00  0.00     0.162 HD
HETATM   16  O   UNL     1     -44.784  59.188 -60.767  1.00  0.00    -0.273 OA
BRANCH  14  17
HETATM   17  C   UNL     1     -42.563  60.875 -60.885  1.00  0.00     0.161 C 
BRANCH  17  18
HETATM   18  C   UNL     1     -41.374  61.784 -60.675  1.00  0.00    -0.041 A 
HETATM   19  C   UNL     1     -40.837  62.078 -59.412  1.00  0.00     0.009 A 
HETATM   20  C   UNL     1     -39.719  62.907 -59.288  1.00  0.00     0.001 A 
HETATM   21  C   UNL     1     -39.110  63.439 -60.422  1.00  0.00     0.000 A 
HETATM   22  C   UNL     1     -39.618  63.142 -61.683  1.00  0.00     0.001 A 
HETATM   23  C   UNL     1     -40.740  62.322 -61.808  1.00  0.00     0.009 A 
ENDBRANCH  17  18
ENDBRANCH  14  17
ENDBRANCH  12  13
ENDBRANCH  11  12
ENDBRANCH   4  11
BRANCH   8  24
HETATM   24  C   UNL     1     -43.553  57.639 -52.707  1.00  0.00     0.066 A 
HETATM   25  O   UNL     1     -43.210  56.678 -51.799  1.00  0.00    -0.326 OA
HETATM   26  C   UNL     1     -44.173  56.679 -50.842  1.00  0.00     0.142 A 
HETATM   27  C   UNL     1     -45.145  57.606 -51.135  1.00  0.00     0.027 A 
HETATM   28  C   UNL     1     -44.750  58.225 -52.344  1.00  0.00     0.035 A 
ENDBRANCH   8  24
BRANCH   9  29
HETATM   29  C   UNL     1     -41.460  55.502 -54.187  1.00  0.00     0.255 C 
HETATM   30  N   UNL     1     -41.975  54.434 -53.483  1.00  0.00    -0.322 N 
HETATM   31  H   UNL     1     -42.906  54.531 -53.092  1.00  0.00     0.169 HD
HETATM   32  O   UNL     1     -40.264  55.731 -54.346  1.00  0.00    -0.268 OA
BRANCH  30  33
HETATM   33  C   UNL     1     -41.173  53.413 -52.920  1.00  0.00     0.057 A 
HETATM   34  C   UNL     1     -40.761  53.359 -51.573  1.00  0.00     0.062 A 
HETATM   35 CL   UNL     1     -40.942  54.689 -50.477  1.00  0.00    -0.082 Cl
HETATM   36  C   UNL     1     -40.024  52.266 -51.106  1.00  0.00     0.050 A 
HETATM   37  C   UNL     1     -39.673  51.241 -51.979  1.00  0.00     0.035 A 
HETATM   38 CL   UNL     1     -38.773  49.895 -51.400  1.00  0.00    -0.084 Cl
HETATM   39  C   UNL     1     -40.023  51.310 -53.325  1.00  0.00     0.026 A 
HETATM   40  C   UNL     1     -40.756  52.402 -53.798  1.00  0.00     0.033 A 
ENDBRANCH  30  33
ENDBRANCH   9  29
TORSDOF 8
ENDMDL
