MODEL 1
REMARK VINA RESULT:      -8.1      0.000      0.000
REMARK  8 active torsions:
REMARK  status: ('A' for Active; 'I' for Inactive)
REMARK    1  A    between atoms: C_2  and  C_3 
REMARK    2  A    between atoms: C_3  and  N_4 
REMARK    3  A    between atoms: C_7  and  C_8 
REMARK       I    between atoms: C_8  and  N_9 
REMARK    4  A    between atoms: N_9  and  N_10 
REMARK       I    between atoms: N_10  and  C_11 
REMARK    5  A    between atoms: C_11  and  C_12 
REMARK    6  A    between atoms: C_12  and  O_13 
REMARK    7  A    between atoms: O_13  and  C_14 
REMARK    8  A    between atoms: C_23  and  C_24 
ROOT
HETATM    1  C   UNL     1     -43.986  55.202 -50.795  1.00  0.00     0.273 C 
HETATM    2  N   UNL     1     -43.836  54.054 -51.568  1.00  0.00    -0.263 N 
HETATM    3  O   UNL     1     -44.840  55.218 -49.912  1.00  0.00    -0.266 OA
HETATM    4  H   UNL     1     -44.276  53.228 -51.172  1.00  0.00     0.190 HD
ENDROOT
BRANCH   2   5
HETATM    5  N   UNL     1     -42.751  53.845 -52.431  1.00  0.00    -0.265 N 
HETATM    6  C   UNL     1     -42.863  54.137 -53.782  1.00  0.00     0.260 C 
HETATM    7  O   UNL     1     -43.850  54.663 -54.290  1.00  0.00    -0.269 OA
HETATM    8  H   UNL     1     -41.873  53.525 -52.033  1.00  0.00     0.190 HD
BRANCH   6   9
HETATM    9  C   UNL     1     -41.663  53.663 -54.591  1.00  0.00     0.280 C 
BRANCH   9  10
HETATM   10  O   UNL     1     -40.568  53.453 -53.701  1.00  0.00    -0.342 OA
BRANCH  10  11
HETATM   11  C   UNL     1     -40.212  52.138 -53.565  1.00  0.00     0.069 A 
HETATM   12  C   UNL     1     -39.991  51.690 -52.259  1.00  0.00     0.043 A 
HETATM   13  C   UNL     1     -39.641  50.355 -52.012  1.00  0.00    -0.059 A 
HETATM   14  C   UNL     1     -39.399  49.866 -50.614  1.00  0.00     0.048 C 
HETATM   15  C   UNL     1     -39.556  49.465 -53.088  1.00  0.00     0.007 A 
HETATM   16  C   UNL     1     -39.800  49.905 -54.389  1.00  0.00     0.003 A 
HETATM   17  C   UNL     1     -40.129  51.240 -54.629  1.00  0.00     0.037 A 
ENDBRANCH  10  11
ENDBRANCH   9  10
ENDBRANCH   6   9
ENDBRANCH   2   5
BRANCH   1  18
HETATM   18  C   UNL     1     -43.135  56.340 -51.113  1.00  0.00     0.077 A 
HETATM   19  C   UNL     1     -43.454  57.378 -52.019  1.00  0.00     0.158 A 
HETATM   20  N   UNL     1     -42.450  58.225 -52.225  1.00  0.00    -0.183 NA
HETATM   21  N   UNL     1     -41.496  57.802 -51.371  1.00  0.00    -0.268 N 
HETATM   22  C   UNL     1     -41.854  56.660 -50.677  1.00  0.00     0.052 A 
BRANCH  21  23
HETATM   23  C   UNL     1     -40.203  58.490 -51.338  1.00  0.00     0.106 C 
HETATM   24  C   UNL     1     -39.840  58.973 -52.746  1.00  0.00     0.034 C 
BRANCH  23  25
HETATM   25  C   UNL     1     -40.131  59.668 -50.341  1.00  0.00     0.022 C 
HETATM   26  C   UNL     1     -38.707  60.022 -49.934  1.00  0.00     0.007 C 
ENDBRANCH  23  25
ENDBRANCH  21  23
BRANCH  22  27
HETATM   27  C   UNL     1     -40.918  55.930 -49.708  1.00  0.00     0.038 A 
HETATM   28  C   UNL     1     -41.293  54.579 -49.150  1.00  0.00     0.011 A 
HETATM   29  C   UNL     1     -40.180  54.686 -50.140  1.00  0.00     0.011 A 
ENDBRANCH  22  27
ENDBRANCH   1  18
TORSDOF 8
ENDMDL
MODEL 2
REMARK VINA RESULT:      -7.9      2.417      4.544
REMARK  8 active torsions:
REMARK  status: ('A' for Active; 'I' for Inactive)
REMARK    1  A    between atoms: C_2  and  C_3 
REMARK    2  A    between atoms: C_3  and  N_4 
REMARK    3  A    between atoms: C_7  and  C_8 
REMARK       I    between atoms: C_8  and  N_9 
REMARK    4  A    between atoms: N_9  and  N_10 
REMARK       I    between atoms: N_10  and  C_11 
REMARK    5  A    between atoms: C_11  and  C_12 
REMARK    6  A    between atoms: C_12  and  O_13 
REMARK    7  A    between atoms: O_13  and  C_14 
REMARK    8  A    between atoms: C_23  and  C_24 
ROOT
HETATM    1  C   UNL     1     -41.499  57.912 -50.885  1.00  0.00     0.273 C 
HETATM    2  N   UNL     1     -41.383  56.916 -49.920  1.00  0.00    -0.263 N 
HETATM    3  O   UNL     1     -41.434  59.089 -50.537  1.00  0.00    -0.266 OA
HETATM    4  H   UNL     1     -41.001  57.238 -49.035  1.00  0.00     0.190 HD
ENDROOT
BRANCH   2   5
HETATM    5  N   UNL     1     -41.209  55.560 -50.232  1.00  0.00    -0.265 N 
HETATM    6  C   UNL     1     -40.972  54.633 -49.228  1.00  0.00     0.260 C 
HETATM    7  O   UNL     1     -40.985  54.902 -48.030  1.00  0.00    -0.269 OA
HETATM    8  H   UNL     1     -41.310  55.273 -51.201  1.00  0.00     0.190 HD
BRANCH   6   9
HETATM    9  C   UNL     1     -40.612  53.256 -49.768  1.00  0.00     0.280 C 
BRANCH   9  10
HETATM   10  O   UNL     1     -39.618  53.409 -50.780  1.00  0.00    -0.342 OA
BRANCH  10  11
HETATM   11  C   UNL     1     -40.007  52.948 -52.010  1.00  0.00     0.069 A 
HETATM   12  C   UNL     1     -39.532  51.685 -52.374  1.00  0.00     0.043 A 
HETATM   13  C   UNL     1     -39.889  51.116 -53.605  1.00  0.00    -0.059 A 
HETATM   14  C   UNL     1     -39.383  49.761 -54.005  1.00  0.00     0.048 C 
HETATM   15  C   UNL     1     -40.761  51.813 -54.449  1.00  0.00     0.007 A 
HETATM   16  C   UNL     1     -41.255  53.064 -54.076  1.00  0.00     0.003 A 
HETATM   17  C   UNL     1     -40.879  53.632 -52.857  1.00  0.00     0.037 A 
ENDBRANCH  10  11
ENDBRANCH   9  10
ENDBRANCH   6   9
ENDBRANCH   2   5
BRANCH   1  18
HETATM   18  C   UNL     1     -41.730  57.491 -52.259  1.00  0.00     0.077 A 
HETATM   19  C   UNL     1     -40.731  57.318 -53.246  1.00  0.00     0.158 A 
HETATM   20  N   UNL     1     -41.222  57.055 -54.453  1.00  0.00    -0.183 NA
HETATM   21  N   UNL     1     -42.550  56.953 -54.241  1.00  0.00    -0.268 N 
HETATM   22  C   UNL     1     -42.915  57.214 -52.932  1.00  0.00     0.052 A 
BRANCH  21  23
HETATM   23  C   UNL     1     -43.442  56.693 -55.374  1.00  0.00     0.106 C 
HETATM   24  C   UNL     1     -43.647  57.983 -56.175  1.00  0.00     0.034 C 
BRANCH  23  25
HETATM   25  C   UNL     1     -42.973  55.559 -56.311  1.00  0.00     0.022 C 
HETATM   26  C   UNL     1     -43.014  55.943 -57.784  1.00  0.00     0.007 C 
ENDBRANCH  23  25
ENDBRANCH  21  23
BRANCH  22  27
HETATM   27  C   UNL     1     -44.369  57.246 -52.448  1.00  0.00     0.038 A 
HETATM   28  C   UNL     1     -44.687  57.264 -50.973  1.00  0.00     0.011 A 
HETATM   29  C   UNL     1     -44.936  58.484 -51.796  1.00  0.00     0.011 A 
ENDBRANCH  22  27
ENDBRANCH   1  18
TORSDOF 8
ENDMDL
MODEL 3
REMARK VINA RESULT:      -7.8      4.425      6.216
REMARK  8 active torsions:
REMARK  status: ('A' for Active; 'I' for Inactive)
REMARK    1  A    between atoms: C_2  and  C_3 
REMARK    2  A    between atoms: C_3  and  N_4 
REMARK    3  A    between atoms: C_7  and  C_8 
REMARK       I    between atoms: C_8  and  N_9 
REMARK    4  A    between atoms: N_9  and  N_10 
REMARK       I    between atoms: N_10  and  C_11 
REMARK    5  A    between atoms: C_11  and  C_12 
REMARK    6  A    between atoms: C_12  and  O_13 
REMARK    7  A    between atoms: O_13  and  C_14 
REMARK    8  A    between atoms: C_23  and  C_24 
ROOT
HETATM    1  C   UNL     1     -44.989  58.090 -54.962  1.00  0.00     0.273 C 
HETATM    2  N   UNL     1     -45.215  56.822 -54.436  1.00  0.00    -0.263 N 
HETATM    3  O   UNL     1     -45.558  59.055 -54.456  1.00  0.00    -0.266 OA
HETATM    4  H   UNL     1     -45.639  56.825 -53.512  1.00  0.00     0.190 HD
ENDROOT
BRANCH   2   5
HETATM    5  N   UNL     1     -44.448  55.700 -54.780  1.00  0.00    -0.265 N 
HETATM    6  C   UNL     1     -43.431  55.262 -53.945  1.00  0.00     0.260 C 
HETATM    7  O   UNL     1     -43.192  55.749 -52.843  1.00  0.00    -0.269 OA
HETATM    8  H   UNL     1     -44.690  55.192 -55.626  1.00  0.00     0.190 HD
BRANCH   6   9
HETATM    9  C   UNL     1     -42.584  54.163 -54.572  1.00  0.00     0.280 C 
BRANCH   9  10
HETATM   10  O   UNL     1     -41.224  54.360 -54.188  1.00  0.00    -0.342 OA
BRANCH  10  11
HETATM   11  C   UNL     1     -40.682  53.298 -53.514  1.00  0.00     0.069 A 
HETATM   12  C   UNL     1     -40.420  52.155 -54.274  1.00  0.00     0.043 A 
HETATM   13  C   UNL     1     -39.847  51.021 -53.682  1.00  0.00    -0.059 A 
HETATM   14  C   UNL     1     -39.563  49.788 -54.489  1.00  0.00     0.048 C 
HETATM   15  C   UNL     1     -39.503  51.062 -52.326  1.00  0.00     0.007 A 
HETATM   16  C   UNL     1     -39.742  52.211 -51.572  1.00  0.00     0.003 A 
HETATM   17  C   UNL     1     -40.331  53.330 -52.165  1.00  0.00     0.037 A 
ENDBRANCH  10  11
ENDBRANCH   9  10
ENDBRANCH   6   9
ENDBRANCH   2   5
BRANCH   1  18
HETATM   18  C   UNL     1     -44.111  58.191 -56.118  1.00  0.00     0.077 A 
HETATM   19  C   UNL     1     -42.730  58.496 -56.078  1.00  0.00     0.158 A 
HETATM   20  N   UNL     1     -42.190  58.654 -57.283  1.00  0.00    -0.183 NA
HETATM   21  N   UNL     1     -43.198  58.350 -58.126  1.00  0.00    -0.268 N 
HETATM   22  C   UNL     1     -44.386  58.069 -57.476  1.00  0.00     0.052 A 
BRANCH  21  23
HETATM   23  C   UNL     1     -42.980  58.445 -59.572  1.00  0.00     0.106 C 
HETATM   24  C   UNL     1     -42.215  59.732 -59.895  1.00  0.00     0.034 C 
BRANCH  23  25
HETATM   25  C   UNL     1     -42.255  57.230 -60.190  1.00  0.00     0.022 C 
HETATM   26  C   UNL     1     -42.681  55.902 -59.578  1.00  0.00     0.007 C 
ENDBRANCH  23  25
ENDBRANCH  21  23
BRANCH  22  27
HETATM   27  C   UNL     1     -45.702  57.775 -58.205  1.00  0.00     0.038 A 
HETATM   28  C   UNL     1     -47.023  58.184 -57.600  1.00  0.00     0.011 A 
HETATM   29  C   UNL     1     -46.513  58.895 -58.810  1.00  0.00     0.011 A 
ENDBRANCH  22  27
ENDBRANCH   1  18
TORSDOF 8
ENDMDL
MODEL 4
REMARK VINA RESULT:      -7.7      2.104      3.526
REMARK  8 active torsions:
REMARK  status: ('A' for Active; 'I' for Inactive)
REMARK    1  A    between atoms: C_2  and  C_3 
REMARK    2  A    between atoms: C_3  and  N_4 
REMARK    3  A    between atoms: C_7  and  C_8 
REMARK       I    between atoms: C_8  and  N_9 
REMARK    4  A    between atoms: N_9  and  N_10 
REMARK       I    between atoms: N_10  and  C_11 
REMARK    5  A    between atoms: C_11  and  C_12 
REMARK    6  A    between atoms: C_12  and  O_13 
REMARK    7  A    between atoms: O_13  and  C_14 
REMARK    8  A    between atoms: C_23  and  C_24 
ROOT
HETATM    1  C   UNL     1     -44.819  57.212 -54.229  1.00  0.00     0.273 C 
HETATM    2  N   UNL     1     -44.460  55.868 -54.284  1.00  0.00    -0.263 N 
HETATM    3  O   UNL     1     -45.539  57.672 -55.112  1.00  0.00    -0.266 OA
HETATM    4  H   UNL     1     -45.030  55.312 -54.915  1.00  0.00     0.190 HD
ENDROOT
BRANCH   2   5
HETATM    5  N   UNL     1     -43.845  55.193 -53.219  1.00  0.00    -0.265 N 
HETATM    6  C   UNL     1     -42.498  54.871 -53.277  1.00  0.00     0.260 C 
HETATM    7  O   UNL     1     -41.749  55.215 -54.188  1.00  0.00    -0.269 OA
HETATM    8  H   UNL     1     -44.399  54.995 -52.391  1.00  0.00     0.190 HD
BRANCH   6   9
HETATM    9  C   UNL     1     -42.056  53.972 -52.131  1.00  0.00     0.280 C 
BRANCH   9  10
HETATM   10  O   UNL     1     -40.650  53.752 -52.239  1.00  0.00    -0.342 OA
BRANCH  10  11
HETATM   11  C   UNL     1     -40.292  52.432 -52.173  1.00  0.00     0.069 A 
HETATM   12  C   UNL     1     -40.112  51.779 -53.396  1.00  0.00     0.043 A 
HETATM   13  C   UNL     1     -39.726  50.432 -53.436  1.00  0.00    -0.059 A 
HETATM   14  C   UNL     1     -39.532  49.723 -54.744  1.00  0.00     0.048 C 
HETATM   15  C   UNL     1     -39.484  49.758 -52.234  1.00  0.00     0.007 A 
HETATM   16  C   UNL     1     -39.640  50.415 -51.013  1.00  0.00     0.003 A 
HETATM   17  C   UNL     1     -40.043  51.752 -50.981  1.00  0.00     0.037 A 
ENDBRANCH  10  11
ENDBRANCH   9  10
ENDBRANCH   6   9
ENDBRANCH   2   5
BRANCH   1  18
HETATM   18  C   UNL     1     -44.279  58.006 -53.136  1.00  0.00     0.077 A 
HETATM   19  C   UNL     1     -44.917  58.239 -51.894  1.00  0.00     0.158 A 
HETATM   20  N   UNL     1     -44.269  59.106 -51.123  1.00  0.00    -0.183 NA
HETATM   21  N   UNL     1     -43.142  59.368 -51.816  1.00  0.00    -0.268 N 
HETATM   22  C   UNL     1     -43.099  58.735 -53.044  1.00  0.00     0.052 A 
BRANCH  21  23
HETATM   23  C   UNL     1     -42.174  60.328 -51.278  1.00  0.00     0.106 C 
HETATM   24  C   UNL     1     -42.914  61.548 -50.719  1.00  0.00     0.034 C 
BRANCH  23  25
HETATM   25  C   UNL     1     -41.227  59.748 -50.206  1.00  0.00     0.022 C 
HETATM   26  C   UNL     1     -39.969  59.121 -50.793  1.00  0.00     0.007 C 
ENDBRANCH  23  25
ENDBRANCH  21  23
BRANCH  22  27
HETATM   27  C   UNL     1     -41.967  58.934 -54.059  1.00  0.00     0.038 A 
HETATM   28  C   UNL     1     -42.178  58.607 -55.518  1.00  0.00     0.011 A 
HETATM   29  C   UNL     1     -42.043  60.032 -55.092  1.00  0.00     0.011 A 
ENDBRANCH  22  27
ENDBRANCH   1  18
TORSDOF 8
ENDMDL
MODEL 5
REMARK VINA RESULT:      -7.4      2.515      4.147
REMARK  8 active torsions:
REMARK  status: ('A' for Active; 'I' for Inactive)
REMARK    1  A    between atoms: C_2  and  C_3 
REMARK    2  A    between atoms: C_3  and  N_4 
REMARK    3  A    between atoms: C_7  and  C_8 
REMARK       I    between atoms: C_8  and  N_9 
REMARK    4  A    between atoms: N_9  and  N_10 
REMARK       I    between atoms: N_10  and  C_11 
REMARK    5  A    between atoms: C_11  and  C_12 
REMARK    6  A    between atoms: C_12  and  O_13 
REMARK    7  A    between atoms: O_13  and  C_14 
REMARK    8  A    between atoms: C_23  and  C_24 
ROOT
HETATM    1  C   UNL     1     -44.160  58.371 -51.473  1.00  0.00     0.273 C 
HETATM    2  N   UNL     1     -44.371  57.289 -50.622  1.00  0.00    -0.263 N 
HETATM    3  O   UNL     1     -44.174  59.507 -51.006  1.00  0.00    -0.266 OA
HETATM    4  H   UNL     1     -44.269  57.512 -49.636  1.00  0.00     0.190 HD
ENDROOT
BRANCH   2   5
HETATM    5  N   UNL     1     -44.146  55.958 -51.001  1.00  0.00    -0.265 N 
HETATM    6  C   UNL     1     -42.962  55.322 -50.658  1.00  0.00     0.260 C 
HETATM    7  O   UNL     1     -42.094  55.824 -49.949  1.00  0.00    -0.269 OA
HETATM    8  H   UNL     1     -44.888  55.463 -51.486  1.00  0.00     0.190 HD
BRANCH   6   9
HETATM    9  C   UNL     1     -42.810  53.959 -51.321  1.00  0.00     0.280 C 
BRANCH   9  10
HETATM   10  O   UNL     1     -41.437  53.577 -51.268  1.00  0.00    -0.342 OA
BRANCH  10  11
HETATM   11  C   UNL     1     -40.895  53.298 -52.495  1.00  0.00     0.069 A 
HETATM   12  C   UNL     1     -40.494  51.976 -52.706  1.00  0.00     0.043 A 
HETATM   13  C   UNL     1     -39.945  51.585 -53.935  1.00  0.00    -0.059 A 
HETATM   14  C   UNL     1     -39.510  50.168 -54.170  1.00  0.00     0.048 C 
HETATM   15  C   UNL     1     -39.840  52.527 -54.964  1.00  0.00     0.007 A 
HETATM   16  C   UNL     1     -40.262  53.842 -54.762  1.00  0.00     0.003 A 
HETATM   17  C   UNL     1     -40.790  54.229 -53.529  1.00  0.00     0.037 A 
ENDBRANCH  10  11
ENDBRANCH   9  10
ENDBRANCH   6   9
ENDBRANCH   2   5
BRANCH   1  18
HETATM   18  C   UNL     1     -43.972  58.085 -52.887  1.00  0.00     0.077 A 
HETATM   19  C   UNL     1     -45.001  58.006 -53.855  1.00  0.00     0.158 A 
HETATM   20  N   UNL     1     -44.574  57.601 -55.047  1.00  0.00    -0.183 NA
HETATM   21  N   UNL     1     -43.237  57.512 -54.893  1.00  0.00    -0.268 N 
HETATM   22  C   UNL     1     -42.818  57.787 -53.604  1.00  0.00     0.052 A 
BRANCH  21  23
HETATM   23  C   UNL     1     -42.413  57.056 -56.015  1.00  0.00     0.106 C 
HETATM   24  C   UNL     1     -42.839  55.643 -56.427  1.00  0.00     0.034 C 
BRANCH  23  25
HETATM   25  C   UNL     1     -42.429  57.992 -57.243  1.00  0.00     0.022 C 
HETATM   26  C   UNL     1     -42.031  59.425 -56.911  1.00  0.00     0.007 C 
ENDBRANCH  23  25
ENDBRANCH  21  23
BRANCH  22  27
HETATM   27  C   UNL     1     -41.360  57.675 -53.146  1.00  0.00     0.038 A 
HETATM   28  C   UNL     1     -40.412  58.839 -53.307  1.00  0.00     0.011 A 
HETATM   29  C   UNL     1     -40.870  58.443 -51.941  1.00  0.00     0.011 A 
ENDBRANCH  22  27
ENDBRANCH   1  18
TORSDOF 8
ENDMDL
MODEL 6
REMARK VINA RESULT:      -7.4      2.358      3.593
REMARK  8 active torsions:
REMARK  status: ('A' for Active; 'I' for Inactive)
REMARK    1  A    between atoms: C_2  and  C_3 
REMARK    2  A    between atoms: C_3  and  N_4 
REMARK    3  A    between atoms: C_7  and  C_8 
REMARK       I    between atoms: C_8  and  N_9 
REMARK    4  A    between atoms: N_9  and  N_10 
REMARK       I    between atoms: N_10  and  C_11 
REMARK    5  A    between atoms: C_11  and  C_12 
REMARK    6  A    between atoms: C_12  and  O_13 
REMARK    7  A    between atoms: O_13  and  C_14 
REMARK    8  A    between atoms: C_23  and  C_24 
ROOT
HETATM    1  C   UNL     1     -43.713  58.148 -55.710  1.00  0.00     0.273 C 
HETATM    2  N   UNL     1     -43.100  57.171 -56.489  1.00  0.00    -0.263 N 
HETATM    3  O   UNL     1     -44.829  58.550 -56.029  1.00  0.00    -0.266 OA
HETATM    4  H   UNL     1     -43.733  56.685 -57.118  1.00  0.00     0.190 HD
ENDROOT
BRANCH   2   5
HETATM    5  N   UNL     1     -41.946  56.482 -56.089  1.00  0.00    -0.265 N 
HETATM    6  C   UNL     1     -42.014  55.139 -55.749  1.00  0.00     0.260 C 
HETATM    7  O   UNL     1     -43.029  54.456 -55.852  1.00  0.00    -0.269 OA
HETATM    8  H   UNL     1     -41.059  56.977 -56.105  1.00  0.00     0.190 HD
BRANCH   6   9
HETATM    9  C   UNL     1     -40.714  54.615 -55.153  1.00  0.00     0.280 C 
BRANCH   9  10
HETATM   10  O   UNL     1     -40.842  54.588 -53.732  1.00  0.00    -0.342 OA
BRANCH  10  11
HETATM   11  C   UNL     1     -40.465  53.399 -53.167  1.00  0.00     0.069 A 
HETATM   12  C   UNL     1     -40.240  52.340 -54.051  1.00  0.00     0.043 A 
HETATM   13  C   UNL     1     -39.832  51.086 -53.573  1.00  0.00    -0.059 A 
HETATM   14  C   UNL     1     -39.589  49.943 -54.514  1.00  0.00     0.048 C 
HETATM   15  C   UNL     1     -39.614  50.920 -52.201  1.00  0.00     0.007 A 
HETATM   16  C   UNL     1     -39.815  51.983 -51.320  1.00  0.00     0.003 A 
HETATM   17  C   UNL     1     -40.240  53.223 -51.802  1.00  0.00     0.037 A 
ENDBRANCH  10  11
ENDBRANCH   9  10
ENDBRANCH   6   9
ENDBRANCH   2   5
BRANCH   1  18
HETATM   18  C   UNL     1     -42.966  58.666 -54.573  1.00  0.00     0.077 A 
HETATM   19  C   UNL     1     -41.988  59.687 -54.628  1.00  0.00     0.158 A 
HETATM   20  N   UNL     1     -41.363  59.880 -53.470  1.00  0.00    -0.183 NA
HETATM   21  N   UNL     1     -42.004  59.053 -52.620  1.00  0.00    -0.268 N 
HETATM   22  C   UNL     1     -42.979  58.289 -53.235  1.00  0.00     0.052 A 
BRANCH  21  23
HETATM   23  C   UNL     1     -41.562  58.970 -51.226  1.00  0.00     0.106 C 
HETATM   24  C   UNL     1     -40.083  58.575 -51.177  1.00  0.00     0.034 C 
BRANCH  23  25
HETATM   25  C   UNL     1     -41.792  60.257 -50.404  1.00  0.00     0.022 C 
HETATM   26  C   UNL     1     -43.232  60.754 -50.458  1.00  0.00     0.007 C 
ENDBRANCH  23  25
ENDBRANCH  21  23
BRANCH  22  27
HETATM   27  C   UNL     1     -43.795  57.213 -52.509  1.00  0.00     0.038 A 
HETATM   28  C   UNL     1     -43.713  57.069 -51.009  1.00  0.00     0.011 A 
HETATM   29  C   UNL     1     -44.965  57.593 -51.633  1.00  0.00     0.011 A 
ENDBRANCH  22  27
ENDBRANCH   1  18
TORSDOF 8
ENDMDL
MODEL 7
REMARK VINA RESULT:      -7.3      2.283      4.357
REMARK  8 active torsions:
REMARK  status: ('A' for Active; 'I' for Inactive)
REMARK    1  A    between atoms: C_2  and  C_3 
REMARK    2  A    between atoms: C_3  and  N_4 
REMARK    3  A    between atoms: C_7  and  C_8 
REMARK       I    between atoms: C_8  and  N_9 
REMARK    4  A    between atoms: N_9  and  N_10 
REMARK       I    between atoms: N_10  and  C_11 
REMARK    5  A    between atoms: C_11  and  C_12 
REMARK    6  A    between atoms: C_12  and  O_13 
REMARK    7  A    between atoms: O_13  and  C_14 
REMARK    8  A    between atoms: C_23  and  C_24 
ROOT
HETATM    1  C   UNL     1     -41.786  58.544 -50.421  1.00  0.00     0.273 C 
HETATM    2  N   UNL     1     -41.221  57.424 -49.819  1.00  0.00    -0.263 N 
HETATM    3  O   UNL     1     -41.374  59.659 -50.111  1.00  0.00    -0.266 OA
HETATM    4  H   UNL     1     -40.335  57.606 -49.354  1.00  0.00     0.190 HD
ENDROOT
BRANCH   2   5
HETATM    5  N   UNL     1     -41.448  56.114 -50.266  1.00  0.00    -0.265 N 
HETATM    6  C   UNL     1     -41.298  55.041 -49.400  1.00  0.00     0.260 C 
HETATM    7  O   UNL     1     -41.053  55.156 -48.202  1.00  0.00    -0.269 OA
HETATM    8  H   UNL     1     -41.771  55.980 -51.219  1.00  0.00     0.190 HD
BRANCH   6   9
HETATM    9  C   UNL     1     -41.390  53.695 -50.105  1.00  0.00     0.280 C 
BRANCH   9  10
HETATM   10  O   UNL     1     -40.111  53.381 -50.656  1.00  0.00    -0.342 OA
BRANCH  10  11
HETATM   11  C   UNL     1     -40.154  53.012 -51.974  1.00  0.00     0.069 A 
HETATM   12  C   UNL     1     -39.791  51.692 -52.257  1.00  0.00     0.043 A 
HETATM   13  C   UNL     1     -39.820  51.211 -53.573  1.00  0.00    -0.059 A 
HETATM   14  C   UNL     1     -39.430  49.796 -53.887  1.00  0.00     0.048 C 
HETATM   15  C   UNL     1     -40.257  52.058 -54.597  1.00  0.00     0.007 A 
HETATM   16  C   UNL     1     -40.643  53.368 -54.313  1.00  0.00     0.003 A 
HETATM   17  C   UNL     1     -40.593  53.846 -53.002  1.00  0.00     0.037 A 
ENDBRANCH  10  11
ENDBRANCH   9  10
ENDBRANCH   6   9
ENDBRANCH   2   5
BRANCH   1  18
HETATM   18  C   UNL     1     -42.871  58.322 -51.366  1.00  0.00     0.077 A 
HETATM   19  C   UNL     1     -44.227  58.104 -51.026  1.00  0.00     0.158 A 
HETATM   20  N   UNL     1     -44.990  57.797 -52.070  1.00  0.00    -0.183 NA
HETATM   21  N   UNL     1     -44.153  57.915 -53.121  1.00  0.00    -0.268 N 
HETATM   22  C   UNL     1     -42.856  58.223 -52.753  1.00  0.00     0.052 A 
BRANCH  21  23
HETATM   23  C   UNL     1     -44.644  57.617 -54.469  1.00  0.00     0.106 C 
HETATM   24  C   UNL     1     -44.643  58.897 -55.312  1.00  0.00     0.034 C 
BRANCH  23  25
HETATM   25  C   UNL     1     -43.869  56.501 -55.202  1.00  0.00     0.022 C 
HETATM   26  C   UNL     1     -43.842  55.186 -54.433  1.00  0.00     0.007 C 
ENDBRANCH  23  25
ENDBRANCH  21  23
BRANCH  22  27
HETATM   27  C   UNL     1     -41.696  58.330 -53.749  1.00  0.00     0.038 A 
HETATM   28  C   UNL     1     -40.294  58.619 -53.267  1.00  0.00     0.011 A 
HETATM   29  C   UNL     1     -40.627  57.265 -53.803  1.00  0.00     0.011 A 
ENDBRANCH  22  27
ENDBRANCH   1  18
TORSDOF 8
ENDMDL
MODEL 8
REMARK VINA RESULT:      -7.2      2.200      3.488
REMARK  8 active torsions:
REMARK  status: ('A' for Active; 'I' for Inactive)
REMARK    1  A    between atoms: C_2  and  C_3 
REMARK    2  A    between atoms: C_3  and  N_4 
REMARK    3  A    between atoms: C_7  and  C_8 
REMARK       I    between atoms: C_8  and  N_9 
REMARK    4  A    between atoms: N_9  and  N_10 
REMARK       I    between atoms: N_10  and  C_11 
REMARK    5  A    between atoms: C_11  and  C_12 
REMARK    6  A    between atoms: C_12  and  O_13 
REMARK    7  A    between atoms: O_13  and  C_14 
REMARK    8  A    between atoms: C_23  and  C_24 
ROOT
HETATM    1  C   UNL     1     -44.133  59.095 -54.679  1.00  0.00     0.273 C 
HETATM    2  N   UNL     1     -44.561  57.844 -55.116  1.00  0.00    -0.263 N 
HETATM    3  O   UNL     1     -44.775  60.091 -55.001  1.00  0.00    -0.266 OA
HETATM    4  H   UNL     1     -45.518  57.831 -55.458  1.00  0.00     0.190 HD
ENDROOT
BRANCH   2   5
HETATM    5  N   UNL     1     -44.046  56.639 -54.619  1.00  0.00    -0.265 N 
HETATM    6  C   UNL     1     -43.197  55.865 -55.397  1.00  0.00     0.260 C 
HETATM    7  O   UNL     1     -42.778  56.205 -56.500  1.00  0.00    -0.269 OA
HETATM    8  H   UNL     1     -44.270  56.377 -53.663  1.00  0.00     0.190 HD
BRANCH   6   9
HETATM    9  C   UNL     1     -42.901  54.507 -54.775  1.00  0.00     0.280 C 
BRANCH   9  10
HETATM   10  O   UNL     1     -41.584  54.110 -55.154  1.00  0.00    -0.342 OA
BRANCH  10  11
HETATM   11  C   UNL     1     -40.931  53.381 -54.196  1.00  0.00     0.069 A 
HETATM   12  C   UNL     1     -40.964  53.898 -52.898  1.00  0.00     0.043 A 
HETATM   13  C   UNL     1     -40.342  53.216 -51.842  1.00  0.00    -0.059 A 
HETATM   14  C   UNL     1     -40.370  53.765 -50.446  1.00  0.00     0.048 C 
HETATM   15  C   UNL     1     -39.721  51.989 -52.098  1.00  0.00     0.007 A 
HETATM   16  C   UNL     1     -39.708  51.460 -53.389  1.00  0.00     0.003 A 
HETATM   17  C   UNL     1     -40.313  52.154 -54.438  1.00  0.00     0.037 A 
ENDBRANCH  10  11
ENDBRANCH   9  10
ENDBRANCH   6   9
ENDBRANCH   2   5
BRANCH   1  18
HETATM   18  C   UNL     1     -42.911  59.146 -53.888  1.00  0.00     0.077 A 
HETATM   19  C   UNL     1     -41.600  59.270 -54.407  1.00  0.00     0.158 A 
HETATM   20  N   UNL     1     -40.654  59.160 -53.480  1.00  0.00    -0.183 NA
HETATM   21  N   UNL     1     -41.348  59.067 -52.326  1.00  0.00    -0.268 N 
HETATM   22  C   UNL     1     -42.717  59.047 -52.515  1.00  0.00     0.052 A 
BRANCH  21  23
HETATM   23  C   UNL     1     -40.624  58.900 -51.063  1.00  0.00     0.106 C 
HETATM   24  C   UNL     1     -40.780  57.459 -50.567  1.00  0.00     0.034 C 
BRANCH  23  25
HETATM   25  C   UNL     1     -39.128  59.277 -51.128  1.00  0.00     0.022 C 
HETATM   26  C   UNL     1     -38.658  60.072 -49.916  1.00  0.00     0.007 C 
ENDBRANCH  23  25
ENDBRANCH  21  23
BRANCH  22  27
HETATM   27  C   UNL     1     -43.727  58.864 -51.376  1.00  0.00     0.038 A 
HETATM   28  C   UNL     1     -45.199  58.708 -51.672  1.00  0.00     0.011 A 
HETATM   29  C   UNL     1     -44.419  57.538 -51.166  1.00  0.00     0.011 A 
ENDBRANCH  22  27
ENDBRANCH   1  18
TORSDOF 8
ENDMDL
MODEL 9
REMARK VINA RESULT:      -6.9      2.618      4.478
REMARK  8 active torsions:
REMARK  status: ('A' for Active; 'I' for Inactive)
REMARK    1  A    between atoms: C_2  and  C_3 
REMARK    2  A    between atoms: C_3  and  N_4 
REMARK    3  A    between atoms: C_7  and  C_8 
REMARK       I    between atoms: C_8  and  N_9 
REMARK    4  A    between atoms: N_9  and  N_10 
REMARK       I    between atoms: N_10  and  C_11 
REMARK    5  A    between atoms: C_11  and  C_12 
REMARK    6  A    between atoms: C_12  and  O_13 
REMARK    7  A    between atoms: O_13  and  C_14 
REMARK    8  A    between atoms: C_23  and  C_24 
ROOT
HETATM    1  C   UNL     1     -41.787  59.458 -50.902  1.00  0.00     0.273 C 
HETATM    2  N   UNL     1     -41.401  58.410 -50.071  1.00  0.00    -0.263 N 
HETATM    3  O   UNL     1     -42.047  60.549 -50.402  1.00  0.00    -0.266 OA
HETATM    4  H   UNL     1     -41.119  58.703 -49.139  1.00  0.00     0.190 HD
ENDROOT
BRANCH   2   5
HETATM    5  N   UNL     1     -40.862  57.208 -50.550  1.00  0.00    -0.265 N 
HETATM    6  C   UNL     1     -41.660  56.080 -50.673  1.00  0.00     0.260 C 
HETATM    7  O   UNL     1     -42.870  56.071 -50.464  1.00  0.00    -0.269 OA
HETATM    8  H   UNL     1     -39.891  57.201 -50.850  1.00  0.00     0.190 HD
BRANCH   6   9
HETATM    9  C   UNL     1     -40.865  54.828 -51.015  1.00  0.00     0.280 C 
BRANCH   9  10
HETATM   10  O   UNL     1     -41.036  54.545 -52.403  1.00  0.00    -0.342 OA
BRANCH  10  11
HETATM   11  C   UNL     1     -40.552  53.320 -52.780  1.00  0.00     0.069 A 
HETATM   12  C   UNL     1     -40.268  52.424 -51.746  1.00  0.00     0.043 A 
HETATM   13  C   UNL     1     -39.787  51.138 -52.028  1.00  0.00    -0.059 A 
HETATM   14  C   UNL     1     -39.477  50.170 -50.925  1.00  0.00     0.048 C 
HETATM   15  C   UNL     1     -39.631  50.748 -53.363  1.00  0.00     0.007 A 
HETATM   16  C   UNL     1     -39.937  51.634 -54.397  1.00  0.00     0.003 A 
HETATM   17  C   UNL     1     -40.398  52.919 -54.107  1.00  0.00     0.037 A 
ENDBRANCH  10  11
ENDBRANCH   9  10
ENDBRANCH   6   9
ENDBRANCH   2   5
BRANCH   1  18
HETATM   18  C   UNL     1     -41.898  59.178 -52.326  1.00  0.00     0.077 A 
HETATM   19  C   UNL     1     -40.863  59.334 -53.278  1.00  0.00     0.158 A 
HETATM   20  N   UNL     1     -41.264  59.135 -54.530  1.00  0.00    -0.183 NA
HETATM   21  N   UNL     1     -42.548  58.744 -54.395  1.00  0.00    -0.268 N 
HETATM   22  C   UNL     1     -42.986  58.758 -53.083  1.00  0.00     0.052 A 
BRANCH  21  23
HETATM   23  C   UNL     1     -43.343  58.459 -55.592  1.00  0.00     0.106 C 
HETATM   24  C   UNL     1     -43.795  59.774 -56.236  1.00  0.00     0.034 C 
BRANCH  23  25
HETATM   25  C   UNL     1     -42.629  57.576 -56.639  1.00  0.00     0.022 C 
HETATM   26  C   UNL     1     -43.298  57.609 -58.007  1.00  0.00     0.007 C 
ENDBRANCH  23  25
ENDBRANCH  21  23
BRANCH  22  27
HETATM   27  C   UNL     1     -44.427  58.438 -52.668  1.00  0.00     0.038 A 
HETATM   28  C   UNL     1     -44.973  58.930 -51.350  1.00  0.00     0.011 A 
HETATM   29  C   UNL     1     -45.475  59.524 -52.625  1.00  0.00     0.011 A 
ENDBRANCH  22  27
ENDBRANCH   1  18
TORSDOF 8
ENDMDL
MODEL 10
REMARK VINA RESULT:      -6.9      2.657      6.759
REMARK  8 active torsions:
REMARK  status: ('A' for Active; 'I' for Inactive)
REMARK    1  A    between atoms: C_2  and  C_3 
REMARK    2  A    between atoms: C_3  and  N_4 
REMARK    3  A    between atoms: C_7  and  C_8 
REMARK       I    between atoms: C_8  and  N_9 
REMARK    4  A    between atoms: N_9  and  N_10 
REMARK       I    between atoms: N_10  and  C_11 
REMARK    5  A    between atoms: C_11  and  C_12 
REMARK    6  A    between atoms: C_12  and  O_13 
REMARK    7  A    between atoms: O_13  and  C_14 
REMARK    8  A    between atoms: C_23  and  C_24 
ROOT
HETATM    1  C   UNL     1     -43.145  55.248 -50.737  1.00  0.00     0.273 C 
HETATM    2  N   UNL     1     -42.787  56.594 -50.727  1.00  0.00    -0.263 N 
HETATM    3  O   UNL     1     -44.128  54.889 -50.095  1.00  0.00    -0.266 OA
HETATM    4  H   UNL     1     -43.519  57.214 -50.390  1.00  0.00     0.190 HD
ENDROOT
BRANCH   2   5
HETATM    5  N   UNL     1     -41.838  57.143 -51.600  1.00  0.00    -0.265 N 
HETATM    6  C   UNL     1     -41.520  58.491 -51.533  1.00  0.00     0.260 C 
HETATM    7  O   UNL     1     -41.961  59.258 -50.680  1.00  0.00    -0.269 OA
HETATM    8  H   UNL     1     -41.358  56.520 -52.243  1.00  0.00     0.190 HD
BRANCH   6   9
HETATM    9  C   UNL     1     -40.627  58.946 -52.679  1.00  0.00     0.280 C 
BRANCH   9  10
HETATM   10  O   UNL     1     -41.315  59.950 -53.423  1.00  0.00    -0.342 OA
BRANCH  10  11
HETATM   11  C   UNL     1     -42.344  59.464 -54.186  1.00  0.00     0.069 A 
HETATM   12  C   UNL     1     -41.987  58.588 -55.215  1.00  0.00     0.043 A 
HETATM   13  C   UNL     1     -42.968  58.020 -56.040  1.00  0.00    -0.059 A 
HETATM   14  C   UNL     1     -42.595  57.080 -57.149  1.00  0.00     0.048 C 
HETATM   15  C   UNL     1     -44.315  58.311 -55.795  1.00  0.00     0.007 A 
HETATM   16  C   UNL     1     -44.673  59.166 -54.753  1.00  0.00     0.003 A 
HETATM   17  C   UNL     1     -43.689  59.742 -53.947  1.00  0.00     0.037 A 
ENDBRANCH  10  11
ENDBRANCH   9  10
ENDBRANCH   6   9
ENDBRANCH   2   5
BRANCH   1  18
HETATM   18  C   UNL     1     -42.296  54.335 -51.488  1.00  0.00     0.077 A 
HETATM   19  C   UNL     1     -41.383  53.410 -50.927  1.00  0.00     0.158 A 
HETATM   20  N   UNL     1     -40.637  52.789 -51.835  1.00  0.00    -0.183 NA
HETATM   21  N   UNL     1     -41.132  53.231 -53.010  1.00  0.00    -0.268 N 
HETATM   22  C   UNL     1     -42.133  54.173 -52.860  1.00  0.00     0.052 A 
BRANCH  21  23
HETATM   23  C   UNL     1     -40.525  52.775 -54.263  1.00  0.00     0.106 C 
HETATM   24  C   UNL     1     -39.858  53.957 -54.973  1.00  0.00     0.034 C 
BRANCH  23  25
HETATM   25  C   UNL     1     -39.515  51.618 -54.101  1.00  0.00     0.022 C 
HETATM   26  C   UNL     1     -40.115  50.251 -54.405  1.00  0.00     0.007 C 
ENDBRANCH  23  25
ENDBRANCH  21  23
BRANCH  22  27
HETATM   27  C   UNL     1     -42.802  54.893 -54.036  1.00  0.00     0.038 A 
HETATM   28  C   UNL     1     -43.508  54.108 -55.115  1.00  0.00     0.011 A 
HETATM   29  C   UNL     1     -44.307  54.931 -54.159  1.00  0.00     0.011 A 
ENDBRANCH  22  27
ENDBRANCH   1  18
TORSDOF 8
ENDMDL
