MODEL 1
REMARK VINA RESULT:      -8.7      0.000      0.000
REMARK  4 active torsions:
REMARK  status: ('A' for Active; 'I' for Inactive)
REMARK       I    between atoms: C_2  and  N_3 
REMARK    1  A    between atoms: C_2  and  C_21 
REMARK    2  A    between atoms: N_3  and  C_4 
REMARK    3  A    between atoms: C_7  and  C_10 
REMARK    4  A    between atoms: C_24  and  N_27 
ROOT
HETATM    1  C   UNL     1     -43.531  56.721 -55.995  1.00  0.00     0.035 A 
HETATM    2  C   UNL     1     -42.155  56.914 -55.849  1.00  0.00     0.030 A 
HETATM    3  C   UNL     1     -41.476  56.391 -54.742  1.00  0.00     0.016 A 
HETATM    4  C   UNL     1     -42.171  55.654 -53.782  1.00  0.00    -0.005 A 
HETATM    5  C   UNL     1     -43.550  55.467 -53.906  1.00  0.00     0.016 A 
HETATM    6  C   UNL     1     -44.222  55.993 -55.015  1.00  0.00     0.030 A 
ENDROOT
BRANCH   1   7
HETATM    7  N   UNL     1     -44.288  57.225 -57.073  1.00  0.00    -0.323 N 
HETATM    8  C   UNL     1     -44.264  56.801 -58.390  1.00  0.00     0.256 C 
HETATM    9  O   UNL     1     -43.546  55.933 -58.870  1.00  0.00    -0.267 OA
HETATM   10  H   UNL     1     -44.855  58.038 -56.868  1.00  0.00     0.169 HD
BRANCH   8  11
HETATM   11  C   UNL     1     -45.194  57.529 -59.300  1.00  0.00     0.032 A 
HETATM   12  C   UNL     1     -44.949  58.836 -59.721  1.00  0.00     0.019 A 
HETATM   13  C   UNL     1     -45.848  59.470 -60.589  1.00  0.00     0.030 A 
HETATM   14  C   UNL     1     -47.019  58.843 -61.051  1.00  0.00     0.030 A 
HETATM   15  C   UNL     1     -47.240  57.531 -60.603  1.00  0.00     0.030 A 
HETATM   16  C   UNL     1     -46.353  56.884 -59.732  1.00  0.00     0.019 A 
BRANCH  14  17
HETATM   17  N   UNL     1     -47.866  59.498 -61.941  1.00  0.00    -0.381 N 
HETATM   18  C   UNL     1     -48.570  58.766 -63.005  1.00  0.00     0.123 C 
HETATM   19  C   UNL     1     -49.976  58.372 -62.555  1.00  0.00     0.020 C 
HETATM   20  C   UNL     1     -50.759  59.587 -62.058  1.00  0.00     0.003 C 
HETATM   21  C   UNL     1     -49.973  60.345 -60.990  1.00  0.00     0.020 C 
HETATM   22  C   UNL     1     -48.572  60.708 -61.486  1.00  0.00     0.123 C 
ENDBRANCH  14  17
ENDBRANCH   8  11
ENDBRANCH   1   7
BRANCH   4  23
HETATM   23  C   UNL     1     -41.444  55.148 -52.591  1.00  0.00     0.098 A 
HETATM   24  N   UNL     1     -41.433  55.921 -51.545  1.00  0.00    -0.170 NA
HETATM   25  N   UNL     1     -40.824  55.475 -50.414  1.00  0.00    -0.242 N 
HETATM   26  C   UNL     1     -40.245  54.243 -50.240  1.00  0.00     0.272 A 
HETATM   27  H   UNL     1     -40.855  56.093 -49.610  1.00  0.00     0.192 HD
HETATM   28  O   UNL     1     -39.767  53.884 -49.169  1.00  0.00    -0.266 OA
HETATM   29  C   UNL     1     -40.211  53.371 -51.426  1.00  0.00     0.046 A 
HETATM   30  C   UNL     1     -39.582  52.121 -51.359  1.00  0.00     0.018 A 
HETATM   31  C   UNL     1     -40.781  53.819 -52.616  1.00  0.00     0.011 A 
HETATM   32  C   UNL     1     -39.508  51.322 -52.499  1.00  0.00     0.001 A 
HETATM   33  C   UNL     1     -40.049  51.777 -53.701  1.00  0.00     0.001 A 
HETATM   34  C   UNL     1     -40.678  53.024 -53.765  1.00  0.00     0.015 A 
ENDBRANCH   4  23
TORSDOF 4
ENDMDL
MODEL 2
REMARK VINA RESULT:      -8.6      6.475      7.682
REMARK  4 active torsions:
REMARK  status: ('A' for Active; 'I' for Inactive)
REMARK       I    between atoms: C_2  and  N_3 
REMARK    1  A    between atoms: C_2  and  C_21 
REMARK    2  A    between atoms: N_3  and  C_4 
REMARK    3  A    between atoms: C_7  and  C_10 
REMARK    4  A    between atoms: C_24  and  N_27 
ROOT
HETATM    1  C   UNL     1     -42.977  56.989 -50.969  1.00  0.00     0.035 A 
HETATM    2  C   UNL     1     -41.582  56.918 -50.947  1.00  0.00     0.030 A 
HETATM    3  C   UNL     1     -40.933  55.678 -50.972  1.00  0.00     0.016 A 
HETATM    4  C   UNL     1     -41.680  54.500 -51.038  1.00  0.00    -0.005 A 
HETATM    5  C   UNL     1     -43.075  54.557 -51.045  1.00  0.00     0.016 A 
HETATM    6  C   UNL     1     -43.717  55.799 -51.019  1.00  0.00     0.030 A 
ENDROOT
BRANCH   1   7
HETATM    7  N   UNL     1     -43.706  58.197 -50.934  1.00  0.00    -0.323 N 
HETATM    8  C   UNL     1     -44.365  58.814 -51.984  1.00  0.00     0.256 C 
HETATM    9  O   UNL     1     -44.401  58.441 -53.150  1.00  0.00    -0.267 OA
HETATM   10  H   UNL     1     -43.675  58.702 -50.058  1.00  0.00     0.169 HD
BRANCH   8  11
HETATM   11  C   UNL     1     -45.058  60.084 -51.627  1.00  0.00     0.032 A 
HETATM   12  C   UNL     1     -45.957  60.707 -52.494  1.00  0.00     0.019 A 
HETATM   13  C   UNL     1     -46.595  61.893 -52.104  1.00  0.00     0.030 A 
HETATM   14  C   UNL     1     -46.352  62.506 -50.861  1.00  0.00     0.030 A 
HETATM   15  C   UNL     1     -45.438  61.857 -50.016  1.00  0.00     0.030 A 
HETATM   16  C   UNL     1     -44.788  60.673 -50.392  1.00  0.00     0.019 A 
BRANCH  14  17
HETATM   17  N   UNL     1     -47.034  63.665 -50.500  1.00  0.00    -0.381 N 
HETATM   18  C   UNL     1     -48.228  64.109 -51.236  1.00  0.00     0.123 C 
HETATM   19  C   UNL     1     -49.503  63.607 -50.558  1.00  0.00     0.020 C 
HETATM   20  C   UNL     1     -49.537  64.004 -49.083  1.00  0.00     0.003 C 
HETATM   21  C   UNL     1     -48.260  63.567 -48.368  1.00  0.00     0.020 C 
HETATM   22  C   UNL     1     -47.014  64.086 -49.089  1.00  0.00     0.123 C 
ENDBRANCH  14  17
ENDBRANCH   8  11
ENDBRANCH   1   7
BRANCH   4  23
HETATM   23  C   UNL     1     -40.975  53.194 -51.015  1.00  0.00     0.098 A 
HETATM   24  N   UNL     1     -40.776  52.661 -49.846  1.00  0.00    -0.170 NA
HETATM   25  N   UNL     1     -40.182  51.440 -49.781  1.00  0.00    -0.242 N 
HETATM   26  C   UNL     1     -39.802  50.668 -50.850  1.00  0.00     0.272 A 
HETATM   27  H   UNL     1     -40.064  51.043 -48.855  1.00  0.00     0.192 HD
HETATM   28  O   UNL     1     -39.326  49.546 -50.718  1.00  0.00    -0.266 OA
HETATM   29  C   UNL     1     -39.982  51.273 -52.181  1.00  0.00     0.046 A 
HETATM   30  C   UNL     1     -39.562  50.585 -53.326  1.00  0.00     0.018 A 
HETATM   31  C   UNL     1     -40.541  52.545 -52.279  1.00  0.00     0.011 A 
HETATM   32  C   UNL     1     -39.687  51.183 -54.579  1.00  0.00     0.001 A 
HETATM   33  C   UNL     1     -40.217  52.469 -54.682  1.00  0.00     0.001 A 
HETATM   34  C   UNL     1     -40.636  53.154 -53.538  1.00  0.00     0.015 A 
ENDBRANCH   4  23
TORSDOF 4
ENDMDL
MODEL 3
REMARK VINA RESULT:      -8.6      7.049      8.989
REMARK  4 active torsions:
REMARK  status: ('A' for Active; 'I' for Inactive)
REMARK       I    between atoms: C_2  and  N_3 
REMARK    1  A    between atoms: C_2  and  C_21 
REMARK    2  A    between atoms: N_3  and  C_4 
REMARK    3  A    between atoms: C_7  and  C_10 
REMARK    4  A    between atoms: C_24  and  N_27 
ROOT
HETATM    1  C   UNL     1     -42.389  56.710 -51.428  1.00  0.00     0.035 A 
HETATM    2  C   UNL     1     -41.206  56.172 -50.914  1.00  0.00     0.030 A 
HETATM    3  C   UNL     1     -40.688  54.977 -51.428  1.00  0.00     0.016 A 
HETATM    4  C   UNL     1     -41.343  54.323 -52.473  1.00  0.00    -0.005 A 
HETATM    5  C   UNL     1     -42.534  54.842 -52.984  1.00  0.00     0.016 A 
HETATM    6  C   UNL     1     -43.047  56.036 -52.467  1.00  0.00     0.030 A 
ENDROOT
BRANCH   1   7
HETATM    7  N   UNL     1     -42.982  57.901 -50.958  1.00  0.00    -0.323 N 
HETATM    8  C   UNL     1     -42.790  59.185 -51.440  1.00  0.00     0.256 C 
HETATM    9  O   UNL     1     -42.033  59.526 -52.340  1.00  0.00    -0.267 OA
HETATM   10  H   UNL     1     -43.553  57.809 -50.128  1.00  0.00     0.169 HD
BRANCH   8  11
HETATM   11  C   UNL     1     -43.572  60.241 -50.736  1.00  0.00     0.032 A 
HETATM   12  C   UNL     1     -44.895  60.044 -50.339  1.00  0.00     0.019 A 
HETATM   13  C   UNL     1     -45.581  61.065 -49.666  1.00  0.00     0.030 A 
HETATM   14  C   UNL     1     -44.990  62.309 -49.383  1.00  0.00     0.030 A 
HETATM   15  C   UNL     1     -43.661  62.477 -49.801  1.00  0.00     0.030 A 
HETATM   16  C   UNL     1     -42.962  61.468 -50.479  1.00  0.00     0.019 A 
BRANCH  14  17
HETATM   17  N   UNL     1     -45.698  63.282 -48.680  1.00  0.00    -0.381 N 
HETATM   18  C   UNL     1     -47.112  63.092 -48.326  1.00  0.00     0.123 C 
HETATM   19  C   UNL     1     -47.247  62.522 -46.914  1.00  0.00     0.020 C 
HETATM   20  C   UNL     1     -46.495  63.380 -45.898  1.00  0.00     0.003 C 
HETATM   21  C   UNL     1     -45.044  63.592 -46.327  1.00  0.00     0.020 C 
HETATM   22  C   UNL     1     -44.963  64.155 -47.748  1.00  0.00     0.123 C 
ENDBRANCH  14  17
ENDBRANCH   8  11
ENDBRANCH   1   7
BRANCH   4  23
HETATM   23  C   UNL     1     -40.803  53.033 -52.971  1.00  0.00     0.098 A 
HETATM   24  N   UNL     1     -40.669  52.917 -54.259  1.00  0.00    -0.170 NA
HETATM   25  N   UNL     1     -40.128  51.774 -54.756  1.00  0.00    -0.242 N 
HETATM   26  C   UNL     1     -39.653  50.718 -54.019  1.00  0.00     0.272 A 
HETATM   27  H   UNL     1     -40.017  51.727 -55.763  1.00  0.00     0.192 HD
HETATM   28  O   UNL     1     -39.120  49.741 -54.535  1.00  0.00    -0.266 OA
HETATM   29  C   UNL     1     -39.833  50.813 -52.561  1.00  0.00     0.046 A 
HETATM   30  C   UNL     1     -39.437  49.754 -51.735  1.00  0.00     0.018 A 
HETATM   31  C   UNL     1     -40.431  51.951 -52.023  1.00  0.00     0.011 A 
HETATM   32  C   UNL     1     -39.657  49.828 -50.361  1.00  0.00     0.001 A 
HETATM   33  C   UNL     1     -40.283  50.950 -49.818  1.00  0.00     0.001 A 
HETATM   34  C   UNL     1     -40.677  52.007 -50.645  1.00  0.00     0.015 A 
ENDBRANCH   4  23
TORSDOF 4
ENDMDL
MODEL 4
REMARK VINA RESULT:      -8.6      2.749      3.903
REMARK  4 active torsions:
REMARK  status: ('A' for Active; 'I' for Inactive)
REMARK       I    between atoms: C_2  and  N_3 
REMARK    1  A    between atoms: C_2  and  C_21 
REMARK    2  A    between atoms: N_3  and  C_4 
REMARK    3  A    between atoms: C_7  and  C_10 
REMARK    4  A    between atoms: C_24  and  N_27 
ROOT
HETATM    1  C   UNL     1     -42.160  55.946 -55.847  1.00  0.00     0.035 A 
HETATM    2  C   UNL     1     -42.946  54.846 -55.495  1.00  0.00     0.030 A 
HETATM    3  C   UNL     1     -42.556  53.997 -54.453  1.00  0.00     0.016 A 
HETATM    4  C   UNL     1     -41.383  54.257 -53.743  1.00  0.00    -0.005 A 
HETATM    5  C   UNL     1     -40.579  55.343 -54.094  1.00  0.00     0.016 A 
HETATM    6  C   UNL     1     -40.974  56.188 -55.137  1.00  0.00     0.030 A 
ENDROOT
BRANCH   1   7
HETATM    7  N   UNL     1     -42.477  56.841 -56.891  1.00  0.00    -0.323 N 
HETATM    8  C   UNL     1     -42.938  56.528 -58.158  1.00  0.00     0.256 C 
HETATM    9  O   UNL     1     -43.116  55.407 -58.619  1.00  0.00    -0.267 OA
HETATM   10  H   UNL     1     -42.270  57.815 -56.711  1.00  0.00     0.169 HD
BRANCH   8  11
HETATM   11  C   UNL     1     -43.194  57.702 -59.039  1.00  0.00     0.032 A 
HETATM   12  C   UNL     1     -44.478  58.045 -59.464  1.00  0.00     0.019 A 
HETATM   13  C   UNL     1     -44.667  59.169 -60.279  1.00  0.00     0.030 A 
HETATM   14  C   UNL     1     -43.597  59.974 -60.712  1.00  0.00     0.030 A 
HETATM   15  C   UNL     1     -42.318  59.598 -60.272  1.00  0.00     0.030 A 
HETATM   16  C   UNL     1     -42.112  58.475 -59.460  1.00  0.00     0.019 A 
BRANCH  14  17
HETATM   17  N   UNL     1     -43.834  61.103 -61.493  1.00  0.00    -0.381 N 
HETATM   18  C   UNL     1     -43.373  62.434 -61.071  1.00  0.00     0.123 C 
HETATM   19  C   UNL     1     -42.015  62.761 -61.692  1.00  0.00     0.020 C 
HETATM   20  C   UNL     1     -42.051  62.603 -63.212  1.00  0.00     0.003 C 
HETATM   21  C   UNL     1     -42.580  61.226 -63.607  1.00  0.00     0.020 C 
HETATM   22  C   UNL     1     -43.934  60.943 -62.954  1.00  0.00     0.123 C 
ENDBRANCH  14  17
ENDBRANCH   8  11
ENDBRANCH   1   7
BRANCH   4  23
HETATM   23  C   UNL     1     -40.962  53.318 -52.673  1.00  0.00     0.098 A 
HETATM   24  N   UNL     1     -41.115  53.726 -51.448  1.00  0.00    -0.170 NA
HETATM   25  N   UNL     1     -40.793  52.879 -50.435  1.00  0.00    -0.242 N 
HETATM   26  C   UNL     1     -40.356  51.586 -50.572  1.00  0.00     0.272 A 
HETATM   27  H   UNL     1     -40.948  53.221 -49.493  1.00  0.00     0.192 HD
HETATM   28  O   UNL     1     -40.141  50.856 -49.610  1.00  0.00    -0.266 OA
HETATM   29  C   UNL     1     -40.136  51.119 -51.951  1.00  0.00     0.046 A 
HETATM   30  C   UNL     1     -39.628  49.835 -52.185  1.00  0.00     0.018 A 
HETATM   31  C   UNL     1     -40.408  51.982 -53.012  1.00  0.00     0.011 A 
HETATM   32  C   UNL     1     -39.374  49.418 -53.491  1.00  0.00     0.001 A 
HETATM   33  C   UNL     1     -39.614  50.287 -54.555  1.00  0.00     0.001 A 
HETATM   34  C   UNL     1     -40.122  51.568 -54.320  1.00  0.00     0.015 A 
ENDBRANCH   4  23
TORSDOF 4
ENDMDL
MODEL 5
REMARK VINA RESULT:      -8.4      1.821      2.315
REMARK  4 active torsions:
REMARK  status: ('A' for Active; 'I' for Inactive)
REMARK       I    between atoms: C_2  and  N_3 
REMARK    1  A    between atoms: C_2  and  C_21 
REMARK    2  A    between atoms: N_3  and  C_4 
REMARK    3  A    between atoms: C_7  and  C_10 
REMARK    4  A    between atoms: C_24  and  N_27 
ROOT
HETATM    1  C   UNL     1     -42.947  55.664 -56.368  1.00  0.00     0.035 A 
HETATM    2  C   UNL     1     -41.703  55.995 -55.824  1.00  0.00     0.030 A 
HETATM    3  C   UNL     1     -41.068  55.130 -54.924  1.00  0.00     0.016 A 
HETATM    4  C   UNL     1     -41.668  53.918 -54.579  1.00  0.00    -0.005 A 
HETATM    5  C   UNL     1     -42.918  53.583 -55.103  1.00  0.00     0.016 A 
HETATM    6  C   UNL     1     -43.548  54.451 -56.001  1.00  0.00     0.030 A 
ENDROOT
BRANCH   1   7
HETATM    7  N   UNL     1     -43.656  56.485 -57.270  1.00  0.00    -0.323 N 
HETATM    8  C   UNL     1     -43.601  56.461 -58.653  1.00  0.00     0.256 C 
HETATM    9  O   UNL     1     -42.891  55.744 -59.348  1.00  0.00    -0.267 OA
HETATM   10  H   UNL     1     -44.207  57.223 -56.851  1.00  0.00     0.169 HD
BRANCH   8  11
HETATM   11  C   UNL     1     -44.483  57.453 -59.332  1.00  0.00     0.032 A 
HETATM   12  C   UNL     1     -43.969  58.534 -60.048  1.00  0.00     0.019 A 
HETATM   13  C   UNL     1     -44.841  59.429 -60.682  1.00  0.00     0.030 A 
HETATM   14  C   UNL     1     -46.239  59.296 -60.612  1.00  0.00     0.030 A 
HETATM   15  C   UNL     1     -46.724  58.202 -59.878  1.00  0.00     0.030 A 
HETATM   16  C   UNL     1     -45.865  57.299 -59.236  1.00  0.00     0.019 A 
BRANCH  14  17
HETATM   17  N   UNL     1     -47.068  60.189 -61.287  1.00  0.00    -0.381 N 
HETATM   18  C   UNL     1     -47.775  59.797 -62.515  1.00  0.00     0.123 C 
HETATM   19  C   UNL     1     -49.192  59.318 -62.198  1.00  0.00     0.020 C 
HETATM   20  C   UNL     1     -49.958  60.360 -61.384  1.00  0.00     0.003 C 
HETATM   21  C   UNL     1     -49.168  60.775 -60.144  1.00  0.00     0.020 C 
HETATM   22  C   UNL     1     -47.757  61.236 -60.513  1.00  0.00     0.123 C 
ENDBRANCH  14  17
ENDBRANCH   8  11
ENDBRANCH   1   7
BRANCH   4  23
HETATM   23  C   UNL     1     -41.002  53.037 -53.587  1.00  0.00     0.098 A 
HETATM   24  N   UNL     1     -40.394  51.988 -54.057  1.00  0.00    -0.170 NA
HETATM   25  N   UNL     1     -39.724  51.182 -53.191  1.00  0.00    -0.242 N 
HETATM   26  C   UNL     1     -39.579  51.389 -51.843  1.00  0.00     0.272 A 
HETATM   27  H   UNL     1     -39.242  50.387 -53.595  1.00  0.00     0.192 HD
HETATM   28  O   UNL     1     -38.908  50.650 -51.130  1.00  0.00    -0.266 OA
HETATM   29  C   UNL     1     -40.295  52.549 -51.285  1.00  0.00     0.046 A 
HETATM   30  C   UNL     1     -40.258  52.801 -49.908  1.00  0.00     0.018 A 
HETATM   31  C   UNL     1     -41.033  53.367 -52.139  1.00  0.00     0.011 A 
HETATM   32  C   UNL     1     -40.979  53.870 -49.380  1.00  0.00     0.001 A 
HETATM   33  C   UNL     1     -41.745  54.674 -50.224  1.00  0.00     0.001 A 
HETATM   34  C   UNL     1     -41.781  54.421 -51.599  1.00  0.00     0.015 A 
ENDBRANCH   4  23
TORSDOF 4
ENDMDL
MODEL 6
REMARK VINA RESULT:      -8.3     17.136     22.534
REMARK  4 active torsions:
REMARK  status: ('A' for Active; 'I' for Inactive)
REMARK       I    between atoms: C_2  and  N_3 
REMARK    1  A    between atoms: C_2  and  C_21 
REMARK    2  A    between atoms: N_3  and  C_4 
REMARK    3  A    between atoms: C_7  and  C_10 
REMARK    4  A    between atoms: C_24  and  N_27 
ROOT
HETATM    1  C   UNL     1     -34.856  39.859 -53.192  1.00  0.00     0.035 A 
HETATM    2  C   UNL     1     -36.190  40.251 -53.326  1.00  0.00     0.030 A 
HETATM    3  C   UNL     1     -36.712  40.575 -54.584  1.00  0.00     0.016 A 
HETATM    4  C   UNL     1     -35.904  40.490 -55.719  1.00  0.00    -0.005 A 
HETATM    5  C   UNL     1     -34.565  40.114 -55.597  1.00  0.00     0.016 A 
HETATM    6  C   UNL     1     -34.049  39.792 -54.337  1.00  0.00     0.030 A 
ENDROOT
BRANCH   1   7
HETATM    7  N   UNL     1     -34.251  39.528 -51.960  1.00  0.00    -0.323 N 
HETATM    8  C   UNL     1     -33.865  40.394 -50.952  1.00  0.00     0.256 C 
HETATM    9  O   UNL     1     -33.941  41.617 -50.964  1.00  0.00    -0.267 OA
HETATM   10  H   UNL     1     -34.007  38.554 -51.840  1.00  0.00     0.169 HD
BRANCH   8  11
HETATM   11  C   UNL     1     -33.259  39.736 -49.759  1.00  0.00     0.032 A 
HETATM   12  C   UNL     1     -32.028  40.133 -49.239  1.00  0.00     0.019 A 
HETATM   13  C   UNL     1     -31.509  39.492 -48.105  1.00  0.00     0.030 A 
HETATM   14  C   UNL     1     -32.179  38.433 -47.467  1.00  0.00     0.030 A 
HETATM   15  C   UNL     1     -33.413  38.054 -48.019  1.00  0.00     0.030 A 
HETATM   16  C   UNL     1     -33.943  38.682 -49.154  1.00  0.00     0.019 A 
BRANCH  14  17
HETATM   17  N   UNL     1     -31.644  37.848 -46.321  1.00  0.00    -0.381 N 
HETATM   18  C   UNL     1     -30.489  38.439 -45.630  1.00  0.00     0.123 C 
HETATM   19  C   UNL     1     -30.944  39.347 -44.488  1.00  0.00     0.020 C 
HETATM   20  C   UNL     1     -31.886  38.609 -43.537  1.00  0.00     0.003 C 
HETATM   21  C   UNL     1     -33.045  37.971 -44.301  1.00  0.00     0.020 C 
HETATM   22  C   UNL     1     -32.538  37.080 -45.437  1.00  0.00     0.123 C 
ENDBRANCH  14  17
ENDBRANCH   8  11
ENDBRANCH   1   7
BRANCH   4  23
HETATM   23  C   UNL     1     -36.463  40.883 -57.036  1.00  0.00     0.098 A 
HETATM   24  N   UNL     1     -36.269  42.114 -57.407  1.00  0.00    -0.170 NA
HETATM   25  N   UNL     1     -36.716  42.504 -58.629  1.00  0.00    -0.242 N 
HETATM   26  C   UNL     1     -37.327  41.701 -59.560  1.00  0.00     0.272 A 
HETATM   27  H   UNL     1     -36.526  43.464 -58.896  1.00  0.00     0.192 HD
HETATM   28  O   UNL     1     -37.651  42.107 -60.671  1.00  0.00    -0.266 OA
HETATM   29  C   UNL     1     -37.593  40.314 -59.143  1.00  0.00     0.046 A 
HETATM   30  C   UNL     1     -38.271  39.441 -60.003  1.00  0.00     0.018 A 
HETATM   31  C   UNL     1     -37.193  39.897 -57.875  1.00  0.00     0.011 A 
HETATM   32  C   UNL     1     -38.566  38.145 -59.583  1.00  0.00     0.001 A 
HETATM   33  C   UNL     1     -38.196  37.730 -58.304  1.00  0.00     0.001 A 
HETATM   34  C   UNL     1     -37.518  38.603 -57.447  1.00  0.00     0.015 A 
ENDBRANCH   4  23
TORSDOF 4
ENDMDL
MODEL 7
REMARK VINA RESULT:      -8.2      2.302      3.070
REMARK  4 active torsions:
REMARK  status: ('A' for Active; 'I' for Inactive)
REMARK       I    between atoms: C_2  and  N_3 
REMARK    1  A    between atoms: C_2  and  C_21 
REMARK    2  A    between atoms: N_3  and  C_4 
REMARK    3  A    between atoms: C_7  and  C_10 
REMARK    4  A    between atoms: C_24  and  N_27 
ROOT
HETATM    1  C   UNL     1     -42.227  55.983 -55.744  1.00  0.00     0.035 A 
HETATM    2  C   UNL     1     -43.085  54.993 -55.259  1.00  0.00     0.030 A 
HETATM    3  C   UNL     1     -42.677  54.142 -54.225  1.00  0.00     0.016 A 
HETATM    4  C   UNL     1     -41.411  54.291 -53.657  1.00  0.00    -0.005 A 
HETATM    5  C   UNL     1     -40.537  55.266 -54.143  1.00  0.00     0.016 A 
HETATM    6  C   UNL     1     -40.951  56.112 -55.176  1.00  0.00     0.030 A 
ENDROOT
BRANCH   1   7
HETATM    7  N   UNL     1     -42.558  56.871 -56.790  1.00  0.00    -0.323 N 
HETATM    8  C   UNL     1     -42.966  56.547 -58.072  1.00  0.00     0.256 C 
HETATM    9  O   UNL     1     -43.075  55.423 -58.547  1.00  0.00    -0.267 OA
HETATM   10  H   UNL     1     -42.404  57.852 -56.596  1.00  0.00     0.169 HD
BRANCH   8  11
HETATM   11  C   UNL     1     -43.255  57.716 -58.951  1.00  0.00     0.032 A 
HETATM   12  C   UNL     1     -44.490  57.886 -59.577  1.00  0.00     0.019 A 
HETATM   13  C   UNL     1     -44.715  59.011 -60.381  1.00  0.00     0.030 A 
HETATM   14  C   UNL     1     -43.728  59.988 -60.604  1.00  0.00     0.030 A 
HETATM   15  C   UNL     1     -42.495  59.784 -59.965  1.00  0.00     0.030 A 
HETATM   16  C   UNL     1     -42.252  58.662 -59.161  1.00  0.00     0.019 A 
BRANCH  14  17
HETATM   17  N   UNL     1     -44.007  61.109 -61.383  1.00  0.00    -0.381 N 
HETATM   18  C   UNL     1     -44.810  61.006 -62.611  1.00  0.00     0.123 C 
HETATM   19  C   UNL     1     -46.280  61.312 -62.327  1.00  0.00     0.020 C 
HETATM   20  C   UNL     1     -46.439  62.663 -61.630  1.00  0.00     0.003 C 
HETATM   21  C   UNL     1     -45.554  62.746 -60.388  1.00  0.00     0.020 C 
HETATM   22  C   UNL     1     -44.096  62.423 -60.723  1.00  0.00     0.123 C 
ENDBRANCH  14  17
ENDBRANCH   8  11
ENDBRANCH   1   7
BRANCH   4  23
HETATM   23  C   UNL     1     -40.979  53.349 -52.594  1.00  0.00     0.098 A 
HETATM   24  N   UNL     1     -41.120  53.753 -51.366  1.00  0.00    -0.170 NA
HETATM   25  N   UNL     1     -40.788  52.902 -50.360  1.00  0.00    -0.242 N 
HETATM   26  C   UNL     1     -40.352  51.609 -50.506  1.00  0.00     0.272 A 
HETATM   27  H   UNL     1     -40.933  53.241 -49.415  1.00  0.00     0.192 HD
HETATM   28  O   UNL     1     -40.128  50.876 -49.548  1.00  0.00    -0.266 OA
HETATM   29  C   UNL     1     -40.147  51.147 -51.888  1.00  0.00     0.046 A 
HETATM   30  C   UNL     1     -39.641  49.864 -52.132  1.00  0.00     0.018 A 
HETATM   31  C   UNL     1     -40.429  52.014 -52.943  1.00  0.00     0.011 A 
HETATM   32  C   UNL     1     -39.401  49.451 -53.441  1.00  0.00     0.001 A 
HETATM   33  C   UNL     1     -39.652  50.324 -54.500  1.00  0.00     0.001 A 
HETATM   34  C   UNL     1     -40.157  51.604 -54.255  1.00  0.00     0.015 A 
ENDBRANCH   4  23
TORSDOF 4
ENDMDL
MODEL 8
REMARK VINA RESULT:      -8.2      2.774     11.675
REMARK  4 active torsions:
REMARK  status: ('A' for Active; 'I' for Inactive)
REMARK       I    between atoms: C_2  and  N_3 
REMARK    1  A    between atoms: C_2  and  C_21 
REMARK    2  A    between atoms: N_3  and  C_4 
REMARK    3  A    between atoms: C_7  and  C_10 
REMARK    4  A    between atoms: C_24  and  N_27 
ROOT
HETATM    1  C   UNL     1     -43.023  56.673 -57.354  1.00  0.00     0.035 A 
HETATM    2  C   UNL     1     -43.436  57.986 -57.109  1.00  0.00     0.030 A 
HETATM    3  C   UNL     1     -44.012  58.752 -58.129  1.00  0.00     0.016 A 
HETATM    4  C   UNL     1     -44.196  58.200 -59.398  1.00  0.00    -0.005 A 
HETATM    5  C   UNL     1     -43.774  56.895 -59.660  1.00  0.00     0.016 A 
HETATM    6  C   UNL     1     -43.198  56.135 -58.637  1.00  0.00     0.030 A 
ENDROOT
BRANCH   1   7
HETATM    7  N   UNL     1     -42.424  55.842 -56.384  1.00  0.00    -0.323 N 
HETATM    8  C   UNL     1     -42.968  55.419 -55.184  1.00  0.00     0.256 C 
HETATM    9  O   UNL     1     -44.061  55.727 -54.724  1.00  0.00    -0.267 OA
HETATM   10  H   UNL     1     -41.459  55.591 -56.558  1.00  0.00     0.169 HD
BRANCH   8  11
HETATM   11  C   UNL     1     -42.086  54.531 -54.375  1.00  0.00     0.032 A 
HETATM   12  C   UNL     1     -41.041  53.805 -54.945  1.00  0.00     0.019 A 
HETATM   13  C   UNL     1     -40.230  52.996 -54.136  1.00  0.00     0.030 A 
HETATM   14  C   UNL     1     -40.439  52.866 -52.752  1.00  0.00     0.030 A 
HETATM   15  C   UNL     1     -41.503  53.604 -52.210  1.00  0.00     0.030 A 
HETATM   16  C   UNL     1     -42.325  54.415 -53.006  1.00  0.00     0.019 A 
BRANCH  14  17
HETATM   17  N   UNL     1     -39.587  52.078 -51.980  1.00  0.00    -0.381 N 
HETATM   18  C   UNL     1     -39.812  51.895 -50.539  1.00  0.00     0.123 C 
HETATM   19  C   UNL     1     -40.609  50.619 -50.270  1.00  0.00     0.020 C 
HETATM   20  C   UNL     1     -39.947  49.406 -50.923  1.00  0.00     0.003 C 
HETATM   21  C   UNL     1     -39.688  49.656 -52.407  1.00  0.00     0.020 C 
HETATM   22  C   UNL     1     -38.895  50.947 -52.623  1.00  0.00     0.123 C 
ENDBRANCH  14  17
ENDBRANCH   8  11
ENDBRANCH   1   7
BRANCH   4  23
HETATM   23  C   UNL     1     -44.765  59.043 -60.479  1.00  0.00     0.098 A 
HETATM   24  N   UNL     1     -46.038  58.908 -60.713  1.00  0.00    -0.170 NA
HETATM   25  N   UNL     1     -46.612  59.699 -61.657  1.00  0.00    -0.242 N 
HETATM   26  C   UNL     1     -45.985  60.684 -62.376  1.00  0.00     0.272 A 
HETATM   27  H   UNL     1     -47.610  59.584 -61.797  1.00  0.00     0.192 HD
HETATM   28  O   UNL     1     -46.582  61.403 -63.171  1.00  0.00    -0.266 OA
HETATM   29  C   UNL     1     -44.536  60.824 -62.155  1.00  0.00     0.046 A 
HETATM   30  C   UNL     1     -43.800  61.761 -62.893  1.00  0.00     0.018 A 
HETATM   31  C   UNL     1     -43.906  59.993 -61.230  1.00  0.00     0.011 A 
HETATM   32  C   UNL     1     -42.421  61.853 -62.716  1.00  0.00     0.001 A 
HETATM   33  C   UNL     1     -41.779  61.004 -61.815  1.00  0.00     0.001 A 
HETATM   34  C   UNL     1     -42.515  60.070 -61.078  1.00  0.00     0.015 A 
ENDBRANCH   4  23
TORSDOF 4
ENDMDL
MODEL 9
REMARK VINA RESULT:      -8.1     18.078     20.314
REMARK  4 active torsions:
REMARK  status: ('A' for Active; 'I' for Inactive)
REMARK       I    between atoms: C_2  and  N_3 
REMARK    1  A    between atoms: C_2  and  C_21 
REMARK    2  A    between atoms: N_3  and  C_4 
REMARK    3  A    between atoms: C_7  and  C_10 
REMARK    4  A    between atoms: C_24  and  N_27 
ROOT
HETATM    1  C   UNL     1     -33.462  39.820 -52.403  1.00  0.00     0.035 A 
HETATM    2  C   UNL     1     -33.698  40.749 -51.387  1.00  0.00     0.030 A 
HETATM    3  C   UNL     1     -33.100  40.594 -50.130  1.00  0.00     0.016 A 
HETATM    4  C   UNL     1     -32.247  39.516 -49.890  1.00  0.00    -0.005 A 
HETATM    5  C   UNL     1     -32.016  38.572 -50.892  1.00  0.00     0.016 A 
HETATM    6  C   UNL     1     -32.616  38.731 -52.146  1.00  0.00     0.030 A 
ENDROOT
BRANCH   1   7
HETATM    7  N   UNL     1     -34.034  39.898 -53.691  1.00  0.00    -0.323 N 
HETATM    8  C   UNL     1     -33.426  40.326 -54.858  1.00  0.00     0.256 C 
HETATM    9  O   UNL     1     -32.286  40.757 -54.978  1.00  0.00    -0.267 OA
HETATM   10  H   UNL     1     -35.023  39.687 -53.745  1.00  0.00     0.169 HD
BRANCH   8  11
HETATM   11  C   UNL     1     -34.295  40.283 -56.069  1.00  0.00     0.032 A 
HETATM   12  C   UNL     1     -34.878  41.431 -56.605  1.00  0.00     0.019 A 
HETATM   13  C   UNL     1     -35.674  41.338 -57.755  1.00  0.00     0.030 A 
HETATM   14  C   UNL     1     -35.932  40.112 -58.395  1.00  0.00     0.030 A 
HETATM   15  C   UNL     1     -35.337  38.975 -57.827  1.00  0.00     0.030 A 
HETATM   16  C   UNL     1     -34.541  39.051 -56.675  1.00  0.00     0.019 A 
BRANCH  14  17
HETATM   17  N   UNL     1     -36.701  40.071 -59.556  1.00  0.00    -0.381 N 
HETATM   18  C   UNL     1     -36.337  39.197 -60.682  1.00  0.00     0.123 C 
HETATM   19  C   UNL     1     -37.083  37.865 -60.600  1.00  0.00     0.020 C 
HETATM   20  C   UNL     1     -38.591  38.082 -60.485  1.00  0.00     0.003 C 
HETATM   21  C   UNL     1     -38.922  39.032 -59.335  1.00  0.00     0.020 C 
HETATM   22  C   UNL     1     -38.145  40.345 -59.459  1.00  0.00     0.123 C 
ENDBRANCH  14  17
ENDBRANCH   8  11
ENDBRANCH   1   7
BRANCH   4  23
HETATM   23  C   UNL     1     -31.662  39.343 -48.538  1.00  0.00     0.098 A 
HETATM   24  N   UNL     1     -30.465  39.820 -48.356  1.00  0.00    -0.170 NA
HETATM   25  N   UNL     1     -29.911  39.732 -47.118  1.00  0.00    -0.242 N 
HETATM   26  C   UNL     1     -30.516  39.222 -45.997  1.00  0.00     0.272 A 
HETATM   27  H   UNL     1     -28.987  40.135 -47.007  1.00  0.00     0.192 HD
HETATM   28  O   UNL     1     -29.976  39.230 -44.895  1.00  0.00    -0.266 OA
HETATM   29  C   UNL     1     -31.854  38.640 -46.191  1.00  0.00     0.046 A 
HETATM   30  C   UNL     1     -32.520  38.038 -45.116  1.00  0.00     0.018 A 
HETATM   31  C   UNL     1     -32.430  38.668 -47.460  1.00  0.00     0.011 A 
HETATM   32  C   UNL     1     -33.764  37.443 -45.317  1.00  0.00     0.001 A 
HETATM   33  C   UNL     1     -34.333  37.440 -46.591  1.00  0.00     0.001 A 
HETATM   34  C   UNL     1     -33.667  38.043 -47.663  1.00  0.00     0.015 A 
ENDBRANCH   4  23
TORSDOF 4
ENDMDL
MODEL 10
REMARK VINA RESULT:      -7.9      2.340      3.028
REMARK  4 active torsions:
REMARK  status: ('A' for Active; 'I' for Inactive)
REMARK       I    between atoms: C_2  and  N_3 
REMARK    1  A    between atoms: C_2  and  C_21 
REMARK    2  A    between atoms: N_3  and  C_4 
REMARK    3  A    between atoms: C_7  and  C_10 
REMARK    4  A    between atoms: C_24  and  N_27 
ROOT
HETATM    1  C   UNL     1     -42.500  57.467 -55.401  1.00  0.00     0.035 A 
HETATM    2  C   UNL     1     -43.354  56.500 -54.865  1.00  0.00     0.030 A 
HETATM    3  C   UNL     1     -43.059  55.890 -53.640  1.00  0.00     0.016 A 
HETATM    4  C   UNL     1     -41.914  56.261 -52.934  1.00  0.00    -0.005 A 
HETATM    5  C   UNL     1     -41.043  57.215 -53.465  1.00  0.00     0.016 A 
HETATM    6  C   UNL     1     -41.343  57.820 -54.690  1.00  0.00     0.030 A 
ENDROOT
BRANCH   1   7
HETATM    7  N   UNL     1     -42.720  58.119 -56.633  1.00  0.00    -0.323 N 
HETATM    8  C   UNL     1     -42.890  57.534 -57.876  1.00  0.00     0.256 C 
HETATM    9  O   UNL     1     -42.838  56.339 -58.139  1.00  0.00    -0.267 OA
HETATM   10  H   UNL     1     -42.673  59.129 -56.609  1.00  0.00     0.169 HD
BRANCH   8  11
HETATM   11  C   UNL     1     -43.116  58.494 -58.993  1.00  0.00     0.032 A 
HETATM   12  C   UNL     1     -44.315  58.535 -59.705  1.00  0.00     0.019 A 
HETATM   13  C   UNL     1     -44.483  59.469 -60.737  1.00  0.00     0.030 A 
HETATM   14  C   UNL     1     -43.471  60.372 -61.108  1.00  0.00     0.030 A 
HETATM   15  C   UNL     1     -42.275  60.300 -60.377  1.00  0.00     0.030 A 
HETATM   16  C   UNL     1     -42.090  59.370 -59.344  1.00  0.00     0.019 A 
BRANCH  14  17
HETATM   17  N   UNL     1     -43.693  61.307 -62.116  1.00  0.00    -0.381 N 
HETATM   18  C   UNL     1     -44.462  60.962 -63.322  1.00  0.00     0.123 C 
HETATM   19  C   UNL     1     -45.930  61.354 -63.162  1.00  0.00     0.020 C 
HETATM   20  C   UNL     1     -46.069  62.826 -62.775  1.00  0.00     0.003 C 
HETATM   21  C   UNL     1     -45.219  63.153 -61.549  1.00  0.00     0.020 C 
HETATM   22  C   UNL     1     -43.762  62.733 -61.756  1.00  0.00     0.123 C 
ENDBRANCH  14  17
ENDBRANCH   8  11
ENDBRANCH   1   7
BRANCH   4  23
HETATM   23  C   UNL     1     -41.593  55.569 -51.660  1.00  0.00     0.098 A 
HETATM   24  N   UNL     1     -41.879  56.207 -50.564  1.00  0.00    -0.170 NA
HETATM   25  N   UNL     1     -41.653  55.590 -49.374  1.00  0.00    -0.242 N 
HETATM   26  C   UNL     1     -41.185  54.311 -49.204  1.00  0.00     0.272 A 
HETATM   27  H   UNL     1     -41.909  56.107 -48.540  1.00  0.00     0.192 HD
HETATM   28  O   UNL     1     -41.062  53.796 -48.098  1.00  0.00    -0.266 OA
HETATM   29  C   UNL     1     -40.816  53.588 -50.432  1.00  0.00     0.046 A 
HETATM   30  C   UNL     1     -40.268  52.301 -50.351  1.00  0.00     0.018 A 
HETATM   31  C   UNL     1     -40.988  54.212 -51.666  1.00  0.00     0.011 A 
HETATM   32  C   UNL     1     -39.874  51.642 -51.514  1.00  0.00     0.001 A 
HETATM   33  C   UNL     1     -40.015  52.273 -52.750  1.00  0.00     0.001 A 
HETATM   34  C   UNL     1     -40.562  53.557 -52.829  1.00  0.00     0.015 A 
ENDBRANCH   4  23
TORSDOF 4
ENDMDL
