MODEL 1
REMARK VINA RESULT:      -7.2      0.000      0.000
REMARK  3 active torsions:
REMARK  status: ('A' for Active; 'I' for Inactive)
REMARK    1  A    between atoms: C_2  and  C_3 
REMARK    2  A    between atoms: C_9  and  C_10 
REMARK    3  A    between atoms: C_21  and  N_22 
ROOT
HETATM    1  C   UNL     1     -43.063  56.145 -59.155  1.00  0.00     0.066 A 
HETATM    2  N   UNL     1     -42.244  56.207 -60.220  1.00  0.00    -0.177 NA
HETATM    3  N   UNL     1     -41.528  57.335 -60.027  1.00  0.00    -0.256 N 
HETATM    4  H   UNL     1     -40.841  57.603 -60.723  1.00  0.00     0.191 HD
HETATM    5  C   UNL     1     -41.875  57.986 -58.889  1.00  0.00     0.175 A 
HETATM    6  C   UNL     1     -42.848  57.236 -58.280  1.00  0.00     0.035 A 
HETATM    7  C   UNL     1     -43.455  57.701 -57.003  1.00  0.00     0.104 A 
HETATM    8  C   UNL     1     -42.952  59.102 -56.666  1.00  0.00     0.067 A 
HETATM    9  C   UNL     1     -43.684  59.826 -55.547  1.00  0.00     0.020 C 
HETATM   10  N   UNL     1     -44.292  60.426 -54.619  1.00  0.00    -0.096 N 
HETATM   11  C   UNL     1     -41.984  59.744 -57.374  1.00  0.00     0.139 A 
HETATM   12  O   UNL     1     -41.366  59.147 -58.491  1.00  0.00    -0.279 OA
ENDROOT
BRANCH   7  13
HETATM   13  C   UNL     1     -43.066  56.667 -55.953  1.00  0.00    -0.043 A 
HETATM   14  C   UNL     1     -41.818  56.013 -55.971  1.00  0.00     0.033 A 
HETATM   15  C   UNL     1     -41.483  55.065 -54.996  1.00  0.00     0.056 A 
HETATM   16 CL   UNL     1     -39.935  54.308 -55.112  1.00  0.00    -0.083 Cl
HETATM   17  C   UNL     1     -42.391  54.765 -53.979  1.00  0.00     0.055 A 
HETATM   18 CL   UNL     1     -42.052  53.606 -52.743  1.00  0.00    -0.083 Cl
HETATM   19  C   UNL     1     -43.628  55.415 -53.940  1.00  0.00     0.026 A 
HETATM   20  C   UNL     1     -43.961  56.360 -54.915  1.00  0.00     0.010 A 
ENDBRANCH   7  13
BRANCH  11  21
HETATM   21  N   UNL     1     -41.513  61.010 -57.116  1.00  0.00    -0.282 NA
HETATM   22  H   UNL     1     -40.529  61.077 -56.868  1.00  0.00     0.126 HD
HETATM   23  H   UNL     1     -41.790  61.678 -57.832  1.00  0.00     0.126 HD
ENDBRANCH  11  21
BRANCH   1  24
HETATM   24  C   UNL     1     -44.046  55.029 -59.035  1.00  0.00     0.057 C 
HETATM   25  C   UNL     1     -44.817  54.787 -60.323  1.00  0.00     0.011 C 
ENDBRANCH   1  24
TORSDOF 3
ENDMDL
MODEL 2
REMARK VINA RESULT:      -7.0      3.735      6.371
REMARK  3 active torsions:
REMARK  status: ('A' for Active; 'I' for Inactive)
REMARK    1  A    between atoms: C_2  and  C_3 
REMARK    2  A    between atoms: C_9  and  C_10 
REMARK    3  A    between atoms: C_21  and  N_22 
ROOT
HETATM    1  C   UNL     1     -41.388  58.293 -51.271  1.00  0.00     0.066 A 
HETATM    2  N   UNL     1     -42.143  59.148 -50.559  1.00  0.00    -0.177 NA
HETATM    3  N   UNL     1     -43.386  58.999 -51.063  1.00  0.00    -0.256 N 
HETATM    4  H   UNL     1     -44.139  59.564 -50.686  1.00  0.00     0.191 HD
HETATM    5  C   UNL     1     -43.435  58.091 -52.071  1.00  0.00     0.175 A 
HETATM    6  C   UNL     1     -42.167  57.591 -52.220  1.00  0.00     0.035 A 
HETATM    7  C   UNL     1     -41.889  56.575 -53.271  1.00  0.00     0.104 A 
HETATM    8  C   UNL     1     -43.122  56.380 -54.149  1.00  0.00     0.067 A 
HETATM    9  C   UNL     1     -42.915  55.587 -55.429  1.00  0.00     0.020 C 
HETATM   10  N   UNL     1     -42.742  54.930 -56.492  1.00  0.00    -0.096 N 
HETATM   11  C   UNL     1     -44.326  56.958 -53.892  1.00  0.00     0.139 A 
HETATM   12  O   UNL     1     -44.521  57.796 -52.776  1.00  0.00    -0.279 OA
ENDROOT
BRANCH   7  13
HETATM   13  C   UNL     1     -41.485  55.305 -52.532  1.00  0.00    -0.043 A 
HETATM   14  C   UNL     1     -40.753  54.275 -53.155  1.00  0.00     0.033 A 
HETATM   15  C   UNL     1     -40.395  53.116 -52.456  1.00  0.00     0.056 A 
HETATM   16 CL   UNL     1     -39.509  51.904 -53.313  1.00  0.00    -0.083 Cl
HETATM   17  C   UNL     1     -40.755  52.975 -51.114  1.00  0.00     0.055 A 
HETATM   18 CL   UNL     1     -40.353  51.574 -50.187  1.00  0.00    -0.083 Cl
HETATM   19  C   UNL     1     -41.470  53.994 -50.479  1.00  0.00     0.026 A 
HETATM   20  C   UNL     1     -41.829  55.150 -51.179  1.00  0.00     0.010 A 
ENDBRANCH   7  13
BRANCH  11  21
HETATM   21  N   UNL     1     -45.457  56.823 -54.663  1.00  0.00    -0.282 NA
HETATM   22  H   UNL     1     -46.051  56.027 -54.445  1.00  0.00     0.126 HD
HETATM   23  H   UNL     1     -45.974  57.696 -54.746  1.00  0.00     0.126 HD
ENDBRANCH  11  21
BRANCH   1  24
HETATM   24  C   UNL     1     -39.921  58.203 -51.013  1.00  0.00     0.057 C 
HETATM   25  C   UNL     1     -39.314  59.536 -50.605  1.00  0.00     0.011 C 
ENDBRANCH   1  24
TORSDOF 3
ENDMDL
MODEL 3
REMARK VINA RESULT:      -7.0      3.025      5.676
REMARK  3 active torsions:
REMARK  status: ('A' for Active; 'I' for Inactive)
REMARK    1  A    between atoms: C_2  and  C_3 
REMARK    2  A    between atoms: C_9  and  C_10 
REMARK    3  A    between atoms: C_21  and  N_22 
ROOT
HETATM    1  C   UNL     1     -41.551  58.771 -52.415  1.00  0.00     0.066 A 
HETATM    2  N   UNL     1     -42.266  59.429 -51.486  1.00  0.00    -0.177 NA
HETATM    3  N   UNL     1     -43.548  59.276 -51.878  1.00  0.00    -0.256 N 
HETATM    4  H   UNL     1     -44.283  59.707 -51.328  1.00  0.00     0.191 HD
HETATM    5  C   UNL     1     -43.662  58.556 -53.022  1.00  0.00     0.175 A 
HETATM    6  C   UNL     1     -42.394  58.187 -53.391  1.00  0.00     0.035 A 
HETATM    7  C   UNL     1     -42.182  57.394 -54.632  1.00  0.00     0.104 A 
HETATM    8  C   UNL     1     -43.495  57.262 -55.398  1.00  0.00     0.067 A 
HETATM    9  C   UNL     1     -43.393  56.722 -56.815  1.00  0.00     0.020 C 
HETATM   10  N   UNL     1     -43.308  56.275 -57.991  1.00  0.00    -0.096 N 
HETATM   11  C   UNL     1     -44.692  57.693 -54.917  1.00  0.00     0.139 A 
HETATM   12  O   UNL     1     -44.804  58.306 -53.653  1.00  0.00    -0.279 OA
ENDROOT
BRANCH   7  13
HETATM   13  C   UNL     1     -41.624  56.050 -54.180  1.00  0.00    -0.043 A 
HETATM   14  C   UNL     1     -41.986  55.462 -52.951  1.00  0.00     0.033 A 
HETATM   15  C   UNL     1     -41.460  54.227 -52.556  1.00  0.00     0.056 A 
HETATM   16 CL   UNL     1     -41.954  53.597 -51.025  1.00  0.00    -0.083 Cl
HETATM   17  C   UNL     1     -40.569  53.552 -53.394  1.00  0.00     0.055 A 
HETATM   18 CL   UNL     1     -39.876  52.026 -52.975  1.00  0.00    -0.083 Cl
HETATM   19  C   UNL     1     -40.211  54.115 -54.622  1.00  0.00     0.026 A 
HETATM   20  C   UNL     1     -40.737  55.350 -55.014  1.00  0.00     0.010 A 
ENDBRANCH   7  13
BRANCH  11  21
HETATM   21  N   UNL     1     -45.895  57.608 -55.578  1.00  0.00    -0.282 NA
HETATM   22  H   UNL     1     -46.232  56.668 -55.771  1.00  0.00     0.126 HD
HETATM   23  H   UNL     1     -46.606  58.209 -55.165  1.00  0.00     0.126 HD
ENDBRANCH  11  21
BRANCH   1  24
HETATM   24  C   UNL     1     -40.061  58.749 -52.332  1.00  0.00     0.057 C 
HETATM   25  C   UNL     1     -39.542  59.231 -50.987  1.00  0.00     0.011 C 
ENDBRANCH   1  24
TORSDOF 3
ENDMDL
MODEL 4
REMARK VINA RESULT:      -6.8      3.933      5.476
REMARK  3 active torsions:
REMARK  status: ('A' for Active; 'I' for Inactive)
REMARK    1  A    between atoms: C_2  and  C_3 
REMARK    2  A    between atoms: C_9  and  C_10 
REMARK    3  A    between atoms: C_21  and  N_22 
ROOT
HETATM    1  C   UNL     1     -42.592  54.035 -52.683  1.00  0.00     0.066 A 
HETATM    2  N   UNL     1     -41.663  53.104 -52.963  1.00  0.00    -0.177 NA
HETATM    3  N   UNL     1     -41.254  53.403 -54.213  1.00  0.00    -0.256 N 
HETATM    4  H   UNL     1     -40.552  52.817 -54.652  1.00  0.00     0.191 HD
HETATM    5  C   UNL     1     -41.900  54.478 -54.731  1.00  0.00     0.175 A 
HETATM    6  C   UNL     1     -42.757  54.934 -53.763  1.00  0.00     0.035 A 
HETATM    7  C   UNL     1     -43.630  56.107 -54.037  1.00  0.00     0.104 A 
HETATM    8  C   UNL     1     -43.510  56.518 -55.502  1.00  0.00     0.067 A 
HETATM    9  C   UNL     1     -44.539  57.517 -56.005  1.00  0.00     0.020 C 
HETATM   10  N   UNL     1     -45.393  58.345 -56.422  1.00  0.00    -0.096 N 
HETATM   11  C   UNL     1     -42.618  55.963 -56.367  1.00  0.00     0.139 A 
HETATM   12  O   UNL     1     -41.728  54.949 -55.961  1.00  0.00    -0.279 OA
ENDROOT
BRANCH   7  13
HETATM   13  C   UNL     1     -43.175  57.202 -53.079  1.00  0.00    -0.043 A 
HETATM   14  C   UNL     1     -41.830  57.612 -52.993  1.00  0.00     0.033 A 
HETATM   15  C   UNL     1     -41.435  58.619 -52.105  1.00  0.00     0.056 A 
HETATM   16 CL   UNL     1     -39.759  59.041 -52.064  1.00  0.00    -0.083 Cl
HETATM   17  C   UNL     1     -42.385  59.241 -51.292  1.00  0.00     0.055 A 
HETATM   18 CL   UNL     1     -41.974  60.487 -50.169  1.00  0.00    -0.083 Cl
HETATM   19  C   UNL     1     -43.726  58.854 -51.375  1.00  0.00     0.026 A 
HETATM   20  C   UNL     1     -44.118  57.847 -52.262  1.00  0.00     0.010 A 
ENDBRANCH   7  13
BRANCH  11  21
HETATM   21  N   UNL     1     -42.486  56.291 -57.696  1.00  0.00    -0.282 NA
HETATM   22  H   UNL     1     -41.916  55.660 -58.254  1.00  0.00     0.126 HD
HETATM   23  H   UNL     1     -43.380  56.510 -58.130  1.00  0.00     0.126 HD
ENDBRANCH  11  21
BRANCH   1  24
HETATM   24  C   UNL     1     -43.306  54.005 -51.373  1.00  0.00     0.057 C 
HETATM   25  C   UNL     1     -42.577  54.785 -50.290  1.00  0.00     0.011 C 
ENDBRANCH   1  24
TORSDOF 3
ENDMDL
MODEL 5
REMARK VINA RESULT:      -6.6      4.442      6.774
REMARK  3 active torsions:
REMARK  status: ('A' for Active; 'I' for Inactive)
REMARK    1  A    between atoms: C_2  and  C_3 
REMARK    2  A    between atoms: C_9  and  C_10 
REMARK    3  A    between atoms: C_21  and  N_22 
ROOT
HETATM    1  C   UNL     1     -41.621  59.245 -51.904  1.00  0.00     0.066 A 
HETATM    2  N   UNL     1     -40.473  59.761 -51.430  1.00  0.00    -0.177 NA
HETATM    3  N   UNL     1     -39.965  58.785 -50.647  1.00  0.00    -0.256 N 
HETATM    4  H   UNL     1     -39.092  58.953 -50.161  1.00  0.00     0.191 HD
HETATM    5  C   UNL     1     -40.757  57.684 -50.606  1.00  0.00     0.175 A 
HETATM    6  C   UNL     1     -41.827  57.929 -51.426  1.00  0.00     0.035 A 
HETATM    7  C   UNL     1     -42.896  56.906 -51.580  1.00  0.00     0.104 A 
HETATM    8  C   UNL     1     -42.660  55.754 -50.606  1.00  0.00     0.067 A 
HETATM    9  C   UNL     1     -43.805  54.768 -50.443  1.00  0.00     0.020 C 
HETATM   10  N   UNL     1     -44.756  53.951 -50.308  1.00  0.00    -0.096 N 
HETATM   11  C   UNL     1     -41.549  55.643 -49.829  1.00  0.00     0.139 A 
HETATM   12  O   UNL     1     -40.519  56.604 -49.870  1.00  0.00    -0.279 OA
ENDROOT
BRANCH   7  13
HETATM   13  C   UNL     1     -42.848  56.464 -53.038  1.00  0.00    -0.043 A 
HETATM   14  C   UNL     1     -41.812  55.652 -53.541  1.00  0.00     0.033 A 
HETATM   15  C   UNL     1     -41.788  55.260 -54.885  1.00  0.00     0.056 A 
HETATM   16 CL   UNL     1     -40.468  54.275 -55.409  1.00  0.00    -0.083 Cl
HETATM   17  C   UNL     1     -42.809  55.667 -55.746  1.00  0.00     0.055 A 
HETATM   18 CL   UNL     1     -42.847  55.226 -57.416  1.00  0.00    -0.083 Cl
HETATM   19  C   UNL     1     -43.850  56.462 -55.258  1.00  0.00     0.026 A 
HETATM   20  C   UNL     1     -43.872  56.854 -53.916  1.00  0.00     0.010 A 
ENDBRANCH   7  13
BRANCH  11  21
HETATM   21  N   UNL     1     -41.302  54.633 -48.929  1.00  0.00    -0.282 NA
HETATM   22  H   UNL     1     -40.894  53.785 -49.313  1.00  0.00     0.126 HD
HETATM   23  H   UNL     1     -40.819  54.967 -48.097  1.00  0.00     0.126 HD
ENDBRANCH  11  21
BRANCH   1  24
HETATM   24  C   UNL     1     -42.492  60.064 -52.796  1.00  0.00     0.057 C 
HETATM   25  C   UNL     1     -42.031  60.044 -54.245  1.00  0.00     0.011 C 
ENDBRANCH   1  24
TORSDOF 3
ENDMDL
MODEL 6
REMARK VINA RESULT:      -6.5     17.443     19.414
REMARK  3 active torsions:
REMARK  status: ('A' for Active; 'I' for Inactive)
REMARK    1  A    between atoms: C_2  and  C_3 
REMARK    2  A    between atoms: C_9  and  C_10 
REMARK    3  A    between atoms: C_21  and  N_22 
ROOT
HETATM    1  C   UNL     1     -33.975  40.435 -54.760  1.00  0.00     0.066 A 
HETATM    2  N   UNL     1     -33.911  41.521 -55.549  1.00  0.00    -0.177 NA
HETATM    3  N   UNL     1     -34.950  42.285 -55.154  1.00  0.00    -0.256 N 
HETATM    4  H   UNL     1     -35.117  43.167 -55.626  1.00  0.00     0.191 HD
HETATM    5  C   UNL     1     -35.669  41.713 -54.155  1.00  0.00     0.175 A 
HETATM    6  C   UNL     1     -35.056  40.525 -53.851  1.00  0.00     0.035 A 
HETATM    7  C   UNL     1     -35.624  39.645 -52.795  1.00  0.00     0.104 A 
HETATM    8  C   UNL     1     -36.965  40.198 -52.319  1.00  0.00     0.067 A 
HETATM    9  C   UNL     1     -37.799  39.275 -51.447  1.00  0.00     0.020 C 
HETATM   10  N   UNL     1     -38.492  38.508 -50.724  1.00  0.00    -0.096 N 
HETATM   11  C   UNL     1     -37.467  41.397 -52.719  1.00  0.00     0.139 A 
HETATM   12  O   UNL     1     -36.772  42.226 -53.621  1.00  0.00    -0.279 OA
ENDROOT
BRANCH   7  13
HETATM   13  C   UNL     1     -34.580  39.594 -51.685  1.00  0.00    -0.043 A 
HETATM   14  C   UNL     1     -34.037  38.379 -51.222  1.00  0.00     0.033 A 
HETATM   15  C   UNL     1     -33.080  38.357 -50.200  1.00  0.00     0.056 A 
HETATM   16 CL   UNL     1     -32.485  36.816 -49.692  1.00  0.00    -0.083 Cl
HETATM   17  C   UNL     1     -32.643  39.555 -49.631  1.00  0.00     0.055 A 
HETATM   18 CL   UNL     1     -31.469  39.608 -48.365  1.00  0.00    -0.083 Cl
HETATM   19  C   UNL     1     -33.163  40.769 -50.089  1.00  0.00     0.026 A 
HETATM   20  C   UNL     1     -34.120  40.789 -51.109  1.00  0.00     0.010 A 
ENDBRANCH   7  13
BRANCH  11  21
HETATM   21  N   UNL     1     -38.676  41.926 -52.330  1.00  0.00    -0.282 NA
HETATM   22  H   UNL     1     -39.450  41.270 -52.272  1.00  0.00     0.126 HD
HETATM   23  H   UNL     1     -38.590  42.516 -51.504  1.00  0.00     0.126 HD
ENDBRANCH  11  21
BRANCH   1  24
HETATM   24  C   UNL     1     -32.987  39.330 -54.931  1.00  0.00     0.057 C 
HETATM   25  C   UNL     1     -31.729  39.535 -54.102  1.00  0.00     0.011 C 
ENDBRANCH   1  24
TORSDOF 3
ENDMDL
MODEL 7
REMARK VINA RESULT:      -6.5      4.562      6.198
REMARK  3 active torsions:
REMARK  status: ('A' for Active; 'I' for Inactive)
REMARK    1  A    between atoms: C_2  and  C_3 
REMARK    2  A    between atoms: C_9  and  C_10 
REMARK    3  A    between atoms: C_21  and  N_22 
ROOT
HETATM    1  C   UNL     1     -42.464  55.591 -52.527  1.00  0.00     0.066 A 
HETATM    2  N   UNL     1     -42.908  54.498 -51.883  1.00  0.00    -0.177 NA
HETATM    3  N   UNL     1     -43.926  54.949 -51.120  1.00  0.00    -0.256 N 
HETATM    4  H   UNL     1     -44.416  54.294 -50.522  1.00  0.00     0.191 HD
HETATM    5  C   UNL     1     -44.128  56.283 -51.256  1.00  0.00     0.175 A 
HETATM    6  C   UNL     1     -43.219  56.735 -52.178  1.00  0.00     0.035 A 
HETATM    7  C   UNL     1     -43.176  58.179 -52.533  1.00  0.00     0.104 A 
HETATM    8  C   UNL     1     -44.117  58.968 -51.627  1.00  0.00     0.067 A 
HETATM    9  C   UNL     1     -43.982  60.481 -51.676  1.00  0.00     0.020 C 
HETATM   10  N   UNL     1     -43.869  61.737 -51.716  1.00  0.00    -0.096 N 
HETATM   11  C   UNL     1     -44.963  58.388 -50.734  1.00  0.00     0.139 A 
HETATM   12  O   UNL     1     -45.028  56.989 -50.579  1.00  0.00    -0.279 OA
ENDROOT
BRANCH   7  13
HETATM   13  C   UNL     1     -43.568  58.261 -54.004  1.00  0.00    -0.043 A 
HETATM   14  C   UNL     1     -42.675  58.722 -54.993  1.00  0.00     0.033 A 
HETATM   15  C   UNL     1     -43.058  58.790 -56.337  1.00  0.00     0.056 A 
HETATM   16 CL   UNL     1     -41.897  59.382 -57.472  1.00  0.00    -0.083 Cl
HETATM   17  C   UNL     1     -44.340  58.387 -56.717  1.00  0.00     0.055 A 
HETATM   18 CL   UNL     1     -44.886  58.445 -58.354  1.00  0.00    -0.083 Cl
HETATM   19  C   UNL     1     -45.232  57.915 -55.749  1.00  0.00     0.026 A 
HETATM   20  C   UNL     1     -44.848  57.849 -54.406  1.00  0.00     0.010 A 
ENDBRANCH   7  13
BRANCH  11  21
HETATM   21  N   UNL     1     -45.814  59.059 -49.888  1.00  0.00    -0.282 NA
HETATM   22  H   UNL     1     -46.542  59.610 -50.335  1.00  0.00     0.126 HD
HETATM   23  H   UNL     1     -46.168  58.463 -49.142  1.00  0.00     0.126 HD
ENDBRANCH  11  21
BRANCH   1  24
HETATM   24  C   UNL     1     -41.298  55.487 -53.454  1.00  0.00     0.057 C 
HETATM   25  C   UNL     1     -41.706  55.107 -54.869  1.00  0.00     0.011 C 
ENDBRANCH   1  24
TORSDOF 3
ENDMDL
MODEL 8
REMARK VINA RESULT:      -6.5      3.281      5.148
REMARK  3 active torsions:
REMARK  status: ('A' for Active; 'I' for Inactive)
REMARK    1  A    between atoms: C_2  and  C_3 
REMARK    2  A    between atoms: C_9  and  C_10 
REMARK    3  A    between atoms: C_21  and  N_22 
ROOT
HETATM    1  C   UNL     1     -43.114  55.496 -54.828  1.00  0.00     0.066 A 
HETATM    2  N   UNL     1     -43.795  55.367 -53.676  1.00  0.00    -0.177 NA
HETATM    3  N   UNL     1     -44.257  56.608 -53.418  1.00  0.00    -0.256 N 
HETATM    4  H   UNL     1     -44.799  56.764 -52.575  1.00  0.00     0.191 HD
HETATM    5  C   UNL     1     -43.881  57.511 -54.359  1.00  0.00     0.175 A 
HETATM    6  C   UNL     1     -43.161  56.827 -55.305  1.00  0.00     0.035 A 
HETATM    7  C   UNL     1     -42.588  57.552 -56.470  1.00  0.00     0.104 A 
HETATM    8  C   UNL     1     -42.795  59.055 -56.304  1.00  0.00     0.067 A 
HETATM    9  C   UNL     1     -42.029  59.948 -57.266  1.00  0.00     0.020 C 
HETATM   10  N   UNL     1     -41.392  60.689 -58.064  1.00  0.00    -0.096 N 
HETATM   11  C   UNL     1     -43.526  59.606 -55.298  1.00  0.00     0.139 A 
HETATM   12  O   UNL     1     -44.154  58.810 -54.319  1.00  0.00    -0.279 OA
ENDROOT
BRANCH   7  13
HETATM   13  C   UNL     1     -43.293  56.993 -57.700  1.00  0.00    -0.043 A 
HETATM   14  C   UNL     1     -44.612  57.357 -58.039  1.00  0.00     0.033 A 
HETATM   15  C   UNL     1     -45.241  56.829 -59.173  1.00  0.00     0.056 A 
HETATM   16 CL   UNL     1     -46.864  57.327 -59.495  1.00  0.00    -0.083 Cl
HETATM   17  C   UNL     1     -44.553  55.934 -59.995  1.00  0.00     0.055 A 
HETATM   18 CL   UNL     1     -45.262  55.238 -61.408  1.00  0.00    -0.083 Cl
HETATM   19  C   UNL     1     -43.240  55.573 -59.679  1.00  0.00     0.026 A 
HETATM   20  C   UNL     1     -42.614  56.101 -58.545  1.00  0.00     0.010 A 
ENDBRANCH   7  13
BRANCH  11  21
HETATM   21  N   UNL     1     -43.726  60.952 -55.100  1.00  0.00    -0.282 NA
HETATM   22  H   UNL     1     -44.392  61.400 -55.725  1.00  0.00     0.126 HD
HETATM   23  H   UNL     1     -43.883  61.180 -54.121  1.00  0.00     0.126 HD
ENDBRANCH  11  21
BRANCH   1  24
HETATM   24  C   UNL     1     -42.419  54.314 -55.419  1.00  0.00     0.057 C 
HETATM   25  C   UNL     1     -40.911  54.366 -55.231  1.00  0.00     0.011 C 
ENDBRANCH   1  24
TORSDOF 3
ENDMDL
MODEL 9
REMARK VINA RESULT:      -6.3      4.405      6.637
REMARK  3 active torsions:
REMARK  status: ('A' for Active; 'I' for Inactive)
REMARK    1  A    between atoms: C_2  and  C_3 
REMARK    2  A    between atoms: C_9  and  C_10 
REMARK    3  A    between atoms: C_21  and  N_22 
ROOT
HETATM    1  C   UNL     1     -43.681  57.368 -57.115  1.00  0.00     0.066 A 
HETATM    2  N   UNL     1     -42.593  56.639 -56.810  1.00  0.00    -0.177 NA
HETATM    3  N   UNL     1     -42.466  55.779 -57.842  1.00  0.00    -0.256 N 
HETATM    4  H   UNL     1     -41.708  55.105 -57.827  1.00  0.00     0.191 HD
HETATM    5  C   UNL     1     -43.439  55.934 -58.775  1.00  0.00     0.175 A 
HETATM    6  C   UNL     1     -44.232  56.971 -58.356  1.00  0.00     0.035 A 
HETATM    7  C   UNL     1     -45.412  57.378 -59.166  1.00  0.00     0.104 A 
HETATM    8  C   UNL     1     -45.621  56.395 -60.315  1.00  0.00     0.067 A 
HETATM    9  C   UNL     1     -46.937  56.510 -61.066  1.00  0.00     0.020 C 
HETATM   10  N   UNL     1     -48.030  56.606 -61.688  1.00  0.00    -0.096 N 
HETATM   11  C   UNL     1     -44.753  55.390 -60.611  1.00  0.00     0.139 A 
HETATM   12  O   UNL     1     -43.579  55.181 -59.860  1.00  0.00    -0.279 OA
ENDROOT
BRANCH   7  13
HETATM   13  C   UNL     1     -45.122  58.794 -59.648  1.00  0.00    -0.043 A 
HETATM   14  C   UNL     1     -43.980  59.107 -60.413  1.00  0.00     0.033 A 
HETATM   15  C   UNL     1     -43.733  60.416 -60.843  1.00  0.00     0.056 A 
HETATM   16 CL   UNL     1     -42.299  60.700 -61.765  1.00  0.00    -0.083 Cl
HETATM   17  C   UNL     1     -44.634  61.434 -60.524  1.00  0.00     0.055 A 
HETATM   18 CL   UNL     1     -44.396  63.073 -61.015  1.00  0.00    -0.083 Cl
HETATM   19  C   UNL     1     -45.777  61.137 -59.777  1.00  0.00     0.026 A 
HETATM   20  C   UNL     1     -46.021  59.829 -59.346  1.00  0.00     0.010 A 
ENDBRANCH   7  13
BRANCH  11  21
HETATM   21  N   UNL     1     -44.909  54.473 -61.624  1.00  0.00    -0.282 NA
HETATM   22  H   UNL     1     -44.919  54.851 -62.568  1.00  0.00     0.126 HD
HETATM   23  H   UNL     1     -44.286  53.674 -61.522  1.00  0.00     0.126 HD
ENDBRANCH  11  21
BRANCH   1  24
HETATM   24  C   UNL     1     -44.160  58.421 -56.173  1.00  0.00     0.057 C 
HETATM   25  C   UNL     1     -45.321  57.951 -55.310  1.00  0.00     0.011 C 
ENDBRANCH   1  24
TORSDOF 3
ENDMDL
MODEL 10
REMARK VINA RESULT:      -6.3      4.388      6.020
REMARK  3 active torsions:
REMARK  status: ('A' for Active; 'I' for Inactive)
REMARK    1  A    between atoms: C_2  and  C_3 
REMARK    2  A    between atoms: C_9  and  C_10 
REMARK    3  A    between atoms: C_21  and  N_22 
ROOT
HETATM    1  C   UNL     1     -41.679  55.266 -53.537  1.00  0.00     0.066 A 
HETATM    2  N   UNL     1     -42.076  54.057 -53.104  1.00  0.00    -0.177 NA
HETATM    3  N   UNL     1     -43.094  54.320 -52.259  1.00  0.00    -0.256 N 
HETATM    4  H   UNL     1     -43.552  53.548 -51.789  1.00  0.00     0.191 HD
HETATM    5  C   UNL     1     -43.342  55.649 -52.139  1.00  0.00     0.175 A 
HETATM    6  C   UNL     1     -42.465  56.297 -52.970  1.00  0.00     0.035 A 
HETATM    7  C   UNL     1     -42.475  57.782 -53.048  1.00  0.00     0.104 A 
HETATM    8  C   UNL     1     -43.425  58.354 -51.999  1.00  0.00     0.067 A 
HETATM    9  C   UNL     1     -43.340  59.853 -51.764  1.00  0.00     0.020 C 
HETATM   10  N   UNL     1     -43.269  61.097 -51.569  1.00  0.00    -0.096 N 
HETATM   11  C   UNL     1     -44.235  57.587 -51.221  1.00  0.00     0.139 A 
HETATM   12  O   UNL     1     -44.252  56.182 -51.331  1.00  0.00    -0.279 OA
ENDROOT
BRANCH   7  13
HETATM   13  C   UNL     1     -42.896  58.125 -54.473  1.00  0.00    -0.043 A 
HETATM   14  C   UNL     1     -44.221  57.960 -54.923  1.00  0.00     0.033 A 
HETATM   15  C   UNL     1     -44.584  58.279 -56.237  1.00  0.00     0.056 A 
HETATM   16 CL   UNL     1     -46.231  58.029 -56.697  1.00  0.00    -0.083 Cl
HETATM   17  C   UNL     1     -43.626  58.781 -57.120  1.00  0.00     0.055 A 
HETATM   18 CL   UNL     1     -43.996  59.195 -58.755  1.00  0.00    -0.083 Cl
HETATM   19  C   UNL     1     -42.310  58.962 -56.684  1.00  0.00     0.026 A 
HETATM   20  C   UNL     1     -41.949  58.641 -55.372  1.00  0.00     0.010 A 
ENDBRANCH   7  13
BRANCH  11  21
HETATM   21  N   UNL     1     -45.092  58.058 -50.254  1.00  0.00    -0.282 NA
HETATM   22  H   UNL     1     -45.528  58.956 -50.445  1.00  0.00     0.126 HD
HETATM   23  H   UNL     1     -45.758  57.349 -49.950  1.00  0.00     0.126 HD
ENDBRANCH  11  21
BRANCH   1  24
HETATM   24  C   UNL     1     -40.528  55.379 -54.480  1.00  0.00     0.057 C 
HETATM   25  C   UNL     1     -40.182  54.056 -55.145  1.00  0.00     0.011 C 
ENDBRANCH   1  24
TORSDOF 3
ENDMDL
