MODEL 1
REMARK VINA RESULT:      -7.9      0.000      0.000
REMARK  9 active torsions:
REMARK  status: ('A' for Active; 'I' for Inactive)
REMARK    1  A    between atoms: N_2  and  C_4 
REMARK    2  A    between atoms: N_2  and  C_10 
REMARK    3  A    between atoms: C_10  and  C_11 
REMARK    4  A    between atoms: N_12  and  C_13 
REMARK    5  A    between atoms: C_17  and  N_18 
REMARK    6  A    between atoms: C_21  and  C_22 
REMARK       I    between atoms: C_22  and  N_23 
REMARK    7  A    between atoms: N_23  and  N_24 
REMARK    8  A    between atoms: C_25  and  C_26 
REMARK    9  A    between atoms: C_27  and  O_28 
ROOT
HETATM    1  C   UNL     1     -40.841  53.373 -52.306  1.00  0.00     0.102 A 
HETATM    2  N   UNL     1     -39.948  52.335 -51.998  1.00  0.00    -0.191 N 
HETATM    3  N   UNL     1     -39.277  52.662 -50.861  1.00  0.00    -0.058 NA
HETATM    4  N   UNL     1     -39.780  53.773 -50.360  1.00  0.00    -0.124 NA
HETATM    5  C   UNL     1     -40.754  54.220 -51.204  1.00  0.00     0.176 A 
ENDROOT
BRANCH   5   6
HETATM    6  C   UNL     1     -41.521  55.426 -50.930  1.00  0.00     0.294 C 
HETATM    7  N   UNL     1     -41.043  56.564 -51.553  1.00  0.00    -0.242 N 
HETATM    8  H   UNL     1     -40.204  56.521 -52.129  1.00  0.00     0.192 HD
HETATM    9  O   UNL     1     -42.524  55.382 -50.221  1.00  0.00    -0.264 OA
BRANCH   7  10
HETATM   10  N   UNL     1     -41.747  57.722 -51.440  1.00  0.00    -0.183 NA
HETATM   11  C   UNL     1     -41.360  58.706 -52.191  1.00  0.00     0.153 C 
BRANCH  11  12
HETATM   12  C   UNL     1     -42.077  59.999 -52.162  1.00  0.00     0.018 A 
HETATM   13  C   UNL     1     -42.489  60.595 -50.962  1.00  0.00     0.077 A 
HETATM   14  C   UNL     1     -43.176  61.806 -50.978  1.00  0.00     0.039 A 
HETATM   15  C   UNL     1     -43.456  62.430 -52.194  1.00  0.00     0.026 A 
HETATM   16  C   UNL     1     -43.043  61.837 -53.387  1.00  0.00     0.035 A 
HETATM   17 CL   UNL     1     -43.390  62.607 -54.886  1.00  0.00    -0.084 Cl
HETATM   18  C   UNL     1     -42.355  60.623 -53.382  1.00  0.00     0.039 A 
BRANCH  13  19
HETATM   19  O   UNL     1     -42.255  60.046 -49.731  1.00  0.00    -0.360 OA
HETATM   20  H   UNL     1     -42.222  60.778 -49.077  1.00  0.00     0.217 HD
ENDBRANCH  13  19
ENDBRANCH  11  12
ENDBRANCH   7  10
ENDBRANCH   5   6
BRANCH   1  21
HETATM   21  C   UNL     1     -41.693  53.373 -53.531  1.00  0.00     0.296 C 
BRANCH  21  22
HETATM   22  N   UNL     1     -41.487  54.512 -54.520  1.00  0.00    -0.065 N 
HETATM   23  C   UNL     1     -40.195  54.317 -55.287  1.00  0.00     0.270 C 
HETATM   24  H   UNL     1     -41.356  55.380 -53.963  1.00  0.00     0.280 HD
BRANCH  22  25
HETATM   25  C   UNL     1     -42.691  54.751 -55.451  1.00  0.00     0.188 C 
HETATM   26  C   UNL     1     -43.997  54.984 -54.668  1.00  0.00     0.033 C 
HETATM   27  C   UNL     1     -44.006  56.291 -53.877  1.00  0.00     0.002 C 
HETATM   28  C   UNL     1     -43.699  57.492 -54.768  1.00  0.00     0.000 C 
HETATM   29  C   UNL     1     -42.436  57.294 -55.603  1.00  0.00     0.002 C 
HETATM   30  C   UNL     1     -42.467  55.971 -56.367  1.00  0.00     0.033 C 
ENDBRANCH  22  25
ENDBRANCH  21  22
ENDBRANCH   1  21
BRANCH   2  31
HETATM   31  C   UNL     1     -39.723  51.108 -52.672  1.00  0.00     0.229 A 
HETATM   32  N   UNL     1     -39.685  51.071 -54.006  1.00  0.00    -0.081 NA
HETATM   33  O   UNL     1     -39.465  49.722 -54.296  1.00  0.00    -0.103 OA
HETATM   34  N   UNL     1     -39.373  48.968 -53.134  1.00  0.00    -0.083 NA
HETATM   35  C   UNL     1     -39.538  49.825 -52.129  1.00  0.00     0.201 A 
BRANCH  35  36
HETATM   36  N   UNL     1     -39.513  49.485 -50.829  1.00  0.00    -0.379 N 
HETATM   37  H   UNL     1     -38.799  49.876 -50.221  1.00  0.00     0.158 HD
HETATM   38  H   UNL     1     -39.975  48.657 -50.459  1.00  0.00     0.158 HD
ENDBRANCH  35  36
ENDBRANCH   2  31
TORSDOF 9
ENDMDL
MODEL 2
REMARK VINA RESULT:      -7.7      4.418      7.849
REMARK  9 active torsions:
REMARK  status: ('A' for Active; 'I' for Inactive)
REMARK    1  A    between atoms: N_2  and  C_4 
REMARK    2  A    between atoms: N_2  and  C_10 
REMARK    3  A    between atoms: C_10  and  C_11 
REMARK    4  A    between atoms: N_12  and  C_13 
REMARK    5  A    between atoms: C_17  and  N_18 
REMARK    6  A    between atoms: C_21  and  C_22 
REMARK       I    between atoms: C_22  and  N_23 
REMARK    7  A    between atoms: N_23  and  N_24 
REMARK    8  A    between atoms: C_25  and  C_26 
REMARK    9  A    between atoms: C_27  and  O_28 
ROOT
HETATM    1  C   UNL     1     -42.280  57.975 -53.735  1.00  0.00     0.102 A 
HETATM    2  N   UNL     1     -41.423  58.988 -53.278  1.00  0.00    -0.191 N 
HETATM    3  N   UNL     1     -41.114  59.799 -54.325  1.00  0.00    -0.058 NA
HETATM    4  N   UNL     1     -41.823  59.444 -55.379  1.00  0.00    -0.124 NA
HETATM    5  C   UNL     1     -42.565  58.349 -55.045  1.00  0.00     0.176 A 
ENDROOT
BRANCH   5   6
HETATM    6  C   UNL     1     -43.473  57.714 -55.988  1.00  0.00     0.294 C 
HETATM    7  N   UNL     1     -44.635  58.422 -56.233  1.00  0.00    -0.242 N 
HETATM    8  H   UNL     1     -44.810  59.303 -55.753  1.00  0.00     0.192 HD
HETATM    9  O   UNL     1     -43.175  56.646 -56.522  1.00  0.00    -0.264 OA
BRANCH   7  10
HETATM   10  N   UNL     1     -45.502  57.962 -57.174  1.00  0.00    -0.183 NA
HETATM   11  C   UNL     1     -45.357  58.437 -58.371  1.00  0.00     0.153 C 
BRANCH  11  12
HETATM   12  C   UNL     1     -46.233  57.980 -59.471  1.00  0.00     0.018 A 
HETATM   13  C   UNL     1     -46.272  56.641 -59.885  1.00  0.00     0.077 A 
HETATM   14  C   UNL     1     -47.098  56.253 -60.936  1.00  0.00     0.039 A 
HETATM   15  C   UNL     1     -47.895  57.201 -61.579  1.00  0.00     0.026 A 
HETATM   16  C   UNL     1     -47.858  58.532 -61.165  1.00  0.00     0.035 A 
HETATM   17 CL   UNL     1     -48.839  59.700 -61.961  1.00  0.00    -0.084 Cl
HETATM   18  C   UNL     1     -47.031  58.931 -60.114  1.00  0.00     0.039 A 
BRANCH  13  19
HETATM   19  O   UNL     1     -45.521  55.654 -59.307  1.00  0.00    -0.360 OA
HETATM   20  H   UNL     1     -45.694  54.820 -59.795  1.00  0.00     0.217 HD
ENDBRANCH  13  19
ENDBRANCH  11  12
ENDBRANCH   7  10
ENDBRANCH   5   6
BRANCH   1  21
HETATM   21  C   UNL     1     -42.766  56.868 -52.859  1.00  0.00     0.296 C 
BRANCH  21  22
HETATM   22  N   UNL     1     -41.799  55.725 -52.584  1.00  0.00    -0.065 N 
HETATM   23  C   UNL     1     -41.297  55.790 -51.157  1.00  0.00     0.270 C 
HETATM   24  H   UNL     1     -40.965  55.880 -53.184  1.00  0.00     0.280 HD
BRANCH  22  25
HETATM   25  C   UNL     1     -42.362  54.336 -52.944  1.00  0.00     0.188 C 
HETATM   26  C   UNL     1     -42.444  54.117 -54.467  1.00  0.00     0.033 C 
HETATM   27  C   UNL     1     -41.076  54.035 -55.143  1.00  0.00     0.002 C 
HETATM   28  C   UNL     1     -40.190  52.972 -54.499  1.00  0.00     0.000 C 
HETATM   29  C   UNL     1     -40.111  53.116 -52.982  1.00  0.00     0.002 C 
HETATM   30  C   UNL     1     -41.501  53.203 -52.350  1.00  0.00     0.033 C 
ENDBRANCH  22  25
ENDBRANCH  21  22
ENDBRANCH   1  21
BRANCH   2  31
HETATM   31  C   UNL     1     -40.923  59.229 -51.974  1.00  0.00     0.229 A 
HETATM   32  N   UNL     1     -39.609  59.215 -51.744  1.00  0.00    -0.081 NA
HETATM   33  O   UNL     1     -39.507  59.469 -50.374  1.00  0.00    -0.103 OA
HETATM   34  N   UNL     1     -40.760  59.633 -49.800  1.00  0.00    -0.083 NA
HETATM   35  C   UNL     1     -41.638  59.478 -50.789  1.00  0.00     0.201 A 
BRANCH  35  36
HETATM   36  N   UNL     1     -42.970  59.566 -50.643  1.00  0.00    -0.379 N 
HETATM   37  H   UNL     1     -43.521  58.719 -50.533  1.00  0.00     0.158 HD
HETATM   38  H   UNL     1     -43.509  60.387 -50.909  1.00  0.00     0.158 HD
ENDBRANCH  35  36
ENDBRANCH   2  31
TORSDOF 9
ENDMDL
MODEL 3
REMARK VINA RESULT:      -7.5      5.208      8.992
REMARK  9 active torsions:
REMARK  status: ('A' for Active; 'I' for Inactive)
REMARK    1  A    between atoms: N_2  and  C_4 
REMARK    2  A    between atoms: N_2  and  C_10 
REMARK    3  A    between atoms: C_10  and  C_11 
REMARK    4  A    between atoms: N_12  and  C_13 
REMARK    5  A    between atoms: C_17  and  N_18 
REMARK    6  A    between atoms: C_21  and  C_22 
REMARK       I    between atoms: C_22  and  N_23 
REMARK    7  A    between atoms: N_23  and  N_24 
REMARK    8  A    between atoms: C_25  and  C_26 
REMARK    9  A    between atoms: C_27  and  O_28 
ROOT
HETATM    1  C   UNL     1     -43.500  57.515 -58.385  1.00  0.00     0.102 A 
HETATM    2  N   UNL     1     -43.480  57.826 -59.754  1.00  0.00    -0.191 N 
HETATM    3  N   UNL     1     -42.832  56.830 -60.416  1.00  0.00    -0.058 NA
HETATM    4  N   UNL     1     -42.559  55.851 -59.576  1.00  0.00    -0.124 NA
HETATM    5  C   UNL     1     -42.977  56.226 -58.333  1.00  0.00     0.176 A 
ENDROOT
BRANCH   5   6
HETATM    6  C   UNL     1     -42.834  55.357 -57.174  1.00  0.00     0.294 C 
HETATM    7  N   UNL     1     -41.765  55.664 -56.354  1.00  0.00    -0.242 N 
HETATM    8  H   UNL     1     -41.138  56.431 -56.592  1.00  0.00     0.192 HD
HETATM    9  O   UNL     1     -43.643  54.454 -56.966  1.00  0.00    -0.264 OA
BRANCH   7  10
HETATM   10  N   UNL     1     -41.604  54.975 -55.193  1.00  0.00    -0.183 NA
HETATM   11  C   UNL     1     -40.685  54.060 -55.189  1.00  0.00     0.153 C 
BRANCH  11  12
HETATM   12  C   UNL     1     -40.415  53.273 -53.967  1.00  0.00     0.018 A 
HETATM   13  C   UNL     1     -40.503  53.833 -52.685  1.00  0.00     0.077 A 
HETATM   14  C   UNL     1     -40.224  53.063 -51.560  1.00  0.00     0.039 A 
HETATM   15  C   UNL     1     -39.859  51.725 -51.708  1.00  0.00     0.026 A 
HETATM   16  C   UNL     1     -39.775  51.167 -52.983  1.00  0.00     0.035 A 
HETATM   17 CL   UNL     1     -39.322  49.517 -53.163  1.00  0.00    -0.084 Cl
HETATM   18  C   UNL     1     -40.050  51.932 -54.117  1.00  0.00     0.039 A 
BRANCH  13  19
HETATM   19  O   UNL     1     -40.852  55.137 -52.458  1.00  0.00    -0.360 OA
HETATM   20  H   UNL     1     -41.617  55.139 -51.843  1.00  0.00     0.217 HD
ENDBRANCH  13  19
ENDBRANCH  11  12
ENDBRANCH   7  10
ENDBRANCH   5   6
BRANCH   1  21
HETATM   21  C   UNL     1     -44.077  58.428 -57.355  1.00  0.00     0.296 C 
BRANCH  21  22
HETATM   22  N   UNL     1     -43.151  58.888 -56.238  1.00  0.00    -0.065 N 
HETATM   23  C   UNL     1     -42.161  59.907 -56.761  1.00  0.00     0.270 C 
HETATM   24  H   UNL     1     -42.584  58.064 -55.953  1.00  0.00     0.280 HD
BRANCH  22  25
HETATM   25  C   UNL     1     -43.893  59.382 -54.981  1.00  0.00     0.188 C 
HETATM   26  C   UNL     1     -45.045  58.443 -54.576  1.00  0.00     0.033 C 
HETATM   27  C   UNL     1     -44.570  57.076 -54.087  1.00  0.00     0.002 C 
HETATM   28  C   UNL     1     -43.562  57.203 -52.948  1.00  0.00     0.000 C 
HETATM   29  C   UNL     1     -42.420  58.160 -53.280  1.00  0.00     0.002 C 
HETATM   30  C   UNL     1     -42.942  59.509 -53.774  1.00  0.00     0.033 C 
ENDBRANCH  22  25
ENDBRANCH  21  22
ENDBRANCH   1  21
BRANCH   2  31
HETATM   31  C   UNL     1     -44.028  58.942 -60.435  1.00  0.00     0.229 A 
HETATM   32  N   UNL     1     -45.349  59.133 -60.458  1.00  0.00    -0.081 NA
HETATM   33  O   UNL     1     -45.504  60.295 -61.219  1.00  0.00    -0.103 OA
HETATM   34  N   UNL     1     -44.276  60.784 -61.643  1.00  0.00    -0.083 NA
HETATM   35  C   UNL     1     -43.362  59.944 -61.162  1.00  0.00     0.201 A 
BRANCH  35  36
HETATM   36  N   UNL     1     -42.038  60.073 -61.351  1.00  0.00    -0.379 N 
HETATM   37  H   UNL     1     -41.437  59.257 -61.267  1.00  0.00     0.158 HD
HETATM   38  H   UNL     1     -41.550  60.964 -61.296  1.00  0.00     0.158 HD
ENDBRANCH  35  36
ENDBRANCH   2  31
TORSDOF 9
ENDMDL
MODEL 4
REMARK VINA RESULT:      -7.5      3.983      9.097
REMARK  9 active torsions:
REMARK  status: ('A' for Active; 'I' for Inactive)
REMARK    1  A    between atoms: N_2  and  C_4 
REMARK    2  A    between atoms: N_2  and  C_10 
REMARK    3  A    between atoms: C_10  and  C_11 
REMARK    4  A    between atoms: N_12  and  C_13 
REMARK    5  A    between atoms: C_17  and  N_18 
REMARK    6  A    between atoms: C_21  and  C_22 
REMARK       I    between atoms: C_22  and  N_23 
REMARK    7  A    between atoms: N_23  and  N_24 
REMARK    8  A    between atoms: C_25  and  C_26 
REMARK    9  A    between atoms: C_27  and  O_28 
ROOT
HETATM    1  C   UNL     1     -44.523  59.329 -51.642  1.00  0.00     0.102 A 
HETATM    2  N   UNL     1     -45.448  59.795 -50.695  1.00  0.00    -0.191 N 
HETATM    3  N   UNL     1     -46.277  58.772 -50.358  1.00  0.00    -0.058 NA
HETATM    4  N   UNL     1     -45.855  57.660 -50.928  1.00  0.00    -0.124 NA
HETATM    5  C   UNL     1     -44.770  57.960 -51.698  1.00  0.00     0.176 A 
ENDROOT
BRANCH   5   6
HETATM    6  C   UNL     1     -44.054  56.944 -52.455  1.00  0.00     0.294 C 
HETATM    7  N   UNL     1     -43.469  55.958 -51.682  1.00  0.00    -0.242 N 
HETATM    8  H   UNL     1     -43.539  55.991 -50.666  1.00  0.00     0.192 HD
HETATM    9  O   UNL     1     -44.024  56.984 -53.684  1.00  0.00    -0.264 OA
BRANCH   7  10
HETATM   10  N   UNL     1     -42.862  54.910 -52.300  1.00  0.00    -0.183 NA
HETATM   11  C   UNL     1     -41.689  54.582 -51.855  1.00  0.00     0.153 C 
BRANCH  11  12
HETATM   12  C   UNL     1     -40.957  53.439 -52.443  1.00  0.00     0.018 A 
HETATM   13  C   UNL     1     -40.757  53.314 -53.825  1.00  0.00     0.077 A 
HETATM   14  C   UNL     1     -40.077  52.214 -54.341  1.00  0.00     0.039 A 
HETATM   15  C   UNL     1     -39.590  51.232 -53.478  1.00  0.00     0.026 A 
HETATM   16  C   UNL     1     -39.787  51.358 -52.103  1.00  0.00     0.035 A 
HETATM   17 CL   UNL     1     -39.187  50.145 -51.040  1.00  0.00    -0.084 Cl
HETATM   18  C   UNL     1     -40.469  52.456 -51.577  1.00  0.00     0.039 A 
BRANCH  13  19
HETATM   19  O   UNL     1     -41.205  54.232 -54.735  1.00  0.00    -0.360 OA
HETATM   20  H   UNL     1     -41.129  53.831 -55.628  1.00  0.00     0.217 HD
ENDBRANCH  13  19
ENDBRANCH  11  12
ENDBRANCH   7  10
ENDBRANCH   5   6
BRANCH   1  21
HETATM   21  C   UNL     1     -43.502  60.211 -52.281  1.00  0.00     0.296 C 
BRANCH  21  22
HETATM   22  N   UNL     1     -42.163  60.350 -51.571  1.00  0.00    -0.065 N 
HETATM   23  C   UNL     1     -42.247  61.410 -50.492  1.00  0.00     0.270 C 
HETATM   24  H   UNL     1     -41.483  60.712 -52.269  1.00  0.00     0.280 HD
BRANCH  22  25
HETATM   25  C   UNL     1     -41.600  59.018 -51.040  1.00  0.00     0.188 C 
HETATM   26  C   UNL     1     -40.845  58.230 -52.128  1.00  0.00     0.033 C 
HETATM   27  C   UNL     1     -39.552  58.906 -52.581  1.00  0.00     0.002 C 
HETATM   28  C   UNL     1     -38.629  59.205 -51.404  1.00  0.00     0.000 C 
HETATM   29  C   UNL     1     -39.340  59.946 -50.275  1.00  0.00     0.002 C 
HETATM   30  C   UNL     1     -40.631  59.240 -49.862  1.00  0.00     0.033 C 
ENDBRANCH  22  25
ENDBRANCH  21  22
ENDBRANCH   1  21
BRANCH   2  31
HETATM   31  C   UNL     1     -45.570  61.080 -50.109  1.00  0.00     0.229 A 
HETATM   32  N   UNL     1     -45.828  62.145 -50.872  1.00  0.00    -0.081 NA
HETATM   33  O   UNL     1     -45.858  63.206 -49.964  1.00  0.00    -0.103 OA
HETATM   34  N   UNL     1     -45.619  62.765 -48.670  1.00  0.00    -0.083 NA
HETATM   35  C   UNL     1     -45.435  61.450 -48.760  1.00  0.00     0.201 A 
BRANCH  35  36
HETATM   36  N   UNL     1     -45.179  60.645 -47.715  1.00  0.00    -0.379 N 
HETATM   37  H   UNL     1     -44.674  59.776 -47.862  1.00  0.00     0.158 HD
HETATM   38  H   UNL     1     -45.687  60.694 -46.835  1.00  0.00     0.158 HD
ENDBRANCH  35  36
ENDBRANCH   2  31
TORSDOF 9
ENDMDL
MODEL 5
REMARK VINA RESULT:      -7.3      4.378      8.588
REMARK  9 active torsions:
REMARK  status: ('A' for Active; 'I' for Inactive)
REMARK    1  A    between atoms: N_2  and  C_4 
REMARK    2  A    between atoms: N_2  and  C_10 
REMARK    3  A    between atoms: C_10  and  C_11 
REMARK    4  A    between atoms: N_12  and  C_13 
REMARK    5  A    between atoms: C_17  and  N_18 
REMARK    6  A    between atoms: C_21  and  C_22 
REMARK       I    between atoms: C_22  and  N_23 
REMARK    7  A    between atoms: N_23  and  N_24 
REMARK    8  A    between atoms: C_25  and  C_26 
REMARK    9  A    between atoms: C_27  and  O_28 
ROOT
HETATM    1  C   UNL     1     -43.881  57.422 -56.663  1.00  0.00     0.102 A 
HETATM    2  N   UNL     1     -44.325  58.045 -57.839  1.00  0.00    -0.191 N 
HETATM    3  N   UNL     1     -43.824  57.366 -58.906  1.00  0.00    -0.058 NA
HETATM    4  N   UNL     1     -43.205  56.281 -58.483  1.00  0.00    -0.124 NA
HETATM    5  C   UNL     1     -43.244  56.272 -57.120  1.00  0.00     0.176 A 
ENDROOT
BRANCH   5   6
HETATM    6  C   UNL     1     -42.657  55.194 -56.337  1.00  0.00     0.294 C 
HETATM    7  N   UNL     1     -41.411  55.479 -55.812  1.00  0.00    -0.242 N 
HETATM    8  H   UNL     1     -40.965  56.374 -56.001  1.00  0.00     0.192 HD
HETATM    9  O   UNL     1     -43.272  54.144 -56.159  1.00  0.00    -0.264 OA
BRANCH   7  10
HETATM   10  N   UNL     1     -40.823  54.575 -54.983  1.00  0.00    -0.183 NA
HETATM   11  C   UNL     1     -41.319  54.482 -53.789  1.00  0.00     0.153 C 
BRANCH  11  12
HETATM   12  C   UNL     1     -40.767  53.510 -52.820  1.00  0.00     0.018 A 
HETATM   13  C   UNL     1     -40.195  52.296 -53.227  1.00  0.00     0.077 A 
HETATM   14  C   UNL     1     -39.701  51.399 -52.284  1.00  0.00     0.039 A 
HETATM   15  C   UNL     1     -39.773  51.711 -50.926  1.00  0.00     0.026 A 
HETATM   16  C   UNL     1     -40.340  52.920 -50.522  1.00  0.00     0.035 A 
HETATM   17 CL   UNL     1     -40.429  53.302 -48.847  1.00  0.00    -0.084 Cl
HETATM   18  C   UNL     1     -40.839  53.824 -51.460  1.00  0.00     0.039 A 
BRANCH  13  19
HETATM   19  O   UNL     1     -40.089  51.918 -54.538  1.00  0.00    -0.360 OA
HETATM   20  H   UNL     1     -39.174  51.595 -54.684  1.00  0.00     0.217 HD
ENDBRANCH  13  19
ENDBRANCH  11  12
ENDBRANCH   7  10
ENDBRANCH   5   6
BRANCH   1  21
HETATM   21  C   UNL     1     -44.190  57.947 -55.300  1.00  0.00     0.296 C 
BRANCH  21  22
HETATM   22  N   UNL     1     -43.010  58.328 -54.419  1.00  0.00    -0.065 N 
HETATM   23  C   UNL     1     -42.062  59.239 -55.171  1.00  0.00     0.270 C 
HETATM   24  H   UNL     1     -42.475  57.456 -54.232  1.00  0.00     0.280 HD
BRANCH  22  25
HETATM   25  C   UNL     1     -43.418  58.909 -53.051  1.00  0.00     0.188 C 
HETATM   26  C   UNL     1     -44.378  57.979 -52.285  1.00  0.00     0.033 C 
HETATM   27  C   UNL     1     -43.728  56.670 -51.838  1.00  0.00     0.002 C 
HETATM   28  C   UNL     1     -42.464  56.918 -51.020  1.00  0.00     0.000 C 
HETATM   29  C   UNL     1     -41.495  57.872 -51.714  1.00  0.00     0.002 C 
HETATM   30  C   UNL     1     -42.190  59.161 -52.152  1.00  0.00     0.033 C 
ENDBRANCH  22  25
ENDBRANCH  21  22
ENDBRANCH   1  21
BRANCH   2  31
HETATM   31  C   UNL     1     -45.167  59.174 -58.001  1.00  0.00     0.229 A 
HETATM   32  N   UNL     1     -44.662  60.335 -58.423  1.00  0.00    -0.081 NA
HETATM   33  O   UNL     1     -45.765  61.192 -58.441  1.00  0.00    -0.103 OA
HETATM   34  N   UNL     1     -46.917  60.536 -58.029  1.00  0.00    -0.083 NA
HETATM   35  C   UNL     1     -46.546  59.288 -57.751  1.00  0.00     0.201 A 
BRANCH  35  36
HETATM   36  N   UNL     1     -47.379  58.326 -57.320  1.00  0.00    -0.379 N 
HETATM   37  H   UNL     1     -48.378  58.510 -57.274  1.00  0.00     0.158 HD
HETATM   38  H   UNL     1     -47.073  57.524 -56.773  1.00  0.00     0.158 HD
ENDBRANCH  35  36
ENDBRANCH   2  31
TORSDOF 9
ENDMDL
MODEL 6
REMARK VINA RESULT:      -7.3      3.698      6.347
REMARK  9 active torsions:
REMARK  status: ('A' for Active; 'I' for Inactive)
REMARK    1  A    between atoms: N_2  and  C_4 
REMARK    2  A    between atoms: N_2  and  C_10 
REMARK    3  A    between atoms: C_10  and  C_11 
REMARK    4  A    between atoms: N_12  and  C_13 
REMARK    5  A    between atoms: C_17  and  N_18 
REMARK    6  A    between atoms: C_21  and  C_22 
REMARK       I    between atoms: C_22  and  N_23 
REMARK    7  A    between atoms: N_23  and  N_24 
REMARK    8  A    between atoms: C_25  and  C_26 
REMARK    9  A    between atoms: C_27  and  O_28 
ROOT
HETATM    1  C   UNL     1     -42.619  58.186 -52.803  1.00  0.00     0.102 A 
HETATM    2  N   UNL     1     -42.125  57.884 -54.082  1.00  0.00    -0.191 N 
HETATM    3  N   UNL     1     -41.985  59.043 -54.779  1.00  0.00    -0.058 NA
HETATM    4  N   UNL     1     -42.231  60.066 -53.982  1.00  0.00    -0.124 NA
HETATM    5  C   UNL     1     -42.596  59.578 -52.762  1.00  0.00     0.176 A 
ENDROOT
BRANCH   5   6
HETATM    6  C   UNL     1     -42.922  60.452 -51.646  1.00  0.00     0.294 C 
HETATM    7  N   UNL     1     -44.276  60.663 -51.458  1.00  0.00    -0.242 N 
HETATM    8  H   UNL     1     -44.955  60.240 -52.088  1.00  0.00     0.192 HD
HETATM    9  O   UNL     1     -42.033  60.918 -50.935  1.00  0.00    -0.264 OA
BRANCH   7  10
HETATM   10  N   UNL     1     -44.687  61.384 -50.381  1.00  0.00    -0.183 NA
HETATM   11  C   UNL     1     -45.019  60.706 -49.327  1.00  0.00     0.153 C 
BRANCH  11  12
HETATM   12  C   UNL     1     -45.454  61.398 -48.095  1.00  0.00     0.018 A 
HETATM   13  C   UNL     1     -46.527  62.301 -48.088  1.00  0.00     0.077 A 
HETATM   14  C   UNL     1     -46.897  62.946 -46.910  1.00  0.00     0.039 A 
HETATM   15  C   UNL     1     -46.197  62.691 -45.731  1.00  0.00     0.026 A 
HETATM   16  C   UNL     1     -45.131  61.791 -45.738  1.00  0.00     0.035 A 
HETATM   17 CL   UNL     1     -44.269  61.480 -44.282  1.00  0.00    -0.084 Cl
HETATM   18  C   UNL     1     -44.753  61.141 -46.914  1.00  0.00     0.039 A 
BRANCH  13  19
HETATM   19  O   UNL     1     -47.261  62.604 -49.202  1.00  0.00    -0.360 OA
HETATM   20  H   UNL     1     -47.691  63.474 -49.051  1.00  0.00     0.217 HD
ENDBRANCH  13  19
ENDBRANCH  11  12
ENDBRANCH   7  10
ENDBRANCH   5   6
BRANCH   1  21
HETATM   21  C   UNL     1     -42.954  57.138 -51.795  1.00  0.00     0.296 C 
BRANCH  21  22
HETATM   22  N   UNL     1     -41.790  56.463 -51.083  1.00  0.00    -0.065 N 
HETATM   23  C   UNL     1     -40.979  57.485 -50.313  1.00  0.00     0.270 C 
HETATM   24  H   UNL     1     -41.154  56.096 -51.818  1.00  0.00     0.280 HD
BRANCH  22  25
HETATM   25  C   UNL     1     -42.208  55.267 -50.207  1.00  0.00     0.188 C 
HETATM   26  C   UNL     1     -42.490  54.003 -51.042  1.00  0.00     0.033 C 
HETATM   27  C   UNL     1     -41.243  53.425 -51.709  1.00  0.00     0.002 C 
HETATM   28  C   UNL     1     -40.134  53.156 -50.696  1.00  0.00     0.000 C 
HETATM   29  C   UNL     1     -39.845  54.364 -49.809  1.00  0.00     0.002 C 
HETATM   30  C   UNL     1     -41.121  54.914 -49.172  1.00  0.00     0.033 C 
ENDBRANCH  22  25
ENDBRANCH  21  22
ENDBRANCH   1  21
BRANCH   2  31
HETATM   31  C   UNL     1     -41.779  56.629 -54.643  1.00  0.00     0.229 A 
HETATM   32  N   UNL     1     -40.701  55.973 -54.208  1.00  0.00    -0.081 NA
HETATM   33  O   UNL     1     -40.676  54.815 -54.991  1.00  0.00    -0.103 OA
HETATM   34  N   UNL     1     -41.738  54.792 -55.884  1.00  0.00    -0.083 NA
HETATM   35  C   UNL     1     -42.418  55.918 -55.673  1.00  0.00     0.201 A 
BRANCH  35  36
HETATM   36  N   UNL     1     -43.528  56.271 -56.342  1.00  0.00    -0.379 N 
HETATM   37  H   UNL     1     -43.775  57.254 -56.421  1.00  0.00     0.158 HD
HETATM   38  H   UNL     1     -44.290  55.628 -56.540  1.00  0.00     0.158 HD
ENDBRANCH  35  36
ENDBRANCH   2  31
TORSDOF 9
ENDMDL
MODEL 7
REMARK VINA RESULT:      -7.2      4.638      8.762
REMARK  9 active torsions:
REMARK  status: ('A' for Active; 'I' for Inactive)
REMARK    1  A    between atoms: N_2  and  C_4 
REMARK    2  A    between atoms: N_2  and  C_10 
REMARK    3  A    between atoms: C_10  and  C_11 
REMARK    4  A    between atoms: N_12  and  C_13 
REMARK    5  A    between atoms: C_17  and  N_18 
REMARK    6  A    between atoms: C_21  and  C_22 
REMARK       I    between atoms: C_22  and  N_23 
REMARK    7  A    between atoms: N_23  and  N_24 
REMARK    8  A    between atoms: C_25  and  C_26 
REMARK    9  A    between atoms: C_27  and  O_28 
ROOT
HETATM    1  C   UNL     1     -42.239  59.925 -55.476  1.00  0.00     0.102 A 
HETATM    2  N   UNL     1     -42.811  61.202 -55.587  1.00  0.00    -0.191 N 
HETATM    3  N   UNL     1     -42.871  61.759 -54.348  1.00  0.00    -0.058 NA
HETATM    4  N   UNL     1     -42.255  60.975 -53.484  1.00  0.00    -0.124 NA
HETATM    5  C   UNL     1     -41.835  59.859 -54.146  1.00  0.00     0.176 A 
ENDROOT
BRANCH   5   6
HETATM    6  C   UNL     1     -41.103  58.794 -53.477  1.00  0.00     0.294 C 
HETATM    7  N   UNL     1     -41.848  57.657 -53.222  1.00  0.00    -0.242 N 
HETATM    8  H   UNL     1     -42.833  57.620 -53.477  1.00  0.00     0.192 HD
HETATM    9  O   UNL     1     -39.910  58.927 -53.208  1.00  0.00    -0.264 OA
BRANCH   7  10
HETATM   10  N   UNL     1     -41.229  56.569 -52.691  1.00  0.00    -0.183 NA
HETATM   11  C   UNL     1     -41.524  55.424 -53.222  1.00  0.00     0.153 C 
BRANCH  11  12
HETATM   12  C   UNL     1     -40.884  54.183 -52.734  1.00  0.00     0.018 A 
HETATM   13  C   UNL     1     -40.480  54.029 -51.400  1.00  0.00     0.077 A 
HETATM   14  C   UNL     1     -39.866  52.851 -50.982  1.00  0.00     0.039 A 
HETATM   15  C   UNL     1     -39.654  51.818 -51.895  1.00  0.00     0.026 A 
HETATM   16  C   UNL     1     -40.059  51.971 -53.221  1.00  0.00     0.035 A 
HETATM   17 CL   UNL     1     -39.796  50.695 -54.345  1.00  0.00    -0.084 Cl
HETATM   18  C   UNL     1     -40.674  53.148 -53.649  1.00  0.00     0.039 A 
BRANCH  13  19
HETATM   19  O   UNL     1     -40.651  54.996 -50.447  1.00  0.00    -0.360 OA
HETATM   20  H   UNL     1     -41.568  55.338 -50.528  1.00  0.00     0.217 HD
ENDBRANCH  13  19
ENDBRANCH  11  12
ENDBRANCH   7  10
ENDBRANCH   5   6
BRANCH   1  21
HETATM   21  C   UNL     1     -42.082  59.003 -56.640  1.00  0.00     0.296 C 
BRANCH  21  22
HETATM   22  N   UNL     1     -43.299  58.182 -57.043  1.00  0.00    -0.065 N 
HETATM   23  C   UNL     1     -44.318  58.164 -55.923  1.00  0.00     0.270 C 
HETATM   24  H   UNL     1     -42.980  57.198 -57.150  1.00  0.00     0.280 HD
BRANCH  22  25
HETATM   25  C   UNL     1     -43.915  58.606 -58.390  1.00  0.00     0.188 C 
HETATM   26  C   UNL     1     -42.852  58.769 -59.493  1.00  0.00     0.033 C 
HETATM   27  C   UNL     1     -42.195  57.451 -59.902  1.00  0.00     0.002 C 
HETATM   28  C   UNL     1     -43.230  56.407 -60.311  1.00  0.00     0.000 C 
HETATM   29  C   UNL     1     -44.335  56.238 -59.272  1.00  0.00     0.002 C 
HETATM   30  C   UNL     1     -44.955  57.581 -58.886  1.00  0.00     0.033 C 
ENDBRANCH  22  25
ENDBRANCH  21  22
ENDBRANCH   1  21
BRANCH   2  31
HETATM   31  C   UNL     1     -43.261  61.893 -56.740  1.00  0.00     0.229 A 
HETATM   32  N   UNL     1     -44.564  61.958 -57.018  1.00  0.00    -0.081 NA
HETATM   33  O   UNL     1     -44.615  62.687 -58.210  1.00  0.00    -0.103 OA
HETATM   34  N   UNL     1     -43.343  63.050 -58.629  1.00  0.00    -0.083 NA
HETATM   35  C   UNL     1     -42.504  62.554 -57.723  1.00  0.00     0.201 A 
BRANCH  35  36
HETATM   36  N   UNL     1     -41.168  62.693 -57.767  1.00  0.00    -0.379 N 
HETATM   37  H   UNL     1     -40.734  63.116 -58.583  1.00  0.00     0.158 HD
HETATM   38  H   UNL     1     -40.531  62.161 -57.179  1.00  0.00     0.158 HD
ENDBRANCH  35  36
ENDBRANCH   2  31
TORSDOF 9
ENDMDL
MODEL 8
REMARK VINA RESULT:      -7.2      4.023      9.133
REMARK  9 active torsions:
REMARK  status: ('A' for Active; 'I' for Inactive)
REMARK    1  A    between atoms: N_2  and  C_4 
REMARK    2  A    between atoms: N_2  and  C_10 
REMARK    3  A    between atoms: C_10  and  C_11 
REMARK    4  A    between atoms: N_12  and  C_13 
REMARK    5  A    between atoms: C_17  and  N_18 
REMARK    6  A    between atoms: C_21  and  C_22 
REMARK       I    between atoms: C_22  and  N_23 
REMARK    7  A    between atoms: N_23  and  N_24 
REMARK    8  A    between atoms: C_25  and  C_26 
REMARK    9  A    between atoms: C_27  and  O_28 
ROOT
HETATM    1  C   UNL     1     -44.206  59.669 -51.058  1.00  0.00     0.102 A 
HETATM    2  N   UNL     1     -45.292  59.953 -50.215  1.00  0.00    -0.191 N 
HETATM    3  N   UNL     1     -46.070  58.841 -50.120  1.00  0.00    -0.058 NA
HETATM    4  N   UNL     1     -45.478  57.838 -50.739  1.00  0.00    -0.124 NA
HETATM    5  C   UNL     1     -44.326  58.303 -51.300  1.00  0.00     0.176 A 
ENDROOT
BRANCH   5   6
HETATM    6  C   UNL     1     -43.425  57.438 -52.048  1.00  0.00     0.294 C 
HETATM    7  N   UNL     1     -42.455  56.819 -51.281  1.00  0.00    -0.242 N 
HETATM    8  H   UNL     1     -42.397  57.000 -50.281  1.00  0.00     0.192 HD
HETATM    9  O   UNL     1     -43.573  57.278 -53.258  1.00  0.00    -0.264 OA
BRANCH   7  10
HETATM   10  N   UNL     1     -41.629  55.914 -51.870  1.00  0.00    -0.183 NA
HETATM   11  C   UNL     1     -41.924  54.664 -51.692  1.00  0.00     0.153 C 
BRANCH  11  12
HETATM   12  C   UNL     1     -41.102  53.603 -52.312  1.00  0.00     0.018 A 
HETATM   13  C   UNL     1     -40.818  53.588 -53.685  1.00  0.00     0.077 A 
HETATM   14  C   UNL     1     -40.054  52.562 -54.234  1.00  0.00     0.039 A 
HETATM   15  C   UNL     1     -39.566  51.544 -53.414  1.00  0.00     0.026 A 
HETATM   16  C   UNL     1     -39.847  51.561 -52.048  1.00  0.00     0.035 A 
HETATM   17 CL   UNL     1     -39.246  50.304 -51.038  1.00  0.00    -0.084 Cl
HETATM   18  C   UNL     1     -40.613  52.584 -51.488  1.00  0.00     0.039 A 
BRANCH  13  19
HETATM   19  O   UNL     1     -41.261  54.547 -54.554  1.00  0.00    -0.360 OA
HETATM   20  H   UNL     1     -41.017  54.264 -55.462  1.00  0.00     0.217 HD
ENDBRANCH  13  19
ENDBRANCH  11  12
ENDBRANCH   7  10
ENDBRANCH   5   6
BRANCH   1  21
HETATM   21  C   UNL     1     -43.185  60.690 -51.436  1.00  0.00     0.296 C 
BRANCH  21  22
HETATM   22  N   UNL     1     -43.662  61.876 -52.262  1.00  0.00    -0.065 N 
HETATM   23  C   UNL     1     -43.331  63.176 -51.559  1.00  0.00     0.270 C 
HETATM   24  H   UNL     1     -44.700  61.829 -52.293  1.00  0.00     0.280 HD
BRANCH  22  25
HETATM   25  C   UNL     1     -43.166  61.856 -53.721  1.00  0.00     0.188 C 
HETATM   26  C   UNL     1     -43.531  60.545 -54.444  1.00  0.00     0.033 C 
HETATM   27  C   UNL     1     -45.033  60.375 -54.669  1.00  0.00     0.002 C 
HETATM   28  C   UNL     1     -45.634  61.571 -55.401  1.00  0.00     0.000 C 
HETATM   29  C   UNL     1     -45.264  62.902 -54.752  1.00  0.00     0.002 C 
HETATM   30  C   UNL     1     -43.755  63.024 -54.537  1.00  0.00     0.033 C 
ENDBRANCH  22  25
ENDBRANCH  21  22
ENDBRANCH   1  21
BRANCH   2  31
HETATM   31  C   UNL     1     -45.606  61.145 -49.517  1.00  0.00     0.229 A 
HETATM   32  N   UNL     1     -46.341  62.094 -50.102  1.00  0.00    -0.081 NA
HETATM   33  O   UNL     1     -46.422  63.098 -49.134  1.00  0.00    -0.103 OA
HETATM   34  N   UNL     1     -45.736  62.740 -47.982  1.00  0.00    -0.083 NA
HETATM   35  C   UNL     1     -45.226  61.534 -48.220  1.00  0.00     0.201 A 
BRANCH  35  36
HETATM   36  N   UNL     1     -44.489  60.833 -47.342  1.00  0.00    -0.379 N 
HETATM   37  H   UNL     1     -44.952  60.233 -46.664  1.00  0.00     0.158 HD
HETATM   38  H   UNL     1     -43.525  61.062 -47.113  1.00  0.00     0.158 HD
ENDBRANCH  35  36
ENDBRANCH   2  31
TORSDOF 9
ENDMDL
MODEL 9
REMARK VINA RESULT:      -7.1      4.193      8.567
REMARK  9 active torsions:
REMARK  status: ('A' for Active; 'I' for Inactive)
REMARK    1  A    between atoms: N_2  and  C_4 
REMARK    2  A    between atoms: N_2  and  C_10 
REMARK    3  A    between atoms: C_10  and  C_11 
REMARK    4  A    between atoms: N_12  and  C_13 
REMARK    5  A    between atoms: C_17  and  N_18 
REMARK    6  A    between atoms: C_21  and  C_22 
REMARK       I    between atoms: C_22  and  N_23 
REMARK    7  A    between atoms: N_23  and  N_24 
REMARK    8  A    between atoms: C_25  and  C_26 
REMARK    9  A    between atoms: C_27  and  O_28 
ROOT
HETATM    1  C   UNL     1     -42.611  57.458 -56.794  1.00  0.00     0.102 A 
HETATM    2  N   UNL     1     -43.038  58.046 -57.995  1.00  0.00    -0.191 N 
HETATM    3  N   UNL     1     -43.335  57.058 -58.881  1.00  0.00    -0.058 NA
HETATM    4  N   UNL     1     -43.251  55.889 -58.277  1.00  0.00    -0.124 NA
HETATM    5  C   UNL     1     -42.837  56.099 -56.995  1.00  0.00     0.176 A 
ENDROOT
BRANCH   5   6
HETATM    6  C   UNL     1     -42.657  55.006 -56.051  1.00  0.00     0.294 C 
HETATM    7  N   UNL     1     -41.339  54.682 -55.791  1.00  0.00    -0.242 N 
HETATM    8  H   UNL     1     -40.585  55.179 -56.262  1.00  0.00     0.192 HD
HETATM    9  O   UNL     1     -43.630  54.464 -55.528  1.00  0.00    -0.264 OA
BRANCH   7  10
HETATM   10  N   UNL     1     -41.064  53.742 -54.848  1.00  0.00    -0.183 NA
HETATM   11  C   UNL     1     -40.697  54.184 -53.685  1.00  0.00     0.153 C 
BRANCH  11  12
HETATM   12  C   UNL     1     -40.402  53.242 -52.584  1.00  0.00     0.018 A 
HETATM   13  C   UNL     1     -39.898  51.955 -52.819  1.00  0.00     0.077 A 
HETATM   14  C   UNL     1     -39.648  51.092 -51.756  1.00  0.00     0.039 A 
HETATM   15  C   UNL     1     -39.898  51.510 -50.449  1.00  0.00     0.026 A 
HETATM   16  C   UNL     1     -40.397  52.791 -50.215  1.00  0.00     0.035 A 
HETATM   17 CL   UNL     1     -40.706  53.304 -48.602  1.00  0.00    -0.084 Cl
HETATM   18  C   UNL     1     -40.652  53.663 -51.274  1.00  0.00     0.039 A 
BRANCH  13  19
HETATM   19  O   UNL     1     -39.628  51.471 -54.071  1.00  0.00    -0.360 OA
HETATM   20  H   UNL     1     -39.460  50.507 -53.990  1.00  0.00     0.217 HD
ENDBRANCH  13  19
ENDBRANCH  11  12
ENDBRANCH   7  10
ENDBRANCH   5   6
BRANCH   1  21
HETATM   21  C   UNL     1     -42.142  58.255 -55.623  1.00  0.00     0.296 C 
BRANCH  21  22
HETATM   22  N   UNL     1     -43.049  58.293 -54.401  1.00  0.00    -0.065 N 
HETATM   23  C   UNL     1     -44.478  57.981 -54.796  1.00  0.00     0.270 C 
HETATM   24  H   UNL     1     -43.059  59.274 -54.059  1.00  0.00     0.280 HD
BRANCH  22  25
HETATM   25  C   UNL     1     -42.558  57.413 -53.236  1.00  0.00     0.188 C 
HETATM   26  C   UNL     1     -41.085  57.687 -52.878  1.00  0.00     0.033 C 
HETATM   27  C   UNL     1     -40.853  59.075 -52.283  1.00  0.00     0.002 C 
HETATM   28  C   UNL     1     -41.749  59.328 -51.074  1.00  0.00     0.000 C 
HETATM   29  C   UNL     1     -43.217  59.027 -51.360  1.00  0.00     0.002 C 
HETATM   30  C   UNL     1     -43.401  57.634 -51.963  1.00  0.00     0.033 C 
ENDBRANCH  22  25
ENDBRANCH  21  22
ENDBRANCH   1  21
BRANCH   2  31
HETATM   31  C   UNL     1     -43.190  59.416 -58.325  1.00  0.00     0.229 A 
HETATM   32  N   UNL     1     -43.929  60.216 -57.553  1.00  0.00    -0.081 NA
HETATM   33  O   UNL     1     -43.859  61.456 -58.194  1.00  0.00    -0.103 OA
HETATM   34  N   UNL     1     -43.080  61.384 -59.340  1.00  0.00    -0.083 NA
HETATM   35  C   UNL     1     -42.670  60.121 -59.425  1.00  0.00     0.201 A 
BRANCH  35  36
HETATM   36  N   UNL     1     -41.883  59.641 -60.403  1.00  0.00    -0.379 N 
HETATM   37  H   UNL     1     -41.369  58.777 -60.256  1.00  0.00     0.158 HD
HETATM   38  H   UNL     1     -41.540  60.210 -61.174  1.00  0.00     0.158 HD
ENDBRANCH  35  36
ENDBRANCH   2  31
TORSDOF 9
ENDMDL
MODEL 10
REMARK VINA RESULT:      -7.1      4.624      8.700
REMARK  9 active torsions:
REMARK  status: ('A' for Active; 'I' for Inactive)
REMARK    1  A    between atoms: N_2  and  C_4 
REMARK    2  A    between atoms: N_2  and  C_10 
REMARK    3  A    between atoms: C_10  and  C_11 
REMARK    4  A    between atoms: N_12  and  C_13 
REMARK    5  A    between atoms: C_17  and  N_18 
REMARK    6  A    between atoms: C_21  and  C_22 
REMARK       I    between atoms: C_22  and  N_23 
REMARK    7  A    between atoms: N_23  and  N_24 
REMARK    8  A    between atoms: C_25  and  C_26 
REMARK    9  A    between atoms: C_27  and  O_28 
ROOT
HETATM    1  C   UNL     1     -44.027  58.663 -55.394  1.00  0.00     0.102 A 
HETATM    2  N   UNL     1     -43.991  60.066 -55.422  1.00  0.00    -0.191 N 
HETATM    3  N   UNL     1     -43.517  60.512 -54.227  1.00  0.00    -0.058 NA
HETATM    4  N   UNL     1     -43.127  59.483 -53.499  1.00  0.00    -0.124 NA
HETATM    5  C   UNL     1     -43.401  58.341 -54.193  1.00  0.00     0.176 A 
ENDROOT
BRANCH   5   6
HETATM    6  C   UNL     1     -43.078  57.023 -53.670  1.00  0.00     0.294 C 
HETATM    7  N   UNL     1     -41.728  56.794 -53.481  1.00  0.00    -0.242 N 
HETATM    8  H   UNL     1     -41.046  57.511 -53.724  1.00  0.00     0.192 HD
HETATM    9  O   UNL     1     -43.970  56.219 -53.402  1.00  0.00    -0.264 OA
BRANCH   7  10
HETATM   10  N   UNL     1     -41.330  55.630 -52.903  1.00  0.00    -0.183 NA
HETATM   11  C   UNL     1     -40.950  54.688 -53.708  1.00  0.00     0.153 C 
BRANCH  11  12
HETATM   12  C   UNL     1     -40.475  53.392 -53.177  1.00  0.00     0.018 A 
HETATM   13  C   UNL     1     -40.195  53.203 -51.816  1.00  0.00     0.077 A 
HETATM   14  C   UNL     1     -39.733  51.972 -51.357  1.00  0.00     0.039 A 
HETATM   15  C   UNL     1     -39.550  50.921 -52.256  1.00  0.00     0.026 A 
HETATM   16  C   UNL     1     -39.831  51.109 -53.609  1.00  0.00     0.035 A 
HETATM   17 CL   UNL     1     -39.602  49.812 -54.715  1.00  0.00    -0.084 Cl
HETATM   18  C   UNL     1     -40.292  52.339 -54.079  1.00  0.00     0.039 A 
BRANCH  13  19
HETATM   19  O   UNL     1     -40.348  54.184 -50.874  1.00  0.00    -0.360 OA
HETATM   20  H   UNL     1     -40.021  53.831 -50.018  1.00  0.00     0.217 HD
ENDBRANCH  13  19
ENDBRANCH  11  12
ENDBRANCH   7  10
ENDBRANCH   5   6
BRANCH   1  21
HETATM   21  C   UNL     1     -44.559  57.844 -56.522  1.00  0.00     0.296 C 
BRANCH  21  22
HETATM   22  N   UNL     1     -43.545  57.283 -57.510  1.00  0.00    -0.065 N 
HETATM   23  C   UNL     1     -43.025  55.944 -57.028  1.00  0.00     0.270 C 
HETATM   24  H   UNL     1     -42.726  57.922 -57.503  1.00  0.00     0.280 HD
BRANCH  22  25
HETATM   25  C   UNL     1     -44.060  57.223 -58.961  1.00  0.00     0.188 C 
HETATM   26  C   UNL     1     -44.365  58.622 -59.530  1.00  0.00     0.033 C 
HETATM   27  C   UNL     1     -43.118  59.484 -59.722  1.00  0.00     0.002 C 
HETATM   28  C   UNL     1     -42.071  58.778 -60.579  1.00  0.00     0.000 C 
HETATM   29  C   UNL     1     -41.764  57.367 -60.086  1.00  0.00     0.002 C 
HETATM   30  C   UNL     1     -43.040  56.546 -59.898  1.00  0.00     0.033 C 
ENDBRANCH  22  25
ENDBRANCH  21  22
ENDBRANCH   1  21
BRANCH   2  31
HETATM   31  C   UNL     1     -44.342  60.958 -56.465  1.00  0.00     0.229 A 
HETATM   32  N   UNL     1     -43.402  61.681 -57.077  1.00  0.00    -0.081 NA
HETATM   33  O   UNL     1     -44.116  62.435 -58.012  1.00  0.00    -0.103 OA
HETATM   34  N   UNL     1     -45.473  62.155 -57.950  1.00  0.00    -0.083 NA
HETATM   35  C   UNL     1     -45.615  61.245 -56.988  1.00  0.00     0.201 A 
BRANCH  35  36
HETATM   36  N   UNL     1     -46.790  60.707 -56.618  1.00  0.00    -0.379 N 
HETATM   37  H   UNL     1     -47.144  59.890 -57.107  1.00  0.00     0.158 HD
HETATM   38  H   UNL     1     -47.489  61.210 -56.076  1.00  0.00     0.158 HD
ENDBRANCH  35  36
ENDBRANCH   2  31
TORSDOF 9
ENDMDL
