MODEL 1
REMARK VINA RESULT:      -7.8      0.000      0.000
REMARK  7 active torsions:
REMARK  status: ('A' for Active; 'I' for Inactive)
REMARK    1  A    between atoms: C_2  and  N_3 
REMARK    2  A    between atoms: C_2  and  C_17 
REMARK       I    between atoms: N_3  and  C_4 
REMARK    3  A    between atoms: C_4  and  C_5 
REMARK    4  A    between atoms: C_6  and  N_7 
REMARK    5  A    between atoms: C_17  and  O_18 
REMARK    6  A    between atoms: C_17  and  C_19 
REMARK    7  A    between atoms: C_22  and  O_23 
ROOT
HETATM    1  N   UNL     1     -41.818  54.779 -53.853  1.00  0.00    -0.350 N 
HETATM    2  C   UNL     1     -40.678  54.080 -54.134  1.00  0.00     0.255 C 
HETATM    3  O   UNL     1     -39.939  54.461 -55.044  1.00  0.00    -0.268 OA
HETATM    4  H   UNL     1     -42.403  54.493 -53.070  1.00  0.00     0.163 HD
ENDROOT
BRANCH   1   5
HETATM    5  C   UNL     1     -42.176  56.020 -54.545  1.00  0.00     0.114 C 
HETATM    6  C   UNL     1     -42.510  57.115 -53.528  1.00  0.00     0.035 C 
BRANCH   5   7
HETATM    7  C   UNL     1     -43.281  55.817 -55.623  1.00  0.00     0.173 C 
BRANCH   7   8
HETATM    8  O   UNL     1     -43.592  54.420 -55.736  1.00  0.00    -0.389 OA
HETATM    9  H   UNL     1     -42.735  53.960 -55.770  1.00  0.00     0.210 HD
ENDBRANCH   7   8
BRANCH   7  10
HETATM   10  C   UNL     1     -42.945  56.377 -56.996  1.00  0.00    -0.028 A 
HETATM   11  C   UNL     1     -42.423  57.670 -57.121  1.00  0.00     0.012 A 
HETATM   12  C   UNL     1     -42.110  58.191 -58.380  1.00  0.00     0.037 A 
HETATM   13  C   UNL     1     -42.313  57.436 -59.537  1.00  0.00     0.068 A 
HETATM   14  C   UNL     1     -42.824  56.145 -59.424  1.00  0.00     0.037 A 
HETATM   15  C   UNL     1     -43.134  55.621 -58.164  1.00  0.00     0.012 A 
BRANCH  13  16
HETATM   16  O   UNL     1     -41.972  58.066 -60.703  1.00  0.00    -0.356 OA
HETATM   17  C   UNL     1     -42.002  59.487 -60.697  1.00  0.00     0.210 C 
ENDBRANCH  13  16
ENDBRANCH   7  10
ENDBRANCH   5   7
ENDBRANCH   1   5
BRANCH   2  18
HETATM   18  C   UNL     1     -40.318  52.823 -53.385  1.00  0.00     0.079 A 
HETATM   19  C   UNL     1     -40.267  52.505 -52.018  1.00  0.00     0.165 A 
HETATM   20  N   UNL     1     -39.893  51.250 -51.576  1.00  0.00    -0.241 NA
HETATM   21  C   UNL     1     -39.556  50.298 -52.464  1.00  0.00     0.119 A 
HETATM   22  C   UNL     1     -39.570  50.510 -53.817  1.00  0.00     0.020 A 
HETATM   23  C   UNL     1     -39.953  51.770 -54.267  1.00  0.00     0.022 A 
BRANCH  19  24
HETATM   24  N   UNL     1     -40.563  53.396 -50.929  1.00  0.00    -0.226 N 
HETATM   25  N   UNL     1     -41.758  53.998 -50.712  1.00  0.00    -0.179 NA
HETATM   26  C   UNL     1     -41.591  54.729 -49.608  1.00  0.00     0.141 A 
HETATM   27  C   UNL     1     -40.305  54.616 -49.077  1.00  0.00     0.040 A 
HETATM   28  C   UNL     1     -39.663  53.758 -49.934  1.00  0.00     0.122 A 
ENDBRANCH  19  24
ENDBRANCH   2  18
TORSDOF 7
ENDMDL
MODEL 2
REMARK VINA RESULT:      -7.7      3.113      8.842
REMARK  7 active torsions:
REMARK  status: ('A' for Active; 'I' for Inactive)
REMARK    1  A    between atoms: C_2  and  N_3 
REMARK    2  A    between atoms: C_2  and  C_17 
REMARK       I    between atoms: N_3  and  C_4 
REMARK    3  A    between atoms: C_4  and  C_5 
REMARK    4  A    between atoms: C_6  and  N_7 
REMARK    5  A    between atoms: C_17  and  O_18 
REMARK    6  A    between atoms: C_17  and  C_19 
REMARK    7  A    between atoms: C_22  and  O_23 
ROOT
HETATM    1  N   UNL     1     -42.352  56.230 -55.792  1.00  0.00    -0.350 N 
HETATM    2  C   UNL     1     -42.852  56.192 -57.063  1.00  0.00     0.255 C 
HETATM    3  O   UNL     1     -43.159  55.108 -57.564  1.00  0.00    -0.268 OA
HETATM    4  H   UNL     1     -42.146  57.129 -55.359  1.00  0.00     0.163 HD
ENDROOT
BRANCH   1   5
HETATM    5  C   UNL     1     -42.226  55.034 -54.955  1.00  0.00     0.114 C 
HETATM    6  C   UNL     1     -43.438  54.904 -54.030  1.00  0.00     0.035 C 
BRANCH   5   7
HETATM    7  C   UNL     1     -40.863  54.960 -54.205  1.00  0.00     0.173 C 
BRANCH   7   8
HETATM    8  O   UNL     1     -39.817  55.453 -55.056  1.00  0.00    -0.389 OA
HETATM    9  H   UNL     1     -39.109  54.787 -55.018  1.00  0.00     0.210 HD
ENDBRANCH   7   8
BRANCH   7  10
HETATM   10  C   UNL     1     -40.491  53.580 -53.689  1.00  0.00    -0.028 A 
HETATM   11  C   UNL     1     -40.290  53.371 -52.319  1.00  0.00     0.012 A 
HETATM   12  C   UNL     1     -39.950  52.103 -51.836  1.00  0.00     0.037 A 
HETATM   13  C   UNL     1     -39.800  51.022 -52.707  1.00  0.00     0.068 A 
HETATM   14  C   UNL     1     -40.007  51.216 -54.072  1.00  0.00     0.037 A 
HETATM   15  C   UNL     1     -40.351  52.483 -54.556  1.00  0.00     0.012 A 
BRANCH  13  16
HETATM   16  O   UNL     1     -39.460  49.841 -52.107  1.00  0.00    -0.356 OA
HETATM   17  C   UNL     1     -39.677  49.748 -50.704  1.00  0.00     0.210 C 
ENDBRANCH  13  16
ENDBRANCH   7  10
ENDBRANCH   5   7
ENDBRANCH   1   5
BRANCH   2  18
HETATM   18  C   UNL     1     -43.002  57.442 -57.890  1.00  0.00     0.079 A 
HETATM   19  C   UNL     1     -43.715  57.733 -59.064  1.00  0.00     0.165 A 
HETATM   20  N   UNL     1     -43.685  58.989 -59.643  1.00  0.00    -0.241 NA
HETATM   21  C   UNL     1     -42.950  59.967 -59.085  1.00  0.00     0.119 A 
HETATM   22  C   UNL     1     -42.216  59.782 -57.943  1.00  0.00     0.020 A 
HETATM   23  C   UNL     1     -42.249  58.522 -57.355  1.00  0.00     0.022 A 
BRANCH  19  24
HETATM   24  N   UNL     1     -44.528  56.813 -59.812  1.00  0.00    -0.226 N 
HETATM   25  N   UNL     1     -44.067  55.923 -60.725  1.00  0.00    -0.179 NA
HETATM   26  C   UNL     1     -45.148  55.282 -61.172  1.00  0.00     0.141 A 
HETATM   27  C   UNL     1     -46.326  55.723 -60.564  1.00  0.00     0.040 A 
HETATM   28  C   UNL     1     -45.909  56.700 -59.697  1.00  0.00     0.122 A 
ENDBRANCH  19  24
ENDBRANCH   2  18
TORSDOF 7
ENDMDL
MODEL 3
REMARK VINA RESULT:      -7.5      1.323      3.201
REMARK  7 active torsions:
REMARK  status: ('A' for Active; 'I' for Inactive)
REMARK    1  A    between atoms: C_2  and  N_3 
REMARK    2  A    between atoms: C_2  and  C_17 
REMARK       I    between atoms: N_3  and  C_4 
REMARK    3  A    between atoms: C_4  and  C_5 
REMARK    4  A    between atoms: C_6  and  N_7 
REMARK    5  A    between atoms: C_17  and  O_18 
REMARK    6  A    between atoms: C_17  and  C_19 
REMARK    7  A    between atoms: C_22  and  O_23 
ROOT
HETATM    1  N   UNL     1     -42.495  55.260 -53.451  1.00  0.00    -0.350 N 
HETATM    2  C   UNL     1     -41.576  55.701 -52.542  1.00  0.00     0.255 C 
HETATM    3  O   UNL     1     -41.032  56.795 -52.708  1.00  0.00    -0.268 OA
HETATM    4  H   UNL     1     -42.982  54.380 -53.288  1.00  0.00     0.163 HD
ENDROOT
BRANCH   1   5
HETATM    5  C   UNL     1     -42.926  56.066 -54.597  1.00  0.00     0.114 C 
HETATM    6  C   UNL     1     -44.370  56.532 -54.403  1.00  0.00     0.035 C 
BRANCH   5   7
HETATM    7  C   UNL     1     -42.681  55.358 -55.962  1.00  0.00     0.173 C 
BRANCH   7   8
HETATM    8  O   UNL     1     -41.409  54.693 -55.938  1.00  0.00    -0.389 OA
HETATM    9  H   UNL     1     -41.582  53.804 -55.579  1.00  0.00     0.210 HD
ENDBRANCH   7   8
BRANCH   7  10
HETATM   10  C   UNL     1     -42.756  56.269 -57.177  1.00  0.00    -0.028 A 
HETATM   11  C   UNL     1     -43.215  55.770 -58.403  1.00  0.00     0.012 A 
HETATM   12  C   UNL     1     -43.289  56.602 -59.525  1.00  0.00     0.037 A 
HETATM   13  C   UNL     1     -42.907  57.943 -59.447  1.00  0.00     0.068 A 
HETATM   14  C   UNL     1     -42.458  58.452 -58.230  1.00  0.00     0.037 A 
HETATM   15  C   UNL     1     -42.387  57.622 -57.106  1.00  0.00     0.012 A 
BRANCH  13  16
HETATM   16  O   UNL     1     -43.023  58.643 -60.617  1.00  0.00    -0.356 OA
HETATM   17  C   UNL     1     -42.003  59.593 -60.900  1.00  0.00     0.210 C 
ENDBRANCH  13  16
ENDBRANCH   7  10
ENDBRANCH   5   7
ENDBRANCH   1   5
BRANCH   2  18
HETATM   18  C   UNL     1     -41.175  54.864 -51.354  1.00  0.00     0.079 A 
HETATM   19  C   UNL     1     -40.646  53.570 -51.232  1.00  0.00     0.165 A 
HETATM   20  N   UNL     1     -40.361  53.014 -49.998  1.00  0.00    -0.241 NA
HETATM   21  C   UNL     1     -40.599  53.713 -48.875  1.00  0.00     0.119 A 
HETATM   22  C   UNL     1     -41.118  54.981 -48.889  1.00  0.00     0.020 A 
HETATM   23  C   UNL     1     -41.400  55.547 -50.128  1.00  0.00     0.022 A 
BRANCH  19  24
HETATM   24  N   UNL     1     -40.352  52.668 -52.312  1.00  0.00    -0.226 N 
HETATM   25  N   UNL     1     -40.798  52.798 -53.585  1.00  0.00    -0.179 NA
HETATM   26  C   UNL     1     -40.294  51.754 -54.246  1.00  0.00     0.141 A 
HETATM   27  C   UNL     1     -39.507  50.932 -53.435  1.00  0.00     0.040 A 
HETATM   28  C   UNL     1     -39.554  51.534 -52.204  1.00  0.00     0.122 A 
ENDBRANCH  19  24
ENDBRANCH   2  18
TORSDOF 7
ENDMDL
MODEL 4
REMARK VINA RESULT:      -7.3      2.821      4.662
REMARK  7 active torsions:
REMARK  status: ('A' for Active; 'I' for Inactive)
REMARK    1  A    between atoms: C_2  and  N_3 
REMARK    2  A    between atoms: C_2  and  C_17 
REMARK       I    between atoms: N_3  and  C_4 
REMARK    3  A    between atoms: C_4  and  C_5 
REMARK    4  A    between atoms: C_6  and  N_7 
REMARK    5  A    between atoms: C_17  and  O_18 
REMARK    6  A    between atoms: C_17  and  C_19 
REMARK    7  A    between atoms: C_22  and  O_23 
ROOT
HETATM    1  N   UNL     1     -41.917  55.118 -53.593  1.00  0.00    -0.350 N 
HETATM    2  C   UNL     1     -40.844  54.385 -54.015  1.00  0.00     0.255 C 
HETATM    3  O   UNL     1     -40.225  54.736 -55.021  1.00  0.00    -0.268 OA
HETATM    4  H   UNL     1     -42.398  54.858 -52.734  1.00  0.00     0.163 HD
ENDROOT
BRANCH   1   5
HETATM    5  C   UNL     1     -42.332  56.362 -54.247  1.00  0.00     0.114 C 
HETATM    6  C   UNL     1     -41.611  57.557 -53.620  1.00  0.00     0.035 C 
BRANCH   5   7
HETATM    7  C   UNL     1     -43.879  56.530 -54.303  1.00  0.00     0.173 C 
BRANCH   7   8
HETATM    8  O   UNL     1     -44.272  56.939 -55.622  1.00  0.00    -0.389 OA
HETATM    9  H   UNL     1     -44.856  57.708 -55.498  1.00  0.00     0.210 HD
ENDBRANCH   7   8
BRANCH   7  10
HETATM   10  C   UNL     1     -44.455  57.493 -53.278  1.00  0.00    -0.028 A 
HETATM   11  C   UNL     1     -44.521  57.129 -51.928  1.00  0.00     0.012 A 
HETATM   12  C   UNL     1     -45.048  58.011 -50.979  1.00  0.00     0.037 A 
HETATM   13  C   UNL     1     -45.520  59.269 -51.356  1.00  0.00     0.068 A 
HETATM   14  C   UNL     1     -45.451  59.646 -52.696  1.00  0.00     0.037 A 
HETATM   15  C   UNL     1     -44.921  58.767 -53.646  1.00  0.00     0.012 A 
BRANCH  13  16
HETATM   16  O   UNL     1     -46.015  60.030 -50.332  1.00  0.00    -0.356 OA
HETATM   17  C   UNL     1     -45.077  60.812 -49.603  1.00  0.00     0.210 C 
ENDBRANCH  13  16
ENDBRANCH   7  10
ENDBRANCH   5   7
ENDBRANCH   1   5
BRANCH   2  18
HETATM   18  C   UNL     1     -40.419  53.126 -53.303  1.00  0.00     0.079 A 
HETATM   19  C   UNL     1     -40.357  52.769 -51.947  1.00  0.00     0.165 A 
HETATM   20  N   UNL     1     -39.917  51.523 -51.541  1.00  0.00    -0.241 NA
HETATM   21  C   UNL     1     -39.523  50.619 -52.456  1.00  0.00     0.119 A 
HETATM   22  C   UNL     1     -39.542  50.873 -53.802  1.00  0.00     0.020 A 
HETATM   23  C   UNL     1     -39.991  52.124 -54.215  1.00  0.00     0.022 A 
BRANCH  19  24
HETATM   24  N   UNL     1     -40.708  53.606 -50.832  1.00  0.00    -0.226 N 
HETATM   25  N   UNL     1     -41.921  54.179 -50.633  1.00  0.00    -0.179 NA
HETATM   26  C   UNL     1     -41.806  54.864 -49.494  1.00  0.00     0.141 A 
HETATM   27  C   UNL     1     -40.537  54.750 -48.922  1.00  0.00     0.040 A 
HETATM   28  C   UNL     1     -39.851  53.941 -49.790  1.00  0.00     0.122 A 
ENDBRANCH  19  24
ENDBRANCH   2  18
TORSDOF 7
ENDMDL
MODEL 5
REMARK VINA RESULT:      -7.3      2.898      5.062
REMARK  7 active torsions:
REMARK  status: ('A' for Active; 'I' for Inactive)
REMARK    1  A    between atoms: C_2  and  N_3 
REMARK    2  A    between atoms: C_2  and  C_17 
REMARK       I    between atoms: N_3  and  C_4 
REMARK    3  A    between atoms: C_4  and  C_5 
REMARK    4  A    between atoms: C_6  and  N_7 
REMARK    5  A    between atoms: C_17  and  O_18 
REMARK    6  A    between atoms: C_17  and  C_19 
REMARK    7  A    between atoms: C_22  and  O_23 
ROOT
HETATM    1  N   UNL     1     -42.571  54.577 -53.321  1.00  0.00    -0.350 N 
HETATM    2  C   UNL     1     -42.835  54.206 -52.032  1.00  0.00     0.255 C 
HETATM    3  O   UNL     1     -44.003  54.065 -51.667  1.00  0.00    -0.268 OA
HETATM    4  H   UNL     1     -41.605  54.645 -53.637  1.00  0.00     0.163 HD
ENDROOT
BRANCH   1   5
HETATM    5  C   UNL     1     -43.623  54.752 -54.325  1.00  0.00     0.114 C 
HETATM    6  C   UNL     1     -43.230  54.053 -55.629  1.00  0.00     0.035 C 
BRANCH   5   7
HETATM    7  C   UNL     1     -44.035  56.240 -54.519  1.00  0.00     0.173 C 
BRANCH   7   8
HETATM    8  O   UNL     1     -44.047  56.559 -55.920  1.00  0.00    -0.389 OA
HETATM    9  H   UNL     1     -44.688  57.284 -56.021  1.00  0.00     0.210 HD
ENDBRANCH   7   8
BRANCH   7  10
HETATM   10  C   UNL     1     -43.171  57.246 -53.776  1.00  0.00    -0.028 A 
HETATM   11  C   UNL     1     -43.571  57.728 -52.523  1.00  0.00     0.012 A 
HETATM   12  C   UNL     1     -42.780  58.651 -51.832  1.00  0.00     0.037 A 
HETATM   13  C   UNL     1     -41.580  59.114 -52.376  1.00  0.00     0.068 A 
HETATM   14  C   UNL     1     -41.168  58.635 -53.618  1.00  0.00     0.037 A 
HETATM   15  C   UNL     1     -41.956  57.708 -54.309  1.00  0.00     0.012 A 
BRANCH  13  16
HETATM   16  O   UNL     1     -40.907  60.019 -51.601  1.00  0.00    -0.356 OA
HETATM   17  C   UNL     1     -40.089  59.492 -50.563  1.00  0.00     0.210 C 
ENDBRANCH  13  16
ENDBRANCH   7  10
ENDBRANCH   5   7
ENDBRANCH   1   5
BRANCH   2  18
HETATM   18  C   UNL     1     -41.730  54.002 -51.028  1.00  0.00     0.079 A 
HETATM   19  C   UNL     1     -40.591  53.182 -51.012  1.00  0.00     0.165 A 
HETATM   20  N   UNL     1     -39.713  53.175 -49.943  1.00  0.00    -0.241 NA
HETATM   21  C   UNL     1     -39.946  53.962 -48.878  1.00  0.00     0.119 A 
HETATM   22  C   UNL     1     -41.032  54.793 -48.796  1.00  0.00     0.020 A 
HETATM   23  C   UNL     1     -41.914  54.808 -49.872  1.00  0.00     0.022 A 
BRANCH  19  24
HETATM   24  N   UNL     1     -40.194  52.261 -52.042  1.00  0.00    -0.226 N 
HETATM   25  N   UNL     1     -40.277  52.493 -53.375  1.00  0.00    -0.179 NA
HETATM   26  C   UNL     1     -39.811  51.386 -53.957  1.00  0.00     0.141 A 
HETATM   27  C   UNL     1     -39.407  50.420 -53.032  1.00  0.00     0.040 A 
HETATM   28  C   UNL     1     -39.657  50.999 -51.814  1.00  0.00     0.122 A 
ENDBRANCH  19  24
ENDBRANCH   2  18
TORSDOF 7
ENDMDL
MODEL 6
REMARK VINA RESULT:      -7.1      2.427      4.438
REMARK  7 active torsions:
REMARK  status: ('A' for Active; 'I' for Inactive)
REMARK    1  A    between atoms: C_2  and  N_3 
REMARK    2  A    between atoms: C_2  and  C_17 
REMARK       I    between atoms: N_3  and  C_4 
REMARK    3  A    between atoms: C_4  and  C_5 
REMARK    4  A    between atoms: C_6  and  N_7 
REMARK    5  A    between atoms: C_17  and  O_18 
REMARK    6  A    between atoms: C_17  and  C_19 
REMARK    7  A    between atoms: C_22  and  O_23 
ROOT
HETATM    1  N   UNL     1     -42.418  55.111 -54.545  1.00  0.00    -0.350 N 
HETATM    2  C   UNL     1     -42.543  54.136 -53.596  1.00  0.00     0.255 C 
HETATM    3  O   UNL     1     -43.588  54.048 -52.947  1.00  0.00    -0.268 OA
HETATM    4  H   UNL     1     -41.575  55.153 -55.115  1.00  0.00     0.163 HD
ENDROOT
BRANCH   1   5
HETATM    5  C   UNL     1     -43.508  56.029 -54.885  1.00  0.00     0.114 C 
HETATM    6  C   UNL     1     -43.285  56.622 -56.278  1.00  0.00     0.035 C 
BRANCH   5   7
HETATM    7  C   UNL     1     -43.762  57.103 -53.787  1.00  0.00     0.173 C 
BRANCH   7   8
HETATM    8  O   UNL     1     -44.569  58.161 -54.325  1.00  0.00    -0.389 OA
HETATM    9  H   UNL     1     -44.656  57.970 -55.276  1.00  0.00     0.210 HD
ENDBRANCH   7   8
BRANCH   7  10
HETATM   10  C   UNL     1     -42.506  57.688 -53.163  1.00  0.00    -0.028 A 
HETATM   11  C   UNL     1     -41.718  58.595 -53.883  1.00  0.00     0.012 A 
HETATM   12  C   UNL     1     -40.562  59.140 -53.314  1.00  0.00     0.037 A 
HETATM   13  C   UNL     1     -40.169  58.791 -52.021  1.00  0.00     0.068 A 
HETATM   14  C   UNL     1     -40.950  57.897 -51.291  1.00  0.00     0.037 A 
HETATM   15  C   UNL     1     -42.109  57.354 -51.857  1.00  0.00     0.012 A 
BRANCH  13  16
HETATM   16  O   UNL     1     -39.017  59.390 -51.588  1.00  0.00    -0.356 OA
HETATM   17  C   UNL     1     -38.993  59.831 -50.236  1.00  0.00     0.210 C 
ENDBRANCH  13  16
ENDBRANCH   7  10
ENDBRANCH   5   7
ENDBRANCH   1   5
BRANCH   2  18
HETATM   18  C   UNL     1     -41.416  53.184 -53.288  1.00  0.00     0.079 A 
HETATM   19  C   UNL     1     -40.636  52.963 -52.142  1.00  0.00     0.165 A 
HETATM   20  N   UNL     1     -39.635  52.010 -52.114  1.00  0.00    -0.241 NA
HETATM   21  C   UNL     1     -39.381  51.271 -53.209  1.00  0.00     0.119 A 
HETATM   22  C   UNL     1     -40.082  51.414 -54.377  1.00  0.00     0.020 A 
HETATM   23  C   UNL     1     -41.095  52.368 -54.407  1.00  0.00     0.022 A 
BRANCH  19  24
HETATM   24  N   UNL     1     -40.744  53.670 -50.894  1.00  0.00    -0.226 N 
HETATM   25  N   UNL     1     -41.902  54.084 -50.325  1.00  0.00    -0.179 NA
HETATM   26  C   UNL     1     -41.543  54.691 -49.192  1.00  0.00     0.141 A 
HETATM   27  C   UNL     1     -40.162  54.679 -48.989  1.00  0.00     0.040 A 
HETATM   28  C   UNL     1     -39.668  54.020 -50.086  1.00  0.00     0.122 A 
ENDBRANCH  19  24
ENDBRANCH   2  18
TORSDOF 7
ENDMDL
MODEL 7
REMARK VINA RESULT:      -7.1      3.339      7.370
REMARK  7 active torsions:
REMARK  status: ('A' for Active; 'I' for Inactive)
REMARK    1  A    between atoms: C_2  and  N_3 
REMARK    2  A    between atoms: C_2  and  C_17 
REMARK       I    between atoms: N_3  and  C_4 
REMARK    3  A    between atoms: C_4  and  C_5 
REMARK    4  A    between atoms: C_6  and  N_7 
REMARK    5  A    between atoms: C_17  and  O_18 
REMARK    6  A    between atoms: C_17  and  C_19 
REMARK    7  A    between atoms: C_22  and  O_23 
ROOT
HETATM    1  N   UNL     1     -43.040  56.913 -55.233  1.00  0.00    -0.350 N 
HETATM    2  C   UNL     1     -42.165  57.755 -54.606  1.00  0.00     0.255 C 
HETATM    3  O   UNL     1     -41.060  57.335 -54.259  1.00  0.00    -0.268 OA
HETATM    4  H   UNL     1     -43.934  57.272 -55.565  1.00  0.00     0.163 HD
ENDROOT
BRANCH   1   5
HETATM    5  C   UNL     1     -42.697  55.532 -55.583  1.00  0.00     0.114 C 
HETATM    6  C   UNL     1     -42.987  55.273 -57.063  1.00  0.00     0.035 C 
BRANCH   5   7
HETATM    7  C   UNL     1     -43.349  54.486 -54.631  1.00  0.00     0.173 C 
BRANCH   7   8
HETATM    8  O   UNL     1     -44.615  54.979 -54.167  1.00  0.00    -0.389 OA
HETATM    9  H   UNL     1     -44.418  55.799 -53.681  1.00  0.00     0.210 HD
ENDBRANCH   7   8
BRANCH   7  10
HETATM   10  C   UNL     1     -42.493  54.083 -53.442  1.00  0.00    -0.028 A 
HETATM   11  C   UNL     1     -42.886  54.428 -52.142  1.00  0.00     0.012 A 
HETATM   12  C   UNL     1     -42.105  54.058 -51.042  1.00  0.00     0.037 A 
HETATM   13  C   UNL     1     -40.919  53.341 -51.216  1.00  0.00     0.068 A 
HETATM   14  C   UNL     1     -40.524  52.984 -52.503  1.00  0.00     0.037 A 
HETATM   15  C   UNL     1     -41.305  53.350 -53.604  1.00  0.00     0.012 A 
BRANCH  13  16
HETATM   16  O   UNL     1     -40.249  53.049 -50.059  1.00  0.00    -0.356 OA
HETATM   17  C   UNL     1     -39.858  54.150 -49.248  1.00  0.00     0.210 C 
ENDBRANCH  13  16
ENDBRANCH   7  10
ENDBRANCH   5   7
ENDBRANCH   1   5
BRANCH   2  18
HETATM   18  C   UNL     1     -42.533  59.181 -54.287  1.00  0.00     0.079 A 
HETATM   19  C   UNL     1     -42.200  60.041 -53.229  1.00  0.00     0.165 A 
HETATM   20  N   UNL     1     -42.682  61.335 -53.162  1.00  0.00    -0.241 NA
HETATM   21  C   UNL     1     -43.501  61.796 -54.124  1.00  0.00     0.119 A 
HETATM   22  C   UNL     1     -43.889  61.035 -55.194  1.00  0.00     0.020 A 
HETATM   23  C   UNL     1     -43.400  59.734 -55.268  1.00  0.00     0.022 A 
BRANCH  19  24
HETATM   24  N   UNL     1     -41.365  59.717 -52.104  1.00  0.00    -0.226 N 
HETATM   25  N   UNL     1     -40.056  59.371 -52.173  1.00  0.00    -0.179 NA
HETATM   26  C   UNL     1     -39.679  59.156 -50.912  1.00  0.00     0.141 A 
HETATM   27  C   UNL     1     -40.714  59.364 -49.997  1.00  0.00     0.040 A 
HETATM   28  C   UNL     1     -41.782  59.724 -50.778  1.00  0.00     0.122 A 
ENDBRANCH  19  24
ENDBRANCH   2  18
TORSDOF 7
ENDMDL
MODEL 8
REMARK VINA RESULT:      -6.9      3.942      6.652
REMARK  7 active torsions:
REMARK  status: ('A' for Active; 'I' for Inactive)
REMARK    1  A    between atoms: C_2  and  N_3 
REMARK    2  A    between atoms: C_2  and  C_17 
REMARK       I    between atoms: N_3  and  C_4 
REMARK    3  A    between atoms: C_4  and  C_5 
REMARK    4  A    between atoms: C_6  and  N_7 
REMARK    5  A    between atoms: C_17  and  O_18 
REMARK    6  A    between atoms: C_17  and  C_19 
REMARK    7  A    between atoms: C_22  and  O_23 
ROOT
HETATM    1  N   UNL     1     -41.709  57.223 -52.522  1.00  0.00    -0.350 N 
HETATM    2  C   UNL     1     -42.301  56.241 -51.778  1.00  0.00     0.255 C 
HETATM    3  O   UNL     1     -43.531  56.185 -51.713  1.00  0.00    -0.268 OA
HETATM    4  H   UNL     1     -40.695  57.240 -52.617  1.00  0.00     0.163 HD
ENDROOT
BRANCH   1   5
HETATM    5  C   UNL     1     -42.477  58.186 -53.316  1.00  0.00     0.114 C 
HETATM    6  C   UNL     1     -42.091  58.081 -54.793  1.00  0.00     0.035 C 
BRANCH   5   7
HETATM    7  C   UNL     1     -42.395  59.636 -52.755  1.00  0.00     0.173 C 
BRANCH   7   8
HETATM    8  O   UNL     1     -41.072  59.885 -52.255  1.00  0.00    -0.389 OA
HETATM    9  H   UNL     1     -40.540  59.114 -52.519  1.00  0.00     0.210 HD
ENDBRANCH   7   8
BRANCH   7  10
HETATM   10  C   UNL     1     -43.416  59.965 -51.679  1.00  0.00    -0.028 A 
HETATM   11  C   UNL     1     -43.087  60.847 -50.642  1.00  0.00     0.012 A 
HETATM   12  C   UNL     1     -44.023  61.157 -49.649  1.00  0.00     0.037 A 
HETATM   13  C   UNL     1     -45.300  60.592 -49.669  1.00  0.00     0.068 A 
HETATM   14  C   UNL     1     -45.641  59.721 -50.702  1.00  0.00     0.037 A 
HETATM   15  C   UNL     1     -44.708  59.413 -51.698  1.00  0.00     0.012 A 
BRANCH  13  16
HETATM   16  O   UNL     1     -46.114  60.973 -48.638  1.00  0.00    -0.356 OA
HETATM   17  C   UNL     1     -46.363  62.366 -48.498  1.00  0.00     0.210 C 
ENDBRANCH  13  16
ENDBRANCH   7  10
ENDBRANCH   5   7
ENDBRANCH   1   5
BRANCH   2  18
HETATM   18  C   UNL     1     -41.487  55.244 -50.996  1.00  0.00     0.079 A 
HETATM   19  C   UNL     1     -40.702  54.142 -51.375  1.00  0.00     0.165 A 
HETATM   20  N   UNL     1     -40.042  53.363 -50.443  1.00  0.00    -0.241 NA
HETATM   21  C   UNL     1     -40.150  53.648 -49.133  1.00  0.00     0.119 A 
HETATM   22  C   UNL     1     -40.894  54.697 -48.662  1.00  0.00     0.020 A 
HETATM   23  C   UNL     1     -41.555  55.487 -49.598  1.00  0.00     0.022 A 
BRANCH  19  24
HETATM   24  N   UNL     1     -40.493  53.672 -52.717  1.00  0.00    -0.226 N 
HETATM   25  N   UNL     1     -40.443  54.455 -53.823  1.00  0.00    -0.179 NA
HETATM   26  C   UNL     1     -40.236  53.617 -54.841  1.00  0.00     0.141 A 
HETATM   27  C   UNL     1     -40.135  52.286 -54.431  1.00  0.00     0.040 A 
HETATM   28  C   UNL     1     -40.300  52.342 -53.071  1.00  0.00     0.122 A 
ENDBRANCH  19  24
ENDBRANCH   2  18
TORSDOF 7
ENDMDL
MODEL 9
REMARK VINA RESULT:      -6.9     14.340     16.745
REMARK  7 active torsions:
REMARK  status: ('A' for Active; 'I' for Inactive)
REMARK    1  A    between atoms: C_2  and  N_3 
REMARK    2  A    between atoms: C_2  and  C_17 
REMARK       I    between atoms: N_3  and  C_4 
REMARK    3  A    between atoms: C_4  and  C_5 
REMARK    4  A    between atoms: C_6  and  N_7 
REMARK    5  A    between atoms: C_17  and  O_18 
REMARK    6  A    between atoms: C_17  and  C_19 
REMARK    7  A    between atoms: C_22  and  O_23 
ROOT
HETATM    1  N   UNL     1     -34.195  40.246 -54.363  1.00  0.00    -0.350 N 
HETATM    2  C   UNL     1     -32.844  40.157 -54.544  1.00  0.00     0.255 C 
HETATM    3  O   UNL     1     -32.090  40.827 -53.835  1.00  0.00    -0.268 OA
HETATM    4  H   UNL     1     -34.817  39.656 -54.914  1.00  0.00     0.163 HD
ENDROOT
BRANCH   1   5
HETATM    5  C   UNL     1     -34.801  41.058 -53.304  1.00  0.00     0.114 C 
HETATM    6  C   UNL     1     -35.515  40.159 -52.291  1.00  0.00     0.035 C 
BRANCH   5   7
HETATM    7  C   UNL     1     -35.697  42.205 -53.856  1.00  0.00     0.173 C 
BRANCH   7   8
HETATM    8  O   UNL     1     -36.776  42.455 -52.942  1.00  0.00    -0.389 OA
HETATM    9  H   UNL     1     -37.585  42.458 -53.483  1.00  0.00     0.210 HD
ENDBRANCH   7   8
BRANCH   7  10
HETATM   10  C   UNL     1     -36.254  41.967 -55.250  1.00  0.00    -0.028 A 
HETATM   11  C   UNL     1     -35.494  42.300 -56.378  1.00  0.00     0.012 A 
HETATM   12  C   UNL     1     -35.999  42.082 -57.664  1.00  0.00     0.037 A 
HETATM   13  C   UNL     1     -37.269  41.533 -57.850  1.00  0.00     0.068 A 
HETATM   14  C   UNL     1     -38.030  41.189 -56.734  1.00  0.00     0.037 A 
HETATM   15  C   UNL     1     -37.525  41.403 -55.447  1.00  0.00     0.012 A 
BRANCH  13  16
HETATM   16  O   UNL     1     -37.644  41.379 -59.157  1.00  0.00    -0.356 OA
HETATM   17  C   UNL     1     -37.359  42.457 -60.038  1.00  0.00     0.210 C 
ENDBRANCH  13  16
ENDBRANCH   7  10
ENDBRANCH   5   7
ENDBRANCH   1   5
BRANCH   2  18
HETATM   18  C   UNL     1     -32.247  39.289 -55.622  1.00  0.00     0.079 A 
HETATM   19  C   UNL     1     -32.812  38.484 -56.624  1.00  0.00     0.165 A 
HETATM   20  N   UNL     1     -32.030  37.765 -57.508  1.00  0.00    -0.241 NA
HETATM   21  C   UNL     1     -30.690  37.819 -57.415  1.00  0.00     0.119 A 
HETATM   22  C   UNL     1     -30.043  38.571 -56.470  1.00  0.00     0.020 A 
HETATM   23  C   UNL     1     -30.827  39.301 -55.582  1.00  0.00     0.022 A 
BRANCH  19  24
HETATM   24  N   UNL     1     -34.216  38.282 -56.858  1.00  0.00    -0.226 N 
HETATM   25  N   UNL     1     -35.118  37.884 -55.926  1.00  0.00    -0.179 NA
HETATM   26  C   UNL     1     -36.286  37.824 -56.567  1.00  0.00     0.141 A 
HETATM   27  C   UNL     1     -36.183  38.186 -57.912  1.00  0.00     0.040 A 
HETATM   28  C   UNL     1     -34.853  38.478 -58.078  1.00  0.00     0.122 A 
ENDBRANCH  19  24
ENDBRANCH   2  18
TORSDOF 7
ENDMDL
MODEL 10
REMARK VINA RESULT:      -6.9      3.163      7.419
REMARK  7 active torsions:
REMARK  status: ('A' for Active; 'I' for Inactive)
REMARK    1  A    between atoms: C_2  and  N_3 
REMARK    2  A    between atoms: C_2  and  C_17 
REMARK       I    between atoms: N_3  and  C_4 
REMARK    3  A    between atoms: C_4  and  C_5 
REMARK    4  A    between atoms: C_6  and  N_7 
REMARK    5  A    between atoms: C_17  and  O_18 
REMARK    6  A    between atoms: C_17  and  C_19 
REMARK    7  A    between atoms: C_22  and  O_23 
ROOT
HETATM    1  N   UNL     1     -42.671  56.971 -54.501  1.00  0.00    -0.350 N 
HETATM    2  C   UNL     1     -41.628  57.392 -53.725  1.00  0.00     0.255 C 
HETATM    3  O   UNL     1     -40.532  56.838 -53.824  1.00  0.00    -0.268 OA
HETATM    4  H   UNL     1     -43.563  57.461 -54.455  1.00  0.00     0.163 HD
ENDROOT
BRANCH   1   5
HETATM    5  C   UNL     1     -42.530  55.921 -55.514  1.00  0.00     0.114 C 
HETATM    6  C   UNL     1     -43.199  56.354 -56.821  1.00  0.00     0.035 C 
BRANCH   5   7
HETATM    7  C   UNL     1     -42.999  54.525 -55.010  1.00  0.00     0.173 C 
BRANCH   7   8
HETATM    8  O   UNL     1     -44.240  54.661 -54.301  1.00  0.00    -0.389 OA
HETATM    9  H   UNL     1     -44.008  55.023 -53.427  1.00  0.00     0.210 HD
ENDBRANCH   7   8
BRANCH   7  10
HETATM   10  C   UNL     1     -41.994  53.788 -54.139  1.00  0.00    -0.028 A 
HETATM   11  C   UNL     1     -42.088  53.856 -52.743  1.00  0.00     0.012 A 
HETATM   12  C   UNL     1     -41.169  53.178 -51.936  1.00  0.00     0.037 A 
HETATM   13  C   UNL     1     -40.139  52.425 -52.502  1.00  0.00     0.068 A 
HETATM   14  C   UNL     1     -40.041  52.343 -53.890  1.00  0.00     0.037 A 
HETATM   15  C   UNL     1     -40.962  53.017 -54.699  1.00  0.00     0.012 A 
BRANCH  13  16
HETATM   16  O   UNL     1     -39.306  51.819 -51.601  1.00  0.00    -0.356 OA
HETATM   17  C   UNL     1     -39.532  50.438 -51.347  1.00  0.00     0.210 C 
ENDBRANCH  13  16
ENDBRANCH   7  10
ENDBRANCH   5   7
ENDBRANCH   1   5
BRANCH   2  18
HETATM   18  C   UNL     1     -41.794  58.497 -52.713  1.00  0.00     0.079 A 
HETATM   19  C   UNL     1     -42.542  59.685 -52.707  1.00  0.00     0.165 A 
HETATM   20  N   UNL     1     -42.520  60.554 -51.632  1.00  0.00    -0.241 NA
HETATM   21  C   UNL     1     -41.760  60.275 -50.559  1.00  0.00     0.119 A 
HETATM   22  C   UNL     1     -40.991  59.145 -50.470  1.00  0.00     0.020 A 
HETATM   23  C   UNL     1     -41.016  58.264 -51.547  1.00  0.00     0.022 A 
BRANCH  19  24
HETATM   24  N   UNL     1     -43.386  60.160 -53.769  1.00  0.00    -0.226 N 
HETATM   25  N   UNL     1     -44.407  59.466 -54.330  1.00  0.00    -0.179 NA
HETATM   26  C   UNL     1     -44.911  60.272 -55.266  1.00  0.00     0.141 A 
HETATM   27  C   UNL     1     -44.250  61.501 -55.333  1.00  0.00     0.040 A 
HETATM   28  C   UNL     1     -43.280  61.411 -54.367  1.00  0.00     0.122 A 
ENDBRANCH  19  24
ENDBRANCH   2  18
TORSDOF 7
ENDMDL
