MODEL 1
REMARK VINA RESULT:      -8.7      0.000      0.000
REMARK  5 active torsions:
REMARK  status: ('A' for Active; 'I' for Inactive)
REMARK    1  A    between atoms: C_7  and  C_8 
REMARK    2  A    between atoms: N_9  and  C_10 
REMARK    3  A    between atoms: C_10  and  C_11 
REMARK       I    between atoms: C_11  and  N_12 
REMARK    4  A    between atoms: N_12  and  C_13 
REMARK    5  A    between atoms: C_13  and  C_14 
ROOT
HETATM    1  C   UNL     1     -41.779  57.172 -53.102  1.00  0.00     0.158 A 
HETATM    2  N   UNL     1     -43.221  57.321 -52.990  1.00  0.00    -0.326 N 
HETATM    3  C   UNL     1     -43.577  58.344 -52.136  1.00  0.00     0.255 A 
HETATM    4  O   UNL     1     -44.690  58.770 -51.896  1.00  0.00    -0.267 OA
HETATM    5  C   UNL     1     -42.332  58.855 -51.541  1.00  0.00     0.040 A 
HETATM    6  C   UNL     1     -41.262  58.138 -52.080  1.00  0.00    -0.015 A 
HETATM    7  C   UNL     1     -42.164  59.863 -50.610  1.00  0.00     0.017 A 
HETATM    8  C   UNL     1     -40.857  60.162 -50.217  1.00  0.00     0.001 A 
HETATM    9  C   UNL     1     -39.767  59.455 -50.757  1.00  0.00     0.001 A 
HETATM   10  C   UNL     1     -39.963  58.440 -51.699  1.00  0.00     0.011 A 
ENDROOT
BRANCH   1  11
HETATM   11  C   UNL     1     -41.273  55.804 -52.775  1.00  0.00     0.004 A 
HETATM   12  C   UNL     1     -40.892  54.848 -53.716  1.00  0.00     0.017 A 
HETATM   13  C   UNL     1     -40.855  54.928 -55.207  1.00  0.00     0.069 C 
HETATM   14  N   UNL     1     -40.537  53.700 -53.040  1.00  0.00    -0.354 N 
HETATM   15  C   UNL     1     -40.099  52.478 -53.683  1.00  0.00     0.156 C 
HETATM   16  C   UNL     1     -40.683  53.876 -51.680  1.00  0.00     0.045 A 
HETATM   17  C   UNL     1     -41.114  55.191 -51.481  1.00  0.00     0.001 A 
HETATM   18  C   UNL     1     -40.482  52.989 -50.607  1.00  0.00     0.030 A 
HETATM   19  C   UNL     1     -41.329  55.628 -50.153  1.00  0.00     0.014 A 
HETATM   20  C   UNL     1     -41.130  54.752 -49.082  1.00  0.00     0.001 A 
HETATM   21  C   UNL     1     -40.716  53.446 -49.309  1.00  0.00     0.002 A 
ENDBRANCH   1  11
BRANCH   2  22
HETATM   22  C   UNL     1     -44.157  56.523 -53.774  1.00  0.00     0.229 C 
BRANCH  22  23
HETATM   23  C   UNL     1     -44.650  57.248 -55.026  1.00  0.00     0.235 C 
HETATM   24  N   UNL     1     -43.985  56.909 -56.182  1.00  0.00    -0.357 N 
HETATM   25  H   UNL     1     -43.121  56.379 -56.103  1.00  0.00     0.162 HD
HETATM   26  O   UNL     1     -45.508  58.126 -54.983  1.00  0.00    -0.272 OA
BRANCH  24  27
HETATM   27  C   UNL     1     -44.306  57.487 -57.474  1.00  0.00     0.154 C 
BRANCH  27  28
HETATM   28  C   UNL     1     -43.533  56.875 -58.651  1.00  0.00     0.139 C 
HETATM   29  O   UNL     1     -44.225  57.168 -59.884  1.00  0.00    -0.384 OA
HETATM   30  C   UNL     1     -44.384  55.942 -60.609  1.00  0.00     0.168 C 
HETATM   31  C   UNL     1     -44.337  54.836 -59.581  1.00  0.00     0.029 C 
HETATM   32  C   UNL     1     -43.328  55.367 -58.594  1.00  0.00     0.035 C 
ENDBRANCH  27  28
ENDBRANCH  24  27
ENDBRANCH  22  23
ENDBRANCH   2  22
TORSDOF 5
ENDMDL
MODEL 2
REMARK VINA RESULT:      -8.5      1.640      1.991
REMARK  5 active torsions:
REMARK  status: ('A' for Active; 'I' for Inactive)
REMARK    1  A    between atoms: C_7  and  C_8 
REMARK    2  A    between atoms: N_9  and  C_10 
REMARK    3  A    between atoms: C_10  and  C_11 
REMARK       I    between atoms: C_11  and  N_12 
REMARK    4  A    between atoms: N_12  and  C_13 
REMARK    5  A    between atoms: C_13  and  C_14 
ROOT
HETATM    1  C   UNL     1     -41.620  56.460 -53.229  1.00  0.00     0.158 A 
HETATM    2  N   UNL     1     -43.067  56.457 -53.381  1.00  0.00    -0.326 N 
HETATM    3  C   UNL     1     -43.661  57.534 -52.758  1.00  0.00     0.255 A 
HETATM    4  O   UNL     1     -44.832  57.857 -52.771  1.00  0.00    -0.267 OA
HETATM    5  C   UNL     1     -42.594  58.255 -52.046  1.00  0.00     0.040 A 
HETATM    6  C   UNL     1     -41.385  57.602 -52.289  1.00  0.00    -0.015 A 
HETATM    7  C   UNL     1     -42.687  59.388 -51.258  1.00  0.00     0.017 A 
HETATM    8  C   UNL     1     -41.505  59.882 -50.702  1.00  0.00     0.001 A 
HETATM    9  C   UNL     1     -40.276  59.240 -50.944  1.00  0.00     0.001 A 
HETATM   10  C   UNL     1     -40.208  58.096 -51.746  1.00  0.00     0.011 A 
ENDROOT
BRANCH   1  11
HETATM   11  C   UNL     1     -41.061  55.211 -52.626  1.00  0.00     0.004 A 
HETATM   12  C   UNL     1     -40.529  54.144 -53.349  1.00  0.00     0.017 A 
HETATM   13  C   UNL     1     -40.352  53.975 -54.822  1.00  0.00     0.069 C 
HETATM   14  N   UNL     1     -40.167  53.160 -52.454  1.00  0.00    -0.354 N 
HETATM   15  C   UNL     1     -39.592  51.886 -52.833  1.00  0.00     0.156 C 
HETATM   16  C   UNL     1     -40.457  53.550 -51.164  1.00  0.00     0.045 A 
HETATM   17  C   UNL     1     -40.989  54.841 -51.235  1.00  0.00     0.001 A 
HETATM   18  C   UNL     1     -40.304  52.876 -49.939  1.00  0.00     0.030 A 
HETATM   19  C   UNL     1     -41.360  55.477 -50.028  1.00  0.00     0.014 A 
HETATM   20  C   UNL     1     -41.210  54.813 -48.807  1.00  0.00     0.001 A 
HETATM   21  C   UNL     1     -40.692  53.526 -48.765  1.00  0.00     0.002 A 
ENDBRANCH   1  11
BRANCH   2  22
HETATM   22  C   UNL     1     -43.770  55.463 -54.184  1.00  0.00     0.229 C 
BRANCH  22  23
HETATM   23  C   UNL     1     -43.494  55.606 -55.681  1.00  0.00     0.235 C 
HETATM   24  N   UNL     1     -43.866  56.818 -56.217  1.00  0.00    -0.357 N 
HETATM   25  H   UNL     1     -44.454  57.431 -55.658  1.00  0.00     0.162 HD
HETATM   26  O   UNL     1     -43.060  54.681 -56.362  1.00  0.00    -0.272 OA
BRANCH  24  27
HETATM   27  C   UNL     1     -43.686  57.149 -57.618  1.00  0.00     0.154 C 
BRANCH  27  28
HETATM   28  C   UNL     1     -42.314  57.748 -57.956  1.00  0.00     0.139 C 
HETATM   29  O   UNL     1     -42.134  58.978 -57.224  1.00  0.00    -0.384 OA
HETATM   30  C   UNL     1     -41.726  59.994 -58.150  1.00  0.00     0.168 C 
HETATM   31  C   UNL     1     -42.231  59.556 -59.504  1.00  0.00     0.029 C 
HETATM   32  C   UNL     1     -42.073  58.058 -59.429  1.00  0.00     0.035 C 
ENDBRANCH  27  28
ENDBRANCH  24  27
ENDBRANCH  22  23
ENDBRANCH   2  22
TORSDOF 5
ENDMDL
MODEL 3
REMARK VINA RESULT:      -8.4      0.922      2.423
REMARK  5 active torsions:
REMARK  status: ('A' for Active; 'I' for Inactive)
REMARK    1  A    between atoms: C_7  and  C_8 
REMARK    2  A    between atoms: N_9  and  C_10 
REMARK    3  A    between atoms: C_10  and  C_11 
REMARK       I    between atoms: C_11  and  N_12 
REMARK    4  A    between atoms: N_12  and  C_13 
REMARK    5  A    between atoms: C_13  and  C_14 
ROOT
HETATM    1  C   UNL     1     -41.770  57.344 -52.725  1.00  0.00     0.158 A 
HETATM    2  N   UNL     1     -43.158  57.666 -52.433  1.00  0.00    -0.326 N 
HETATM    3  C   UNL     1     -43.276  58.732 -51.565  1.00  0.00     0.255 A 
HETATM    4  O   UNL     1     -44.291  59.290 -51.196  1.00  0.00    -0.267 OA
HETATM    5  C   UNL     1     -41.913  59.094 -51.148  1.00  0.00     0.040 A 
HETATM    6  C   UNL     1     -41.014  58.250 -51.802  1.00  0.00    -0.015 A 
HETATM    7  C   UNL     1     -41.507  60.083 -50.271  1.00  0.00     0.017 A 
HETATM    8  C   UNL     1     -40.135  60.227 -50.056  1.00  0.00     0.001 A 
HETATM    9  C   UNL     1     -39.215  59.390 -50.714  1.00  0.00     0.001 A 
HETATM   10  C   UNL     1     -39.650  58.397 -51.598  1.00  0.00     0.011 A 
ENDROOT
BRANCH   1  11
HETATM   11  C   UNL     1     -41.391  55.928 -52.433  1.00  0.00     0.004 A 
HETATM   12  C   UNL     1     -41.342  55.361 -51.160  1.00  0.00     0.017 A 
HETATM   13  C   UNL     1     -41.664  55.958 -49.829  1.00  0.00     0.069 C 
HETATM   14  N   UNL     1     -40.901  54.061 -51.288  1.00  0.00    -0.354 N 
HETATM   15  C   UNL     1     -40.705  53.154 -50.175  1.00  0.00     0.156 C 
HETATM   16  C   UNL     1     -40.650  53.764 -52.610  1.00  0.00     0.045 A 
HETATM   17  C   UNL     1     -40.975  54.901 -53.355  1.00  0.00     0.001 A 
HETATM   18  C   UNL     1     -40.157  52.594 -53.217  1.00  0.00     0.030 A 
HETATM   19  C   UNL     1     -40.816  54.847 -54.759  1.00  0.00     0.014 A 
HETATM   20  C   UNL     1     -40.327  53.688 -55.368  1.00  0.00     0.001 A 
HETATM   21  C   UNL     1     -39.997  52.577 -54.604  1.00  0.00     0.002 A 
ENDBRANCH   1  11
BRANCH   2  22
HETATM   22  C   UNL     1     -44.275  56.979 -53.072  1.00  0.00     0.229 C 
BRANCH  22  23
HETATM   23  C   UNL     1     -44.563  57.498 -54.480  1.00  0.00     0.235 C 
HETATM   24  N   UNL     1     -43.892  56.836 -55.483  1.00  0.00    -0.357 N 
HETATM   25  H   UNL     1     -43.134  56.211 -55.222  1.00  0.00     0.162 HD
HETATM   26  O   UNL     1     -45.266  58.484 -54.687  1.00  0.00    -0.272 OA
BRANCH  24  27
HETATM   27  C   UNL     1     -44.033  57.179 -56.885  1.00  0.00     0.154 C 
BRANCH  27  28
HETATM   28  C   UNL     1     -42.990  56.528 -57.805  1.00  0.00     0.139 C 
HETATM   29  O   UNL     1     -42.272  57.555 -58.520  1.00  0.00    -0.384 OA
HETATM   30  C   UNL     1     -42.290  57.223 -59.914  1.00  0.00     0.168 C 
HETATM   31  C   UNL     1     -43.500  56.345 -60.124  1.00  0.00     0.029 C 
HETATM   32  C   UNL     1     -43.540  55.554 -58.840  1.00  0.00     0.035 C 
ENDBRANCH  27  28
ENDBRANCH  24  27
ENDBRANCH  22  23
ENDBRANCH   2  22
TORSDOF 5
ENDMDL
MODEL 4
REMARK VINA RESULT:      -8.4      1.966      4.759
REMARK  5 active torsions:
REMARK  status: ('A' for Active; 'I' for Inactive)
REMARK    1  A    between atoms: C_7  and  C_8 
REMARK    2  A    between atoms: N_9  and  C_10 
REMARK    3  A    between atoms: C_10  and  C_11 
REMARK       I    between atoms: C_11  and  N_12 
REMARK    4  A    between atoms: N_12  and  C_13 
REMARK    5  A    between atoms: C_13  and  C_14 
ROOT
HETATM    1  C   UNL     1     -42.768  56.193 -53.470  1.00  0.00     0.158 A 
HETATM    2  N   UNL     1     -41.756  56.203 -54.514  1.00  0.00    -0.326 N 
HETATM    3  C   UNL     1     -40.808  55.217 -54.334  1.00  0.00     0.255 A 
HETATM    4  O   UNL     1     -39.890  54.914 -55.071  1.00  0.00    -0.267 OA
HETATM    5  C   UNL     1     -41.109  54.567 -53.049  1.00  0.00     0.040 A 
HETATM    6  C   UNL     1     -42.248  55.166 -52.510  1.00  0.00    -0.015 A 
HETATM    7  C   UNL     1     -40.436  53.537 -52.417  1.00  0.00     0.017 A 
HETATM    8  C   UNL     1     -40.944  53.093 -51.195  1.00  0.00     0.001 A 
HETATM    9  C   UNL     1     -42.097  53.680 -50.642  1.00  0.00     0.001 A 
HETATM   10  C   UNL     1     -42.761  54.720 -51.301  1.00  0.00     0.011 A 
ENDROOT
BRANCH   1  11
HETATM   11  C   UNL     1     -42.924  57.494 -52.750  1.00  0.00     0.004 A 
HETATM   12  C   UNL     1     -44.031  58.335 -52.853  1.00  0.00     0.017 A 
HETATM   13  C   UNL     1     -45.296  58.169 -53.629  1.00  0.00     0.069 C 
HETATM   14  N   UNL     1     -43.787  59.458 -52.091  1.00  0.00    -0.354 N 
HETATM   15  C   UNL     1     -44.705  60.571 -51.963  1.00  0.00     0.156 C 
HETATM   16  C   UNL     1     -42.544  59.379 -51.499  1.00  0.00     0.045 A 
HETATM   17  C   UNL     1     -41.992  58.149 -51.868  1.00  0.00     0.001 A 
HETATM   18  C   UNL     1     -41.854  60.287 -50.675  1.00  0.00     0.030 A 
HETATM   19  C   UNL     1     -40.709  57.819 -51.372  1.00  0.00     0.014 A 
HETATM   20  C   UNL     1     -40.017  58.717 -50.554  1.00  0.00     0.001 A 
HETATM   21  C   UNL     1     -40.583  59.938 -50.214  1.00  0.00     0.002 A 
ENDBRANCH   1  11
BRANCH   2  22
HETATM   22  C   UNL     1     -41.816  57.107 -55.657  1.00  0.00     0.229 C 
BRANCH  22  23
HETATM   23  C   UNL     1     -42.928  56.744 -56.642  1.00  0.00     0.235 C 
HETATM   24  N   UNL     1     -42.562  55.836 -57.610  1.00  0.00    -0.357 N 
HETATM   25  H   UNL     1     -41.574  55.629 -57.725  1.00  0.00     0.162 HD
HETATM   26  O   UNL     1     -44.029  57.290 -56.622  1.00  0.00    -0.272 OA
BRANCH  24  27
HETATM   27  C   UNL     1     -43.475  55.365 -58.634  1.00  0.00     0.154 C 
BRANCH  27  28
HETATM   28  C   UNL     1     -43.338  56.083 -59.984  1.00  0.00     0.139 C 
HETATM   29  O   UNL     1     -41.981  56.549 -60.144  1.00  0.00    -0.384 OA
HETATM   30  C   UNL     1     -42.026  57.934 -60.509  1.00  0.00     0.168 C 
HETATM   31  C   UNL     1     -43.342  58.463 -59.993  1.00  0.00     0.029 C 
HETATM   32  C   UNL     1     -44.256  57.280 -60.191  1.00  0.00     0.035 C 
ENDBRANCH  27  28
ENDBRANCH  24  27
ENDBRANCH  22  23
ENDBRANCH   2  22
TORSDOF 5
ENDMDL
MODEL 5
REMARK VINA RESULT:      -8.3      1.590      2.615
REMARK  5 active torsions:
REMARK  status: ('A' for Active; 'I' for Inactive)
REMARK    1  A    between atoms: C_7  and  C_8 
REMARK    2  A    between atoms: N_9  and  C_10 
REMARK    3  A    between atoms: C_10  and  C_11 
REMARK       I    between atoms: C_11  and  N_12 
REMARK    4  A    between atoms: N_12  and  C_13 
REMARK    5  A    between atoms: C_13  and  C_14 
ROOT
HETATM    1  C   UNL     1     -42.628  57.819 -53.624  1.00  0.00     0.158 A 
HETATM    2  N   UNL     1     -43.992  58.178 -53.975  1.00  0.00    -0.326 N 
HETATM    3  C   UNL     1     -44.444  59.273 -53.267  1.00  0.00     0.255 A 
HETATM    4  O   UNL     1     -45.500  59.862 -53.390  1.00  0.00    -0.267 OA
HETATM    5  C   UNL     1     -43.389  59.620 -52.302  1.00  0.00     0.040 A 
HETATM    6  C   UNL     1     -42.322  58.738 -52.481  1.00  0.00    -0.015 A 
HETATM    7  C   UNL     1     -43.376  60.628 -51.355  1.00  0.00     0.017 A 
HETATM    8  C   UNL     1     -42.231  60.750 -50.565  1.00  0.00     0.001 A 
HETATM    9  C   UNL     1     -41.144  59.875 -50.738  1.00  0.00     0.001 A 
HETATM   10  C   UNL     1     -41.181  58.863 -51.703  1.00  0.00     0.011 A 
ENDROOT
BRANCH   1  11
HETATM   11  C   UNL     1     -42.459  56.405 -53.168  1.00  0.00     0.004 A 
HETATM   12  C   UNL     1     -43.058  55.856 -52.034  1.00  0.00     0.017 A 
HETATM   13  C   UNL     1     -43.993  56.472 -51.047  1.00  0.00     0.069 C 
HETATM   14  N   UNL     1     -42.626  54.552 -51.912  1.00  0.00    -0.354 N 
HETATM   15  C   UNL     1     -43.019  53.660 -50.841  1.00  0.00     0.156 C 
HETATM   16  C   UNL     1     -41.752  54.236 -52.931  1.00  0.00     0.045 A 
HETATM   17  C   UNL     1     -41.651  55.364 -53.750  1.00  0.00     0.001 A 
HETATM   18  C   UNL     1     -41.036  53.055 -53.200  1.00  0.00     0.030 A 
HETATM   19  C   UNL     1     -40.814  55.290 -54.887  1.00  0.00     0.014 A 
HETATM   20  C   UNL     1     -40.099  54.120 -55.161  1.00  0.00     0.001 A 
HETATM   21  C   UNL     1     -40.206  53.018 -54.323  1.00  0.00     0.002 A 
ENDBRANCH   1  11
BRANCH   2  22
HETATM   22  C   UNL     1     -44.740  57.493 -55.024  1.00  0.00     0.229 C 
BRANCH  22  23
HETATM   23  C   UNL     1     -44.476  58.074 -56.414  1.00  0.00     0.235 C 
HETATM   24  N   UNL     1     -45.021  57.348 -57.449  1.00  0.00    -0.357 N 
HETATM   25  H   UNL     1     -45.372  56.415 -57.249  1.00  0.00     0.162 HD
HETATM   26  O   UNL     1     -43.760  59.055 -56.592  1.00  0.00    -0.272 OA
BRANCH  24  27
HETATM   27  C   UNL     1     -44.884  57.734 -58.840  1.00  0.00     0.154 C 
BRANCH  27  28
HETATM   28  C   UNL     1     -44.063  56.756 -59.692  1.00  0.00     0.139 C 
HETATM   29  O   UNL     1     -44.830  56.370 -60.852  1.00  0.00    -0.384 OA
HETATM   30  C   UNL     1     -44.821  54.939 -60.937  1.00  0.00     0.168 C 
HETATM   31  C   UNL     1     -44.573  54.435 -59.536  1.00  0.00     0.029 C 
HETATM   32  C   UNL     1     -43.627  55.476 -58.990  1.00  0.00     0.035 C 
ENDBRANCH  27  28
ENDBRANCH  24  27
ENDBRANCH  22  23
ENDBRANCH   2  22
TORSDOF 5
ENDMDL
MODEL 6
REMARK VINA RESULT:      -7.8      2.530      6.941
REMARK  5 active torsions:
REMARK  status: ('A' for Active; 'I' for Inactive)
REMARK    1  A    between atoms: C_7  and  C_8 
REMARK    2  A    between atoms: N_9  and  C_10 
REMARK    3  A    between atoms: C_10  and  C_11 
REMARK       I    between atoms: C_11  and  N_12 
REMARK    4  A    between atoms: N_12  and  C_13 
REMARK    5  A    between atoms: C_13  and  C_14 
ROOT
HETATM    1  C   UNL     1     -42.165  56.622 -54.381  1.00  0.00     0.158 A 
HETATM    2  N   UNL     1     -43.356  56.229 -53.645  1.00  0.00    -0.326 N 
HETATM    3  C   UNL     1     -43.313  54.909 -53.244  1.00  0.00     0.255 A 
HETATM    4  O   UNL     1     -44.109  54.309 -52.549  1.00  0.00    -0.267 OA
HETATM    5  C   UNL     1     -42.091  54.329 -53.823  1.00  0.00     0.040 A 
HETATM    6  C   UNL     1     -41.422  55.329 -54.532  1.00  0.00    -0.015 A 
HETATM    7  C   UNL     1     -41.614  53.035 -53.727  1.00  0.00     0.017 A 
HETATM    8  C   UNL     1     -40.407  52.746 -54.368  1.00  0.00     0.001 A 
HETATM    9  C   UNL     1     -39.717  53.745 -55.079  1.00  0.00     0.001 A 
HETATM   10  C   UNL     1     -40.219  55.048 -55.161  1.00  0.00     0.011 A 
ENDROOT
BRANCH   1  11
HETATM   11  C   UNL     1     -42.436  57.186 -55.738  1.00  0.00     0.004 A 
HETATM   12  C   UNL     1     -42.330  58.535 -56.078  1.00  0.00     0.017 A 
HETATM   13  C   UNL     1     -41.915  59.705 -55.248  1.00  0.00     0.069 C 
HETATM   14  N   UNL     1     -42.710  58.674 -57.396  1.00  0.00    -0.354 N 
HETATM   15  C   UNL     1     -42.748  59.938 -58.103  1.00  0.00     0.156 C 
HETATM   16  C   UNL     1     -43.071  57.454 -57.926  1.00  0.00     0.045 A 
HETATM   17  C   UNL     1     -42.882  56.499 -56.923  1.00  0.00     0.001 A 
HETATM   18  C   UNL     1     -43.555  57.108 -59.201  1.00  0.00     0.030 A 
HETATM   19  C   UNL     1     -43.174  55.148 -57.226  1.00  0.00     0.014 A 
HETATM   20  C   UNL     1     -43.655  54.798 -58.491  1.00  0.00     0.001 A 
HETATM   21  C   UNL     1     -43.847  55.768 -59.464  1.00  0.00     0.002 A 
ENDBRANCH   1  11
BRANCH   2  22
HETATM   22  C   UNL     1     -44.418  57.170 -53.309  1.00  0.00     0.229 C 
BRANCH  22  23
HETATM   23  C   UNL     1     -44.136  57.948 -52.024  1.00  0.00     0.235 C 
HETATM   24  N   UNL     1     -43.666  59.227 -52.221  1.00  0.00    -0.357 N 
HETATM   25  H   UNL     1     -43.361  59.489 -53.155  1.00  0.00     0.162 HD
HETATM   26  O   UNL     1     -44.234  57.438 -50.911  1.00  0.00    -0.272 OA
BRANCH  24  27
HETATM   27  C   UNL     1     -43.340  60.124 -51.128  1.00  0.00     0.154 C 
BRANCH  27  28
HETATM   28  C   UNL     1     -41.837  60.267 -50.852  1.00  0.00     0.139 C 
HETATM   29  O   UNL     1     -41.098  59.992 -52.061  1.00  0.00    -0.384 OA
HETATM   30  C   UNL     1     -40.079  59.033 -51.753  1.00  0.00     0.168 C 
HETATM   31  C   UNL     1     -40.562  58.281 -50.536  1.00  0.00     0.029 C 
HETATM   32  C   UNL     1     -41.277  59.360 -49.763  1.00  0.00     0.035 C 
ENDBRANCH  27  28
ENDBRANCH  24  27
ENDBRANCH  22  23
ENDBRANCH   2  22
TORSDOF 5
ENDMDL
MODEL 7
REMARK VINA RESULT:      -7.8      2.471      6.755
REMARK  5 active torsions:
REMARK  status: ('A' for Active; 'I' for Inactive)
REMARK    1  A    between atoms: C_7  and  C_8 
REMARK    2  A    between atoms: N_9  and  C_10 
REMARK    3  A    between atoms: C_10  and  C_11 
REMARK       I    between atoms: C_11  and  N_12 
REMARK    4  A    between atoms: N_12  and  C_13 
REMARK    5  A    between atoms: C_13  and  C_14 
ROOT
HETATM    1  C   UNL     1     -42.200  56.339 -54.529  1.00  0.00     0.158 A 
HETATM    2  N   UNL     1     -43.325  56.091 -53.642  1.00  0.00    -0.326 N 
HETATM    3  C   UNL     1     -43.186  54.914 -52.936  1.00  0.00     0.255 A 
HETATM    4  O   UNL     1     -43.908  54.472 -52.064  1.00  0.00    -0.267 OA
HETATM    5  C   UNL     1     -41.967  54.259 -53.436  1.00  0.00     0.040 A 
HETATM    6  C   UNL     1     -41.396  55.080 -54.410  1.00  0.00    -0.015 A 
HETATM    7  C   UNL     1     -41.414  53.049 -53.061  1.00  0.00     0.017 A 
HETATM    8  C   UNL     1     -40.230  52.661 -53.691  1.00  0.00     0.001 A 
HETATM    9  C   UNL     1     -39.637  53.481 -54.669  1.00  0.00     0.001 A 
HETATM   10  C   UNL     1     -40.215  54.702 -55.031  1.00  0.00     0.011 A 
ENDROOT
BRANCH   1  11
HETATM   11  C   UNL     1     -42.577  56.540 -55.962  1.00  0.00     0.004 A 
HETATM   12  C   UNL     1     -43.119  55.559 -56.790  1.00  0.00     0.017 A 
HETATM   13  C   UNL     1     -43.481  54.141 -56.490  1.00  0.00     0.069 C 
HETATM   14  N   UNL     1     -43.281  56.101 -58.046  1.00  0.00    -0.354 N 
HETATM   15  C   UNL     1     -43.805  55.376 -59.186  1.00  0.00     0.156 C 
HETATM   16  C   UNL     1     -42.850  57.411 -58.066  1.00  0.00     0.045 A 
HETATM   17  C   UNL     1     -42.431  57.724 -56.770  1.00  0.00     0.001 A 
HETATM   18  C   UNL     1     -42.785  58.346 -59.115  1.00  0.00     0.030 A 
HETATM   19  C   UNL     1     -41.950  59.031 -56.522  1.00  0.00     0.014 A 
HETATM   20  C   UNL     1     -41.883  59.965 -57.560  1.00  0.00     0.001 A 
HETATM   21  C   UNL     1     -42.291  59.624 -58.842  1.00  0.00     0.002 A 
ENDBRANCH   1  11
BRANCH   2  22
HETATM   22  C   UNL     1     -44.418  57.043 -53.474  1.00  0.00     0.229 C 
BRANCH  22  23
HETATM   23  C   UNL     1     -44.168  58.039 -52.342  1.00  0.00     0.235 C 
HETATM   24  N   UNL     1     -43.660  59.252 -52.750  1.00  0.00    -0.357 N 
HETATM   25  H   UNL     1     -43.313  59.332 -53.702  1.00  0.00     0.162 HD
HETATM   26  O   UNL     1     -44.322  57.744 -51.160  1.00  0.00    -0.272 OA
BRANCH  24  27
HETATM   27  C   UNL     1     -43.357  60.329 -51.827  1.00  0.00     0.154 C 
BRANCH  27  28
HETATM   28  C   UNL     1     -41.868  60.465 -51.478  1.00  0.00     0.139 C 
HETATM   29  O   UNL     1     -41.076  59.827 -52.502  1.00  0.00    -0.384 OA
HETATM   30  C   UNL     1     -40.151  58.939 -51.861  1.00  0.00     0.168 C 
HETATM   31  C   UNL     1     -40.764  58.581 -50.529  1.00  0.00     0.029 C 
HETATM   32  C   UNL     1     -41.447  59.869 -50.141  1.00  0.00     0.035 C 
ENDBRANCH  27  28
ENDBRANCH  24  27
ENDBRANCH  22  23
ENDBRANCH   2  22
TORSDOF 5
ENDMDL
MODEL 8
REMARK VINA RESULT:      -7.7      2.193      4.744
REMARK  5 active torsions:
REMARK  status: ('A' for Active; 'I' for Inactive)
REMARK    1  A    between atoms: C_7  and  C_8 
REMARK    2  A    between atoms: N_9  and  C_10 
REMARK    3  A    between atoms: C_10  and  C_11 
REMARK       I    between atoms: C_11  and  N_12 
REMARK    4  A    between atoms: N_12  and  C_13 
REMARK    5  A    between atoms: C_13  and  C_14 
ROOT
HETATM    1  C   UNL     1     -43.071  55.344 -52.127  1.00  0.00     0.158 A 
HETATM    2  N   UNL     1     -42.818  54.585 -53.340  1.00  0.00    -0.326 N 
HETATM    3  C   UNL     1     -41.772  53.697 -53.194  1.00  0.00     0.255 A 
HETATM    4  O   UNL     1     -41.373  52.870 -53.990  1.00  0.00    -0.267 OA
HETATM    5  C   UNL     1     -41.200  53.929 -51.858  1.00  0.00     0.040 A 
HETATM    6  C   UNL     1     -41.941  54.933 -51.232  1.00  0.00    -0.015 A 
HETATM    7  C   UNL     1     -40.125  53.306 -51.254  1.00  0.00     0.017 A 
HETATM    8  C   UNL     1     -39.793  53.711 -49.959  1.00  0.00     0.001 A 
HETATM    9  C   UNL     1     -40.535  54.715 -49.310  1.00  0.00     0.001 A 
HETATM   10  C   UNL     1     -41.620  55.330 -49.943  1.00  0.00     0.011 A 
ENDROOT
BRANCH   1  11
HETATM   11  C   UNL     1     -43.030  56.828 -52.307  1.00  0.00     0.004 A 
HETATM   12  C   UNL     1     -41.976  57.532 -52.888  1.00  0.00     0.017 A 
HETATM   13  C   UNL     1     -40.698  57.036 -53.480  1.00  0.00     0.069 C 
HETATM   14  N   UNL     1     -42.277  58.877 -52.829  1.00  0.00    -0.354 N 
HETATM   15  C   UNL     1     -41.409  59.928 -53.320  1.00  0.00     0.156 C 
HETATM   16  C   UNL     1     -43.496  59.072 -52.216  1.00  0.00     0.045 A 
HETATM   17  C   UNL     1     -44.006  57.808 -51.905  1.00  0.00     0.001 A 
HETATM   18  C   UNL     1     -44.192  60.253 -51.901  1.00  0.00     0.030 A 
HETATM   19  C   UNL     1     -45.269  57.736 -51.273  1.00  0.00     0.014 A 
HETATM   20  C   UNL     1     -45.967  58.906 -50.957  1.00  0.00     0.001 A 
HETATM   21  C   UNL     1     -45.431  60.149 -51.264  1.00  0.00     0.002 A 
ENDBRANCH   1  11
BRANCH   2  22
HETATM   22  C   UNL     1     -43.651  54.707 -54.532  1.00  0.00     0.229 C 
BRANCH  22  23
HETATM   23  C   UNL     1     -42.876  55.216 -55.747  1.00  0.00     0.235 C 
HETATM   24  N   UNL     1     -43.625  55.327 -56.897  1.00  0.00    -0.357 N 
HETATM   25  H   UNL     1     -44.545  54.896 -56.915  1.00  0.00     0.162 HD
HETATM   26  O   UNL     1     -41.665  55.420 -55.717  1.00  0.00    -0.272 OA
BRANCH  24  27
HETATM   27  C   UNL     1     -43.072  55.793 -58.155  1.00  0.00     0.154 C 
BRANCH  27  28
HETATM   28  C   UNL     1     -43.225  57.301 -58.395  1.00  0.00     0.139 C 
HETATM   29  O   UNL     1     -44.181  57.525 -59.452  1.00  0.00    -0.384 OA
HETATM   30  C   UNL     1     -43.590  58.414 -60.408  1.00  0.00     0.168 C 
HETATM   31  C   UNL     1     -42.095  58.260 -60.258  1.00  0.00     0.029 C 
HETATM   32  C   UNL     1     -41.949  58.042 -58.773  1.00  0.00     0.035 C 
ENDBRANCH  27  28
ENDBRANCH  24  27
ENDBRANCH  22  23
ENDBRANCH   2  22
TORSDOF 5
ENDMDL
MODEL 9
REMARK VINA RESULT:      -7.6      1.880      4.676
REMARK  5 active torsions:
REMARK  status: ('A' for Active; 'I' for Inactive)
REMARK    1  A    between atoms: C_7  and  C_8 
REMARK    2  A    between atoms: N_9  and  C_10 
REMARK    3  A    between atoms: C_10  and  C_11 
REMARK       I    between atoms: C_11  and  N_12 
REMARK    4  A    between atoms: N_12  and  C_13 
REMARK    5  A    between atoms: C_13  and  C_14 
ROOT
HETATM    1  C   UNL     1     -43.178  55.802 -51.697  1.00  0.00     0.158 A 
HETATM    2  N   UNL     1     -42.895  55.494 -53.090  1.00  0.00    -0.326 N 
HETATM    3  C   UNL     1     -41.936  54.511 -53.224  1.00  0.00     0.255 A 
HETATM    4  O   UNL     1     -41.544  53.980 -54.245  1.00  0.00    -0.267 OA
HETATM    5  C   UNL     1     -41.450  54.203 -51.870  1.00  0.00     0.040 A 
HETATM    6  C   UNL     1     -42.154  54.992 -50.960  1.00  0.00    -0.015 A 
HETATM    7  C   UNL     1     -40.475  53.303 -51.481  1.00  0.00     0.017 A 
HETATM    8  C   UNL     1     -40.211  53.193 -50.114  1.00  0.00     0.001 A 
HETATM    9  C   UNL     1     -40.918  53.975 -49.183  1.00  0.00     0.001 A 
HETATM   10  C   UNL     1     -41.901  54.879 -49.601  1.00  0.00     0.011 A 
ENDROOT
BRANCH   1  11
HETATM   11  C   UNL     1     -43.007  57.243 -51.337  1.00  0.00     0.004 A 
HETATM   12  C   UNL     1     -44.045  58.168 -51.234  1.00  0.00     0.017 A 
HETATM   13  C   UNL     1     -45.516  57.985 -51.410  1.00  0.00     0.069 C 
HETATM   14  N   UNL     1     -43.494  59.397 -50.938  1.00  0.00    -0.354 N 
HETATM   15  C   UNL     1     -44.261  60.615 -50.771  1.00  0.00     0.156 C 
HETATM   16  C   UNL     1     -42.121  59.303 -50.854  1.00  0.00     0.045 A 
HETATM   17  C   UNL     1     -41.788  57.963 -51.069  1.00  0.00     0.001 A 
HETATM   18  C   UNL     1     -41.142  60.284 -50.615  1.00  0.00     0.030 A 
HETATM   19  C   UNL     1     -40.422  57.599 -51.021  1.00  0.00     0.014 A 
HETATM   20  C   UNL     1     -39.443  58.569 -50.783  1.00  0.00     0.001 A 
HETATM   21  C   UNL     1     -39.800  59.896 -50.587  1.00  0.00     0.002 A 
ENDBRANCH   1  11
BRANCH   2  22
HETATM   22  C   UNL     1     -43.623  56.109 -54.194  1.00  0.00     0.229 C 
BRANCH  22  23
HETATM   23  C   UNL     1     -42.769  57.092 -54.993  1.00  0.00     0.235 C 
HETATM   24  N   UNL     1     -43.165  57.263 -56.301  1.00  0.00    -0.357 N 
HETATM   25  H   UNL     1     -43.840  56.609 -56.687  1.00  0.00     0.162 HD
HETATM   26  O   UNL     1     -41.758  57.614 -54.530  1.00  0.00    -0.272 OA
BRANCH  24  27
HETATM   27  C   UNL     1     -42.484  58.154 -57.221  1.00  0.00     0.154 C 
BRANCH  27  28
HETATM   28  C   UNL     1     -43.039  58.132 -58.652  1.00  0.00     0.139 C 
HETATM   29  O   UNL     1     -43.977  57.044 -58.786  1.00  0.00    -0.384 OA
HETATM   30  C   UNL     1     -43.618  56.284 -59.947  1.00  0.00     0.168 C 
HETATM   31  C   UNL     1     -42.146  56.533 -60.174  1.00  0.00     0.029 C 
HETATM   32  C   UNL     1     -42.003  57.975 -59.758  1.00  0.00     0.035 C 
ENDBRANCH  27  28
ENDBRANCH  24  27
ENDBRANCH  22  23
ENDBRANCH   2  22
TORSDOF 5
ENDMDL
MODEL 10
REMARK VINA RESULT:      -7.5      2.108      3.308
REMARK  5 active torsions:
REMARK  status: ('A' for Active; 'I' for Inactive)
REMARK    1  A    between atoms: C_7  and  C_8 
REMARK    2  A    between atoms: N_9  and  C_10 
REMARK    3  A    between atoms: C_10  and  C_11 
REMARK       I    between atoms: C_11  and  N_12 
REMARK    4  A    between atoms: N_12  and  C_13 
REMARK    5  A    between atoms: C_13  and  C_14 
ROOT
HETATM    1  C   UNL     1     -42.827  57.932 -53.581  1.00  0.00     0.158 A 
HETATM    2  N   UNL     1     -44.209  58.280 -53.868  1.00  0.00    -0.326 N 
HETATM    3  C   UNL     1     -44.637  59.369 -53.136  1.00  0.00     0.255 A 
HETATM    4  O   UNL     1     -45.702  59.950 -53.208  1.00  0.00    -0.267 OA
HETATM    5  C   UNL     1     -43.543  59.721 -52.218  1.00  0.00     0.040 A 
HETATM    6  C   UNL     1     -42.478  58.849 -52.448  1.00  0.00    -0.015 A 
HETATM    7  C   UNL     1     -43.495  60.725 -51.268  1.00  0.00     0.017 A 
HETATM    8  C   UNL     1     -42.317  60.854 -50.529  1.00  0.00     0.001 A 
HETATM    9  C   UNL     1     -41.231  59.988 -50.755  1.00  0.00     0.001 A 
HETATM   10  C   UNL     1     -41.303  58.981 -51.723  1.00  0.00     0.011 A 
ENDROOT
BRANCH   1  11
HETATM   11  C   UNL     1     -42.626  56.517 -53.139  1.00  0.00     0.004 A 
HETATM   12  C   UNL     1     -43.217  55.941 -52.015  1.00  0.00     0.017 A 
HETATM   13  C   UNL     1     -44.173  56.524 -51.026  1.00  0.00     0.069 C 
HETATM   14  N   UNL     1     -42.754  54.648 -51.904  1.00  0.00    -0.354 N 
HETATM   15  C   UNL     1     -43.132  53.734 -50.845  1.00  0.00     0.156 C 
HETATM   16  C   UNL     1     -41.867  54.364 -52.921  1.00  0.00     0.045 A 
HETATM   17  C   UNL     1     -41.789  55.503 -53.727  1.00  0.00     0.001 A 
HETATM   18  C   UNL     1     -41.120  53.204 -53.199  1.00  0.00     0.030 A 
HETATM   19  C   UNL     1     -40.944  55.462 -54.861  1.00  0.00     0.014 A 
HETATM   20  C   UNL     1     -40.199  54.313 -55.142  1.00  0.00     0.001 A 
HETATM   21  C   UNL     1     -40.284  53.200 -54.317  1.00  0.00     0.002 A 
ENDBRANCH   1  11
BRANCH   2  22
HETATM   22  C   UNL     1     -44.997  57.594 -54.885  1.00  0.00     0.229 C 
BRANCH  22  23
HETATM   23  C   UNL     1     -44.944  58.290 -56.246  1.00  0.00     0.235 C 
HETATM   24  N   UNL     1     -43.927  57.860 -57.068  1.00  0.00    -0.357 N 
HETATM   25  H   UNL     1     -43.193  57.284 -56.665  1.00  0.00     0.162 HD
HETATM   26  O   UNL     1     -45.692  59.219 -56.540  1.00  0.00    -0.272 OA
BRANCH  24  27
HETATM   27  C   UNL     1     -43.710  58.396 -58.399  1.00  0.00     0.154 C 
BRANCH  27  28
HETATM   28  C   UNL     1     -42.274  58.871 -58.664  1.00  0.00     0.139 C 
HETATM   29  O   UNL     1     -41.861  59.764 -57.609  1.00  0.00    -0.384 OA
HETATM   30  C   UNL     1     -41.334  60.953 -58.211  1.00  0.00     0.168 C 
HETATM   31  C   UNL     1     -41.965  61.047 -59.580  1.00  0.00     0.029 C 
HETATM   32  C   UNL     1     -42.053  59.597 -59.985  1.00  0.00     0.035 C 
ENDBRANCH  27  28
ENDBRANCH  24  27
ENDBRANCH  22  23
ENDBRANCH   2  22
TORSDOF 5
ENDMDL
