MODEL 1
REMARK VINA RESULT:      -7.3      0.000      0.000
REMARK  10 active torsions:
REMARK  status: ('A' for Active; 'I' for Inactive)
REMARK    1  A    between atoms: C_4  and  C_5 
REMARK    2  A    between atoms: C_8  and  N_9 
REMARK    3  A    between atoms: C_15  and  C_16 
REMARK    4  A    between atoms: C_19  and  C_20 
REMARK    5  A    between atoms: C_20  and  N_21 
REMARK    6  A    between atoms: N_21  and  C_22 
REMARK    7  A    between atoms: C_22  and  N_23 
REMARK    8  A    between atoms: N_23  and  C_24 
REMARK    9  A    between atoms: C_26  and  C_27 
REMARK   10  A    between atoms: C_27  and  O_28 
ROOT
HETATM    1  C   UNL     1     -43.282  58.206 -59.495  1.00  0.00     0.067 C 
HETATM    2  C   UNL     1     -42.104  59.193 -59.593  1.00  0.00     0.001 C 
HETATM    3  C   UNL     1     -42.247  60.347 -58.579  1.00  0.00     0.040 C 
HETATM    4  C   UNL     1     -43.486  61.208 -58.863  1.00  0.00     0.206 C 
HETATM    5  N   UNL     1     -44.334  60.444 -59.873  1.00  0.00    -0.065 N 
HETATM    6  H   UNL     1     -45.238  60.921 -59.993  1.00  0.00     0.280 HD
HETATM    7  C   UNL     1     -44.604  59.007 -59.419  1.00  0.00     0.246 C 
HETATM    8  C   UNL     1     -42.204  59.847 -60.997  1.00  0.00     0.033 C 
HETATM    9  C   UNL     1     -43.610  60.430 -61.216  1.00  0.00     0.236 C 
ENDROOT
BRANCH   4  10
HETATM   10  C   UNL     1     -44.270  61.605 -57.592  1.00  0.00     0.155 C 
BRANCH  10  11
HETATM   11  N   UNL     1     -43.960  60.737 -56.459  1.00  0.00    -0.365 N 
HETATM   12  H   UNL     1     -42.984  60.644 -56.191  1.00  0.00     0.161 HD
BRANCH  11  13
HETATM   13  C   UNL     1     -44.801  60.436 -55.419  1.00  0.00     0.172 C 
HETATM   14  S   UNL     1     -45.885  61.495 -54.727  1.00  0.00    -0.041 SA
BRANCH  13  15
HETATM   15  N   UNL     1     -44.679  59.178 -54.891  1.00  0.00    -0.333 N 
HETATM   16  H   UNL     1     -45.071  58.448 -55.483  1.00  0.00     0.168 HD
BRANCH  15  17
HETATM   17  C   UNL     1     -43.983  58.728 -53.748  1.00  0.00     0.035 A 
HETATM   18  C   UNL     1     -42.609  58.911 -53.569  1.00  0.00     0.047 A 
HETATM   19  C   UNL     1     -41.961  58.455 -52.411  1.00  0.00     0.041 A 
HETATM   20  C   UNL     1     -42.695  57.777 -51.434  1.00  0.00     0.018 A 
HETATM   21  C   UNL     1     -44.060  57.549 -51.629  1.00  0.00     0.003 A 
HETATM   22  C   UNL     1     -44.697  58.015 -52.782  1.00  0.00     0.029 A 
BRANCH  19  23
HETATM   23  C   UNL     1     -40.503  58.730 -52.286  1.00  0.00     0.293 C 
HETATM   24  O   UNL     1     -39.810  59.084 -53.230  1.00  0.00    -0.259 OA
BRANCH  23  25
HETATM   25  O   UNL     1     -40.095  58.591 -51.004  1.00  0.00    -0.323 OA
HETATM   26  C   UNL     1     -39.075  59.511 -50.606  1.00  0.00     0.213 C 
ENDBRANCH  23  25
ENDBRANCH  19  23
ENDBRANCH  15  17
ENDBRANCH  13  15
ENDBRANCH  11  13
ENDBRANCH  10  11
ENDBRANCH   4  10
BRANCH   1  27
HETATM   27  C   UNL     1     -43.275  57.066 -58.515  1.00  0.00     0.038 C 
HETATM   28  N   UNL     1     -43.576  55.730 -58.654  1.00  0.00    -0.277 N 
HETATM   29  C   UNL     1     -44.175  54.992 -59.741  1.00  0.00     0.179 C 
HETATM   30  N   UNL     1     -43.222  55.000 -57.580  1.00  0.00    -0.172 NA
HETATM   31  C   UNL     1     -42.866  55.882 -56.641  1.00  0.00     0.089 C 
HETATM   32  C   UNL     1     -42.901  57.186 -57.182  1.00  0.00     0.061 C 
BRANCH  31  33
HETATM   33  C   UNL     1     -42.446  55.486 -55.300  1.00  0.00    -0.005 A 
HETATM   34  C   UNL     1     -43.346  54.887 -54.417  1.00  0.00     0.016 A 
HETATM   35  C   UNL     1     -42.918  54.430 -53.159  1.00  0.00     0.030 A 
HETATM   36  C   UNL     1     -41.590  54.571 -52.722  1.00  0.00     0.029 A 
HETATM   37  C   UNL     1     -40.711  55.199 -53.621  1.00  0.00     0.030 A 
HETATM   38  C   UNL     1     -41.124  55.649 -54.884  1.00  0.00     0.016 A 
BRANCH  36  39
HETATM   39  N   UNL     1     -41.142  54.074 -51.494  1.00  0.00    -0.390 N 
HETATM   40  C   UNL     1     -40.328  52.861 -51.461  1.00  0.00     0.149 C 
HETATM   41  C   UNL     1     -41.986  54.295 -50.319  1.00  0.00     0.149 C 
ENDBRANCH  36  39
ENDBRANCH  31  33
ENDBRANCH   1  27
TORSDOF 10
ENDMDL
MODEL 2
REMARK VINA RESULT:      -7.3      3.097      6.301
REMARK  10 active torsions:
REMARK  status: ('A' for Active; 'I' for Inactive)
REMARK    1  A    between atoms: C_4  and  C_5 
REMARK    2  A    between atoms: C_8  and  N_9 
REMARK    3  A    between atoms: C_15  and  C_16 
REMARK    4  A    between atoms: C_19  and  C_20 
REMARK    5  A    between atoms: C_20  and  N_21 
REMARK    6  A    between atoms: N_21  and  C_22 
REMARK    7  A    between atoms: C_22  and  N_23 
REMARK    8  A    between atoms: N_23  and  C_24 
REMARK    9  A    between atoms: C_26  and  C_27 
REMARK   10  A    between atoms: C_27  and  O_28 
ROOT
HETATM    1  C   UNL     1     -43.527  58.626 -51.548  1.00  0.00     0.067 C 
HETATM    2  C   UNL     1     -45.041  58.604 -51.828  1.00  0.00     0.001 C 
HETATM    3  C   UNL     1     -45.406  59.495 -53.033  1.00  0.00     0.040 C 
HETATM    4  C   UNL     1     -45.092  60.974 -52.769  1.00  0.00     0.206 C 
HETATM    5  N   UNL     1     -44.233  61.025 -51.511  1.00  0.00    -0.065 N 
HETATM    6  H   UNL     1     -43.888  61.985 -51.370  1.00  0.00     0.280 HD
HETATM    7  C   UNL     1     -43.026  60.089 -51.606  1.00  0.00     0.246 C 
HETATM    8  C   UNL     1     -45.718  59.261 -50.595  1.00  0.00     0.033 C 
HETATM    9  C   UNL     1     -45.091  60.636 -50.311  1.00  0.00     0.236 C 
ENDROOT
BRANCH   4  10
HETATM   10  C   UNL     1     -44.447  61.697 -53.972  1.00  0.00     0.155 C 
BRANCH  10  11
HETATM   11  N   UNL     1     -44.998  61.245 -55.247  1.00  0.00    -0.365 N 
HETATM   12  H   UNL     1     -45.808  61.741 -55.612  1.00  0.00     0.161 HD
BRANCH  11  13
HETATM   13  C   UNL     1     -44.309  60.602 -56.243  1.00  0.00     0.172 C 
HETATM   14  S   UNL     1     -42.951  61.195 -57.003  1.00  0.00    -0.041 SA
BRANCH  13  15
HETATM   15  N   UNL     1     -44.833  59.407 -56.662  1.00  0.00    -0.333 N 
HETATM   16  H   UNL     1     -45.799  59.474 -56.976  1.00  0.00     0.168 HD
BRANCH  15  17
HETATM   17  C   UNL     1     -44.212  58.154 -56.856  1.00  0.00     0.035 A 
HETATM   18  C   UNL     1     -43.944  57.623 -58.120  1.00  0.00     0.047 A 
HETATM   19  C   UNL     1     -43.317  56.376 -58.266  1.00  0.00     0.041 A 
HETATM   20  C   UNL     1     -42.983  55.638 -57.127  1.00  0.00     0.018 A 
HETATM   21  C   UNL     1     -43.291  56.142 -55.861  1.00  0.00     0.003 A 
HETATM   22  C   UNL     1     -43.909  57.389 -55.728  1.00  0.00     0.029 A 
BRANCH  19  23
HETATM   23  C   UNL     1     -43.032  55.907 -59.649  1.00  0.00     0.293 C 
HETATM   24  O   UNL     1     -42.146  56.384 -60.344  1.00  0.00    -0.259 OA
BRANCH  23  25
HETATM   25  O   UNL     1     -43.836  54.871 -59.981  1.00  0.00    -0.323 OA
HETATM   26  C   UNL     1     -44.903  55.212 -60.871  1.00  0.00     0.213 C 
ENDBRANCH  23  25
ENDBRANCH  19  23
ENDBRANCH  15  17
ENDBRANCH  13  15
ENDBRANCH  11  13
ENDBRANCH  10  11
ENDBRANCH   4  10
BRANCH   1  27
HETATM   27  C   UNL     1     -42.582  57.695 -52.253  1.00  0.00     0.038 C 
HETATM   28  N   UNL     1     -41.511  57.926 -53.088  1.00  0.00    -0.277 N 
HETATM   29  C   UNL     1     -41.035  59.134 -53.719  1.00  0.00     0.179 C 
HETATM   30  N   UNL     1     -40.785  56.819 -53.326  1.00  0.00    -0.172 NA
HETATM   31  C   UNL     1     -41.487  55.805 -52.811  1.00  0.00     0.089 C 
HETATM   32  C   UNL     1     -42.625  56.310 -52.146  1.00  0.00     0.061 C 
BRANCH  31  33
HETATM   33  C   UNL     1     -41.050  54.414 -52.897  1.00  0.00    -0.005 A 
HETATM   34  C   UNL     1     -41.082  53.728 -54.111  1.00  0.00     0.016 A 
HETATM   35  C   UNL     1     -40.582  52.419 -54.209  1.00  0.00     0.030 A 
HETATM   36  C   UNL     1     -40.054  51.734 -53.100  1.00  0.00     0.029 A 
HETATM   37  C   UNL     1     -40.057  52.439 -51.884  1.00  0.00     0.030 A 
HETATM   38  C   UNL     1     -40.543  53.751 -51.778  1.00  0.00     0.016 A 
BRANCH  36  39
HETATM   39  N   UNL     1     -39.507  50.451 -53.195  1.00  0.00    -0.390 N 
HETATM   40  C   UNL     1     -39.579  49.729 -54.464  1.00  0.00     0.149 C 
HETATM   41  C   UNL     1     -39.520  49.613 -51.995  1.00  0.00     0.149 C 
ENDBRANCH  36  39
ENDBRANCH  31  33
ENDBRANCH   1  27
TORSDOF 10
ENDMDL
MODEL 3
REMARK VINA RESULT:      -7.2      1.748      2.392
REMARK  10 active torsions:
REMARK  status: ('A' for Active; 'I' for Inactive)
REMARK    1  A    between atoms: C_4  and  C_5 
REMARK    2  A    between atoms: C_8  and  N_9 
REMARK    3  A    between atoms: C_15  and  C_16 
REMARK    4  A    between atoms: C_19  and  C_20 
REMARK    5  A    between atoms: C_20  and  N_21 
REMARK    6  A    between atoms: N_21  and  C_22 
REMARK    7  A    between atoms: C_22  and  N_23 
REMARK    8  A    between atoms: N_23  and  C_24 
REMARK    9  A    between atoms: C_26  and  C_27 
REMARK   10  A    between atoms: C_27  and  O_28 
ROOT
HETATM    1  C   UNL     1     -44.029  58.314 -58.894  1.00  0.00     0.067 C 
HETATM    2  C   UNL     1     -43.076  58.965 -59.913  1.00  0.00     0.001 C 
HETATM    3  C   UNL     1     -41.995  59.815 -59.214  1.00  0.00     0.040 C 
HETATM    4  C   UNL     1     -42.603  61.002 -58.454  1.00  0.00     0.206 C 
HETATM    5  N   UNL     1     -44.107  60.763 -58.390  1.00  0.00    -0.065 N 
HETATM    6  H   UNL     1     -44.540  61.465 -57.775  1.00  0.00     0.280 HD
HETATM    7  C   UNL     1     -44.440  59.373 -57.843  1.00  0.00     0.246 C 
HETATM    8  C   UNL     1     -43.937  59.964 -60.733  1.00  0.00     0.033 C 
HETATM    9  C   UNL     1     -44.691  60.917 -59.791  1.00  0.00     0.236 C 
ENDROOT
BRANCH   4  10
HETATM   10  C   UNL     1     -41.969  61.240 -57.065  1.00  0.00     0.155 C 
BRANCH  10  11
HETATM   11  N   UNL     1     -42.871  61.950 -56.162  1.00  0.00    -0.365 N 
HETATM   12  H   UNL     1     -43.582  62.546 -56.578  1.00  0.00     0.161 HD
BRANCH  11  13
HETATM   13  C   UNL     1     -43.221  61.556 -54.896  1.00  0.00     0.172 C 
HETATM   14  S   UNL     1     -43.182  62.530 -53.545  1.00  0.00    -0.041 SA
BRANCH  13  15
HETATM   15  N   UNL     1     -43.573  60.240 -54.751  1.00  0.00    -0.333 N 
HETATM   16  H   UNL     1     -44.314  59.944 -55.384  1.00  0.00     0.168 HD
BRANCH  15  17
HETATM   17  C   UNL     1     -42.986  59.215 -53.978  1.00  0.00     0.035 A 
HETATM   18  C   UNL     1     -43.661  58.551 -52.951  1.00  0.00     0.047 A 
HETATM   19  C   UNL     1     -43.039  57.532 -52.213  1.00  0.00     0.041 A 
HETATM   20  C   UNL     1     -41.711  57.197 -52.490  1.00  0.00     0.018 A 
HETATM   21  C   UNL     1     -41.014  57.889 -53.483  1.00  0.00     0.003 A 
HETATM   22  C   UNL     1     -41.647  58.897 -54.217  1.00  0.00     0.029 A 
BRANCH  19  23
HETATM   23  C   UNL     1     -43.847  56.850 -51.166  1.00  0.00     0.293 C 
HETATM   24  O   UNL     1     -44.998  57.170 -50.901  1.00  0.00    -0.259 OA
BRANCH  23  25
HETATM   25  O   UNL     1     -43.158  55.823 -50.618  1.00  0.00    -0.323 OA
HETATM   26  C   UNL     1     -43.953  54.674 -50.316  1.00  0.00     0.213 C 
ENDBRANCH  23  25
ENDBRANCH  19  23
ENDBRANCH  15  17
ENDBRANCH  13  15
ENDBRANCH  11  13
ENDBRANCH  10  11
ENDBRANCH   4  10
BRANCH   1  27
HETATM   27  C   UNL     1     -43.710  56.996 -58.248  1.00  0.00     0.038 C 
HETATM   28  N   UNL     1     -43.761  55.702 -58.717  1.00  0.00    -0.277 N 
HETATM   29  C   UNL     1     -44.309  55.147 -59.932  1.00  0.00     0.179 C 
HETATM   30  N   UNL     1     -43.171  54.821 -57.888  1.00  0.00    -0.172 NA
HETATM   31  C   UNL     1     -42.903  55.499 -56.768  1.00  0.00     0.089 C 
HETATM   32  C   UNL     1     -43.239  56.858 -56.947  1.00  0.00     0.061 C 
BRANCH  31  33
HETATM   33  C   UNL     1     -42.288  54.881 -55.596  1.00  0.00    -0.005 A 
HETATM   34  C   UNL     1     -43.066  54.470 -54.514  1.00  0.00     0.016 A 
HETATM   35  C   UNL     1     -42.483  53.800 -53.426  1.00  0.00     0.030 A 
HETATM   36  C   UNL     1     -41.104  53.534 -53.361  1.00  0.00     0.029 A 
HETATM   37  C   UNL     1     -40.340  53.980 -54.453  1.00  0.00     0.030 A 
HETATM   38  C   UNL     1     -40.913  54.640 -55.550  1.00  0.00     0.016 A 
BRANCH  36  39
HETATM   39  N   UNL     1     -40.520  52.823 -52.308  1.00  0.00    -0.390 N 
HETATM   40  C   UNL     1     -40.284  53.491 -51.030  1.00  0.00     0.149 C 
HETATM   41  C   UNL     1     -39.570  51.761 -52.645  1.00  0.00     0.149 C 
ENDBRANCH  36  39
ENDBRANCH  31  33
ENDBRANCH   1  27
TORSDOF 10
ENDMDL
MODEL 4
REMARK VINA RESULT:      -7.2      1.315      1.826
REMARK  10 active torsions:
REMARK  status: ('A' for Active; 'I' for Inactive)
REMARK    1  A    between atoms: C_4  and  C_5 
REMARK    2  A    between atoms: C_8  and  N_9 
REMARK    3  A    between atoms: C_15  and  C_16 
REMARK    4  A    between atoms: C_19  and  C_20 
REMARK    5  A    between atoms: C_20  and  N_21 
REMARK    6  A    between atoms: N_21  and  C_22 
REMARK    7  A    between atoms: C_22  and  N_23 
REMARK    8  A    between atoms: N_23  and  C_24 
REMARK    9  A    between atoms: C_26  and  C_27 
REMARK   10  A    between atoms: C_27  and  O_28 
ROOT
HETATM    1  C   UNL     1     -42.986  58.717 -58.012  1.00  0.00     0.067 C 
HETATM    2  C   UNL     1     -42.175  59.853 -57.361  1.00  0.00     0.001 C 
HETATM    3  C   UNL     1     -42.944  60.496 -56.189  1.00  0.00     0.040 C 
HETATM    4  C   UNL     1     -44.239  61.177 -56.658  1.00  0.00     0.206 C 
HETATM    5  N   UNL     1     -44.484  60.718 -58.090  1.00  0.00    -0.065 N 
HETATM    6  H   UNL     1     -45.410  61.043 -58.401  1.00  0.00     0.280 HD
HETATM    7  C   UNL     1     -44.444  59.193 -58.215  1.00  0.00     0.246 C 
HETATM    8  C   UNL     1     -42.040  60.961 -58.439  1.00  0.00     0.033 C 
HETATM    9  C   UNL     1     -43.424  61.335 -58.996  1.00  0.00     0.236 C 
ENDROOT
BRANCH   4  10
HETATM   10  C   UNL     1     -45.445  60.926 -55.726  1.00  0.00     0.155 C 
BRANCH  10  11
HETATM   11  N   UNL     1     -45.257  59.745 -54.887  1.00  0.00    -0.365 N 
HETATM   12  H   UNL     1     -44.610  59.033 -55.215  1.00  0.00     0.161 HD
BRANCH  11  13
HETATM   13  C   UNL     1     -45.426  59.686 -53.528  1.00  0.00     0.172 C 
HETATM   14  S   UNL     1     -45.917  60.957 -52.568  1.00  0.00    -0.041 SA
BRANCH  13  15
HETATM   15  N   UNL     1     -45.107  58.494 -52.933  1.00  0.00    -0.333 N 
HETATM   16  H   UNL     1     -45.825  57.780 -53.041  1.00  0.00     0.168 HD
BRANCH  15  17
HETATM   17  C   UNL     1     -43.905  58.065 -52.329  1.00  0.00     0.035 A 
HETATM   18  C   UNL     1     -42.678  58.697 -52.538  1.00  0.00     0.047 A 
HETATM   19  C   UNL     1     -41.509  58.241 -51.910  1.00  0.00     0.041 A 
HETATM   20  C   UNL     1     -41.568  57.114 -51.086  1.00  0.00     0.018 A 
HETATM   21  C   UNL     1     -42.783  56.447 -50.910  1.00  0.00     0.003 A 
HETATM   22  C   UNL     1     -43.943  56.917 -51.535  1.00  0.00     0.029 A 
BRANCH  19  23
HETATM   23  C   UNL     1     -40.254  59.001 -52.157  1.00  0.00     0.293 C 
HETATM   24  O   UNL     1     -39.680  59.005 -53.238  1.00  0.00    -0.259 OA
BRANCH  23  25
HETATM   25  O   UNL     1     -39.895  59.708 -51.061  1.00  0.00    -0.323 OA
HETATM   26  C   UNL     1     -38.580  59.421 -50.578  1.00  0.00     0.213 C 
ENDBRANCH  23  25
ENDBRANCH  19  23
ENDBRANCH  15  17
ENDBRANCH  13  15
ENDBRANCH  11  13
ENDBRANCH  10  11
ENDBRANCH   4  10
BRANCH   1  27
HETATM   27  C   UNL     1     -42.937  57.311 -57.484  1.00  0.00     0.038 C 
HETATM   28  N   UNL     1     -43.360  56.112 -58.013  1.00  0.00    -0.277 N 
HETATM   29  C   UNL     1     -44.159  55.810 -59.177  1.00  0.00     0.179 C 
HETATM   30  N   UNL     1     -42.922  55.048 -57.314  1.00  0.00    -0.172 NA
HETATM   31  C   UNL     1     -42.373  55.545 -56.201  1.00  0.00     0.089 C 
HETATM   32  C   UNL     1     -42.377  56.955 -56.262  1.00  0.00     0.061 C 
BRANCH  31  33
HETATM   33  C   UNL     1     -41.807  54.701 -55.152  1.00  0.00    -0.005 A 
HETATM   34  C   UNL     1     -40.510  54.200 -55.259  1.00  0.00     0.016 A 
HETATM   35  C   UNL     1     -39.938  53.460 -54.210  1.00  0.00     0.030 A 
HETATM   36  C   UNL     1     -40.641  53.171 -53.028  1.00  0.00     0.029 A 
HETATM   37  C   UNL     1     -41.954  53.667 -52.956  1.00  0.00     0.030 A 
HETATM   38  C   UNL     1     -42.531  54.416 -53.992  1.00  0.00     0.016 A 
BRANCH  36  39
HETATM   39  N   UNL     1     -40.066  52.480 -51.957  1.00  0.00    -0.390 N 
HETATM   40  C   UNL     1     -39.522  51.140 -52.171  1.00  0.00     0.149 C 
HETATM   41  C   UNL     1     -40.597  52.734 -50.617  1.00  0.00     0.149 C 
ENDBRANCH  36  39
ENDBRANCH  31  33
ENDBRANCH   1  27
TORSDOF 10
ENDMDL
MODEL 5
REMARK VINA RESULT:      -7.0      2.103      2.914
REMARK  10 active torsions:
REMARK  status: ('A' for Active; 'I' for Inactive)
REMARK    1  A    between atoms: C_4  and  C_5 
REMARK    2  A    between atoms: C_8  and  N_9 
REMARK    3  A    between atoms: C_15  and  C_16 
REMARK    4  A    between atoms: C_19  and  C_20 
REMARK    5  A    between atoms: C_20  and  N_21 
REMARK    6  A    between atoms: N_21  and  C_22 
REMARK    7  A    between atoms: C_22  and  N_23 
REMARK    8  A    between atoms: N_23  and  C_24 
REMARK    9  A    between atoms: C_26  and  C_27 
REMARK   10  A    between atoms: C_27  and  O_28 
ROOT
HETATM    1  C   UNL     1     -43.330  58.812 -57.804  1.00  0.00     0.067 C 
HETATM    2  C   UNL     1     -42.148  59.798 -57.844  1.00  0.00     0.001 C 
HETATM    3  C   UNL     1     -41.914  60.457 -56.469  1.00  0.00     0.040 C 
HETATM    4  C   UNL     1     -43.109  61.318 -56.036  1.00  0.00     0.206 C 
HETATM    5  N   UNL     1     -44.260  60.982 -56.978  1.00  0.00    -0.065 N 
HETATM    6  H   UNL     1     -45.120  61.437 -56.644  1.00  0.00     0.280 HD
HETATM    7  C   UNL     1     -44.511  59.474 -57.055  1.00  0.00     0.246 C 
HETATM    8  C   UNL     1     -42.574  60.946 -58.798  1.00  0.00     0.033 C 
HETATM    9  C   UNL     1     -43.934  61.520 -58.368  1.00  0.00     0.236 C 
ENDROOT
BRANCH   4  10
HETATM   10  C   UNL     1     -43.482  61.160 -54.545  1.00  0.00     0.155 C 
BRANCH  10  11
HETATM   11  N   UNL     1     -42.309  60.926 -53.706  1.00  0.00    -0.365 N 
HETATM   12  H   UNL     1     -41.476  61.477 -53.898  1.00  0.00     0.161 HD
BRANCH  11  13
HETATM   13  C   UNL     1     -42.317  60.457 -52.418  1.00  0.00     0.172 C 
HETATM   14  S   UNL     1     -43.008  61.239 -51.119  1.00  0.00    -0.041 SA
BRANCH  13  15
HETATM   15  N   UNL     1     -41.653  59.278 -52.203  1.00  0.00    -0.333 N 
HETATM   16  H   UNL     1     -40.656  59.331 -52.400  1.00  0.00     0.168 HD
BRANCH  15  17
HETATM   17  C   UNL     1     -42.098  58.069 -51.627  1.00  0.00     0.035 A 
HETATM   18  C   UNL     1     -41.251  57.188 -50.950  1.00  0.00     0.047 A 
HETATM   19  C   UNL     1     -41.740  55.999 -50.385  1.00  0.00     0.041 A 
HETATM   20  C   UNL     1     -43.092  55.676 -50.531  1.00  0.00     0.018 A 
HETATM   21  C   UNL     1     -43.935  56.529 -51.247  1.00  0.00     0.003 A 
HETATM   22  C   UNL     1     -43.438  57.714 -51.798  1.00  0.00     0.029 A 
BRANCH  19  23
HETATM   23  C   UNL     1     -40.774  55.142 -49.646  1.00  0.00     0.293 C 
HETATM   24  O   UNL     1     -39.578  55.118 -49.899  1.00  0.00    -0.259 OA
BRANCH  23  25
HETATM   25  O   UNL     1     -41.394  54.466 -48.652  1.00  0.00    -0.323 OA
HETATM   26  C   UNL     1     -40.509  53.765 -47.774  1.00  0.00     0.213 C 
ENDBRANCH  23  25
ENDBRANCH  19  23
ENDBRANCH  15  17
ENDBRANCH  13  15
ENDBRANCH  11  13
ENDBRANCH  10  11
ENDBRANCH   4  10
BRANCH   1  27
HETATM   27  C   UNL     1     -43.149  57.381 -57.383  1.00  0.00     0.038 C 
HETATM   28  N   UNL     1     -43.476  56.192 -57.995  1.00  0.00    -0.277 N 
HETATM   29  C   UNL     1     -44.268  55.906 -59.168  1.00  0.00     0.179 C 
HETATM   30  N   UNL     1     -42.934  55.122 -57.384  1.00  0.00    -0.172 NA
HETATM   31  C   UNL     1     -42.408  55.581 -56.245  1.00  0.00     0.089 C 
HETATM   32  C   UNL     1     -42.536  56.987 -56.200  1.00  0.00     0.061 C 
BRANCH  31  33
HETATM   33  C   UNL     1     -41.750  54.716 -55.270  1.00  0.00    -0.005 A 
HETATM   34  C   UNL     1     -42.364  54.414 -54.054  1.00  0.00     0.016 A 
HETATM   35  C   UNL     1     -41.769  53.514 -53.154  1.00  0.00     0.030 A 
HETATM   36  C   UNL     1     -40.533  52.899 -53.418  1.00  0.00     0.029 A 
HETATM   37  C   UNL     1     -39.925  53.239 -54.639  1.00  0.00     0.030 A 
HETATM   38  C   UNL     1     -40.515  54.127 -55.550  1.00  0.00     0.016 A 
BRANCH  36  39
HETATM   39  N   UNL     1     -39.955  51.963 -52.555  1.00  0.00    -0.390 N 
HETATM   40  C   UNL     1     -39.665  50.616 -53.041  1.00  0.00     0.149 C 
HETATM   41  C   UNL     1     -40.277  52.059 -51.130  1.00  0.00     0.149 C 
ENDBRANCH  36  39
ENDBRANCH  31  33
ENDBRANCH   1  27
TORSDOF 10
ENDMDL
MODEL 6
REMARK VINA RESULT:      -6.8      2.385      3.581
REMARK  10 active torsions:
REMARK  status: ('A' for Active; 'I' for Inactive)
REMARK    1  A    between atoms: C_4  and  C_5 
REMARK    2  A    between atoms: C_8  and  N_9 
REMARK    3  A    between atoms: C_15  and  C_16 
REMARK    4  A    between atoms: C_19  and  C_20 
REMARK    5  A    between atoms: C_20  and  N_21 
REMARK    6  A    between atoms: N_21  and  C_22 
REMARK    7  A    between atoms: C_22  and  N_23 
REMARK    8  A    between atoms: N_23  and  C_24 
REMARK    9  A    between atoms: C_26  and  C_27 
REMARK   10  A    between atoms: C_27  and  O_28 
ROOT
HETATM    1  C   UNL     1     -44.516  58.972 -56.835  1.00  0.00     0.067 C 
HETATM    2  C   UNL     1     -43.683  60.195 -56.411  1.00  0.00     0.001 C 
HETATM    3  C   UNL     1     -43.665  60.363 -54.878  1.00  0.00     0.040 C 
HETATM    4  C   UNL     1     -45.066  60.648 -54.316  1.00  0.00     0.206 C 
HETATM    5  N   UNL     1     -46.058  60.360 -55.437  1.00  0.00    -0.065 N 
HETATM    6  H   UNL     1     -47.017  60.409 -55.068  1.00  0.00     0.280 HD
HETATM    7  C   UNL     1     -45.846  58.970 -56.043  1.00  0.00     0.246 C 
HETATM    8  C   UNL     1     -44.428  61.439 -56.965  1.00  0.00     0.033 C 
HETATM    9  C   UNL     1     -45.900  61.421 -56.521  1.00  0.00     0.236 C 
ENDROOT
BRANCH   4  10
HETATM   10  C   UNL     1     -45.382  59.876 -53.016  1.00  0.00     0.155 C 
BRANCH  10  11
HETATM   11  N   UNL     1     -45.144  60.685 -51.823  1.00  0.00    -0.365 N 
HETATM   12  H   UNL     1     -45.805  60.598 -51.056  1.00  0.00     0.161 HD
BRANCH  11  13
HETATM   13  C   UNL     1     -43.928  61.151 -51.392  1.00  0.00     0.172 C 
HETATM   14  S   UNL     1     -43.423  62.736 -51.484  1.00  0.00    -0.041 SA
BRANCH  13  15
HETATM   15  N   UNL     1     -43.062  60.208 -50.904  1.00  0.00    -0.333 N 
HETATM   16  H   UNL     1     -43.022  60.181 -49.887  1.00  0.00     0.168 HD
BRANCH  15  17
HETATM   17  C   UNL     1     -42.339  59.196 -51.572  1.00  0.00     0.035 A 
HETATM   18  C   UNL     1     -42.512  57.835 -51.311  1.00  0.00     0.047 A 
HETATM   19  C   UNL     1     -41.777  56.863 -52.006  1.00  0.00     0.041 A 
HETATM   20  C   UNL     1     -40.832  57.264 -52.954  1.00  0.00     0.018 A 
HETATM   21  C   UNL     1     -40.620  58.625 -53.186  1.00  0.00     0.003 A 
HETATM   22  C   UNL     1     -41.364  59.585 -52.493  1.00  0.00     0.029 A 
BRANCH  19  23
HETATM   23  C   UNL     1     -42.057  55.435 -51.692  1.00  0.00     0.293 C 
HETATM   24  O   UNL     1     -41.187  54.647 -51.348  1.00  0.00    -0.259 OA
BRANCH  23  25
HETATM   25  O   UNL     1     -43.381  55.172 -51.786  1.00  0.00    -0.323 OA
HETATM   26  C   UNL     1     -43.924  54.474 -50.662  1.00  0.00     0.213 C 
ENDBRANCH  23  25
ENDBRANCH  19  23
ENDBRANCH  15  17
ENDBRANCH  13  15
ENDBRANCH  11  13
ENDBRANCH  10  11
ENDBRANCH   4  10
BRANCH   1  27
HETATM   27  C   UNL     1     -43.917  57.595 -56.901  1.00  0.00     0.038 C 
HETATM   28  N   UNL     1     -43.719  56.725 -57.950  1.00  0.00    -0.277 N 
HETATM   29  C   UNL     1     -44.180  56.757 -59.318  1.00  0.00     0.179 C 
HETATM   30  N   UNL     1     -42.939  55.679 -57.622  1.00  0.00    -0.172 NA
HETATM   31  C   UNL     1     -42.779  55.745 -56.297  1.00  0.00     0.089 C 
HETATM   32  C   UNL     1     -43.389  56.920 -55.807  1.00  0.00     0.061 C 
BRANCH  31  33
HETATM   33  C   UNL     1     -42.016  54.756 -55.540  1.00  0.00    -0.005 A 
HETATM   34  C   UNL     1     -42.656  53.681 -54.922  1.00  0.00     0.016 A 
HETATM   35  C   UNL     1     -41.912  52.686 -54.267  1.00  0.00     0.030 A 
HETATM   36  C   UNL     1     -40.510  52.732 -54.182  1.00  0.00     0.029 A 
HETATM   37  C   UNL     1     -39.893  53.837 -54.793  1.00  0.00     0.030 A 
HETATM   38  C   UNL     1     -40.625  54.831 -55.459  1.00  0.00     0.016 A 
BRANCH  36  39
HETATM   39  N   UNL     1     -39.756  51.721 -53.578  1.00  0.00    -0.390 N 
HETATM   40  C   UNL     1     -39.755  50.378 -54.155  1.00  0.00     0.149 C 
HETATM   41  C   UNL     1     -39.574  51.779 -52.126  1.00  0.00     0.149 C 
ENDBRANCH  36  39
ENDBRANCH  31  33
ENDBRANCH   1  27
TORSDOF 10
ENDMDL
MODEL 7
REMARK VINA RESULT:      -6.8      3.290      6.359
REMARK  10 active torsions:
REMARK  status: ('A' for Active; 'I' for Inactive)
REMARK    1  A    between atoms: C_4  and  C_5 
REMARK    2  A    between atoms: C_8  and  N_9 
REMARK    3  A    between atoms: C_15  and  C_16 
REMARK    4  A    between atoms: C_19  and  C_20 
REMARK    5  A    between atoms: C_20  and  N_21 
REMARK    6  A    between atoms: N_21  and  C_22 
REMARK    7  A    between atoms: C_22  and  N_23 
REMARK    8  A    between atoms: N_23  and  C_24 
REMARK    9  A    between atoms: C_26  and  C_27 
REMARK   10  A    between atoms: C_27  and  O_28 
ROOT
HETATM    1  C   UNL     1     -43.713  58.851 -54.345  1.00  0.00     0.067 C 
HETATM    2  C   UNL     1     -44.400  58.486 -55.674  1.00  0.00     0.001 C 
HETATM    3  C   UNL     1     -43.506  58.823 -56.885  1.00  0.00     0.040 C 
HETATM    4  C   UNL     1     -43.241  60.331 -56.999  1.00  0.00     0.206 C 
HETATM    5  N   UNL     1     -43.702  60.961 -55.689  1.00  0.00    -0.065 N 
HETATM    6  H   UNL     1     -43.422  61.951 -55.668  1.00  0.00     0.280 HD
HETATM    7  C   UNL     1     -43.088  60.261 -54.474  1.00  0.00     0.246 C 
HETATM    8  C   UNL     1     -45.639  59.414 -55.790  1.00  0.00     0.033 C 
HETATM    9  C   UNL     1     -45.223  60.884 -55.612  1.00  0.00     0.236 C 
ENDROOT
BRANCH   4  10
HETATM   10  C   UNL     1     -41.779  60.680 -57.357  1.00  0.00     0.155 C 
BRANCH  10  11
HETATM   11  N   UNL     1     -41.396  60.165 -58.669  1.00  0.00    -0.365 N 
HETATM   12  H   UNL     1     -40.920  59.267 -58.702  1.00  0.00     0.161 HD
BRANCH  11  13
HETATM   13  C   UNL     1     -42.008  60.455 -59.861  1.00  0.00     0.172 C 
HETATM   14  S   UNL     1     -42.406  61.986 -60.385  1.00  0.00    -0.041 SA
BRANCH  13  15
HETATM   15  N   UNL     1     -42.357  59.381 -60.636  1.00  0.00    -0.333 N 
HETATM   16  H   UNL     1     -42.015  59.440 -61.593  1.00  0.00     0.168 HD
BRANCH  15  17
HETATM   17  C   UNL     1     -42.982  58.164 -60.285  1.00  0.00     0.035 A 
HETATM   18  C   UNL     1     -44.365  58.031 -60.138  1.00  0.00     0.047 A 
HETATM   19  C   UNL     1     -44.943  56.799 -59.796  1.00  0.00     0.041 A 
HETATM   20  C   UNL     1     -44.119  55.693 -59.567  1.00  0.00     0.018 A 
HETATM   21  C   UNL     1     -42.733  55.831 -59.666  1.00  0.00     0.003 A 
HETATM   22  C   UNL     1     -42.169  57.062 -60.015  1.00  0.00     0.029 A 
BRANCH  19  23
HETATM   23  C   UNL     1     -46.427  56.739 -59.702  1.00  0.00     0.293 C 
HETATM   24  O   UNL     1     -47.065  57.349 -58.855  1.00  0.00    -0.259 OA
BRANCH  23  25
HETATM   25  O   UNL     1     -46.943  55.982 -60.698  1.00  0.00    -0.323 OA
HETATM   26  C   UNL     1     -47.831  56.683 -61.572  1.00  0.00     0.213 C 
ENDBRANCH  23  25
ENDBRANCH  19  23
ENDBRANCH  15  17
ENDBRANCH  13  15
ENDBRANCH  11  13
ENDBRANCH  10  11
ENDBRANCH   4  10
BRANCH   1  27
HETATM   27  C   UNL     1     -42.779  57.899 -53.654  1.00  0.00     0.038 C 
HETATM   28  N   UNL     1     -42.084  57.987 -52.468  1.00  0.00    -0.277 N 
HETATM   29  C   UNL     1     -41.870  59.094 -51.565  1.00  0.00     0.179 C 
HETATM   30  N   UNL     1     -41.534  56.817 -52.095  1.00  0.00    -0.172 NA
HETATM   31  C   UNL     1     -41.692  55.993 -53.136  1.00  0.00     0.089 C 
HETATM   32  C   UNL     1     -42.452  56.637 -54.136  1.00  0.00     0.061 C 
BRANCH  31  33
HETATM   33  C   UNL     1     -41.192  54.621 -53.144  1.00  0.00    -0.005 A 
HETATM   34  C   UNL     1     -40.958  53.952 -54.346  1.00  0.00     0.016 A 
HETATM   35  C   UNL     1     -40.396  52.665 -54.352  1.00  0.00     0.030 A 
HETATM   36  C   UNL     1     -40.069  51.984 -53.166  1.00  0.00     0.029 A 
HETATM   37  C   UNL     1     -40.337  52.671 -51.969  1.00  0.00     0.030 A 
HETATM   38  C   UNL     1     -40.887  53.961 -51.951  1.00  0.00     0.016 A 
BRANCH  36  39
HETATM   39  N   UNL     1     -39.463  50.724 -53.161  1.00  0.00    -0.390 N 
HETATM   40  C   UNL     1     -39.487  49.907 -54.373  1.00  0.00     0.149 C 
HETATM   41  C   UNL     1     -39.451  49.977 -51.902  1.00  0.00     0.149 C 
ENDBRANCH  36  39
ENDBRANCH  31  33
ENDBRANCH   1  27
TORSDOF 10
ENDMDL
MODEL 8
REMARK VINA RESULT:      -6.6      1.777      2.728
REMARK  10 active torsions:
REMARK  status: ('A' for Active; 'I' for Inactive)
REMARK    1  A    between atoms: C_4  and  C_5 
REMARK    2  A    between atoms: C_8  and  N_9 
REMARK    3  A    between atoms: C_15  and  C_16 
REMARK    4  A    between atoms: C_19  and  C_20 
REMARK    5  A    between atoms: C_20  and  N_21 
REMARK    6  A    between atoms: N_21  and  C_22 
REMARK    7  A    between atoms: C_22  and  N_23 
REMARK    8  A    between atoms: N_23  and  C_24 
REMARK    9  A    between atoms: C_26  and  C_27 
REMARK   10  A    between atoms: C_27  and  O_28 
ROOT
HETATM    1  C   UNL     1     -44.024  56.207 -58.560  1.00  0.00     0.067 C 
HETATM    2  C   UNL     1     -43.577  56.447 -60.014  1.00  0.00     0.001 C 
HETATM    3  C   UNL     1     -43.523  57.952 -60.347  1.00  0.00     0.040 C 
HETATM    4  C   UNL     1     -44.909  58.608 -60.265  1.00  0.00     0.206 C 
HETATM    5  N   UNL     1     -45.829  57.608 -59.575  1.00  0.00    -0.065 N 
HETATM    6  H   UNL     1     -46.736  58.056 -59.379  1.00  0.00     0.280 HD
HETATM    7  C   UNL     1     -45.242  57.110 -58.253  1.00  0.00     0.246 C 
HETATM    8  C   UNL     1     -44.695  55.854 -60.913  1.00  0.00     0.033 C 
HETATM    9  C   UNL     1     -46.064  56.426 -60.510  1.00  0.00     0.236 C 
ENDROOT
BRANCH   4  10
HETATM   10  C   UNL     1     -44.900  59.994 -59.582  1.00  0.00     0.155 C 
BRANCH  10  11
HETATM   11  N   UNL     1     -45.621  59.987 -58.311  1.00  0.00    -0.365 N 
HETATM   12  H   UNL     1     -46.152  59.152 -58.076  1.00  0.00     0.161 HD
BRANCH  11  13
HETATM   13  C   UNL     1     -45.292  60.708 -57.192  1.00  0.00     0.172 C 
HETATM   14  S   UNL     1     -44.338  62.074 -57.180  1.00  0.00    -0.041 SA
BRANCH  13  15
HETATM   15  N   UNL     1     -45.752  60.212 -56.000  1.00  0.00    -0.333 N 
HETATM   16  H   UNL     1     -46.749  60.356 -55.857  1.00  0.00     0.168 HD
BRANCH  15  17
HETATM   17  C   UNL     1     -45.102  59.425 -55.025  1.00  0.00     0.035 A 
HETATM   18  C   UNL     1     -44.132  59.932 -54.157  1.00  0.00     0.047 A 
HETATM   19  C   UNL     1     -43.518  59.114 -53.196  1.00  0.00     0.041 A 
HETATM   20  C   UNL     1     -43.860  57.760 -53.128  1.00  0.00     0.018 A 
HETATM   21  C   UNL     1     -44.794  57.236 -54.024  1.00  0.00     0.003 A 
HETATM   22  C   UNL     1     -45.405  58.063 -54.972  1.00  0.00     0.029 A 
BRANCH  19  23
HETATM   23  C   UNL     1     -42.526  59.748 -52.286  1.00  0.00     0.293 C 
HETATM   24  O   UNL     1     -42.736  59.927 -51.094  1.00  0.00    -0.259 OA
BRANCH  23  25
HETATM   25  O   UNL     1     -41.379  60.029 -52.945  1.00  0.00    -0.323 OA
HETATM   26  C   UNL     1     -40.537  58.896 -53.174  1.00  0.00     0.213 C 
ENDBRANCH  23  25
ENDBRANCH  19  23
ENDBRANCH  15  17
ENDBRANCH  13  15
ENDBRANCH  11  13
ENDBRANCH  10  11
ENDBRANCH   4  10
BRANCH   1  27
HETATM   27  C   UNL     1     -43.040  56.208 -57.424  1.00  0.00     0.038 C 
HETATM   28  N   UNL     1     -42.349  57.225 -56.804  1.00  0.00    -0.277 N 
HETATM   29  C   UNL     1     -42.189  58.619 -57.145  1.00  0.00     0.179 C 
HETATM   30  N   UNL     1     -41.739  56.829 -55.671  1.00  0.00    -0.172 NA
HETATM   31  C   UNL     1     -41.857  55.498 -55.640  1.00  0.00     0.089 C 
HETATM   32  C   UNL     1     -42.651  55.070 -56.727  1.00  0.00     0.061 C 
BRANCH  31  33
HETATM   33  C   UNL     1     -41.288  54.676 -54.576  1.00  0.00    -0.005 A 
HETATM   34  C   UNL     1     -41.452  55.027 -53.236  1.00  0.00     0.016 A 
HETATM   35  C   UNL     1     -40.978  54.190 -52.213  1.00  0.00     0.030 A 
HETATM   36  C   UNL     1     -40.302  52.987 -52.481  1.00  0.00     0.029 A 
HETATM   37  C   UNL     1     -40.129  52.670 -53.840  1.00  0.00     0.030 A 
HETATM   38  C   UNL     1     -40.609  53.492 -54.870  1.00  0.00     0.016 A 
BRANCH  36  39
HETATM   39  N   UNL     1     -39.871  52.121 -51.472  1.00  0.00    -0.390 N 
HETATM   40  C   UNL     1     -39.489  50.752 -51.811  1.00  0.00     0.149 C 
HETATM   41  C   UNL     1     -40.430  52.302 -50.131  1.00  0.00     0.149 C 
ENDBRANCH  36  39
ENDBRANCH  31  33
ENDBRANCH   1  27
TORSDOF 10
ENDMDL
MODEL 9
REMARK VINA RESULT:      -6.5      3.297      6.736
REMARK  10 active torsions:
REMARK  status: ('A' for Active; 'I' for Inactive)
REMARK    1  A    between atoms: C_4  and  C_5 
REMARK    2  A    between atoms: C_8  and  N_9 
REMARK    3  A    between atoms: C_15  and  C_16 
REMARK    4  A    between atoms: C_19  and  C_20 
REMARK    5  A    between atoms: C_20  and  N_21 
REMARK    6  A    between atoms: N_21  and  C_22 
REMARK    7  A    between atoms: C_22  and  N_23 
REMARK    8  A    between atoms: N_23  and  C_24 
REMARK    9  A    between atoms: C_26  and  C_27 
REMARK   10  A    between atoms: C_27  and  O_28 
ROOT
HETATM    1  C   UNL     1     -43.279  59.064 -52.679  1.00  0.00     0.067 C 
HETATM    2  C   UNL     1     -44.496  58.715 -53.555  1.00  0.00     0.001 C 
HETATM    3  C   UNL     1     -44.136  58.730 -55.055  1.00  0.00     0.040 C 
HETATM    4  C   UNL     1     -43.719  60.130 -55.529  1.00  0.00     0.206 C 
HETATM    5  N   UNL     1     -43.502  60.974 -54.279  1.00  0.00    -0.065 N 
HETATM    6  H   UNL     1     -43.094  61.881 -54.544  1.00  0.00     0.280 HD
HETATM    7  C   UNL     1     -42.558  60.291 -53.287  1.00  0.00     0.246 C 
HETATM    8  C   UNL     1     -45.519  59.865 -53.352  1.00  0.00     0.033 C 
HETATM    9  C   UNL     1     -44.851  61.225 -53.613  1.00  0.00     0.236 C 
ENDROOT
BRANCH   4  10
HETATM   10  C   UNL     1     -42.498  60.126 -56.476  1.00  0.00     0.155 C 
BRANCH  10  11
HETATM   11  N   UNL     1     -42.796  59.491 -57.757  1.00  0.00    -0.365 N 
HETATM   12  H   UNL     1     -43.513  58.771 -57.770  1.00  0.00     0.161 HD
BRANCH  11  13
HETATM   13  C   UNL     1     -42.621  60.052 -58.996  1.00  0.00     0.172 C 
HETATM   14  S   UNL     1     -41.632  61.352 -59.327  1.00  0.00    -0.041 SA
BRANCH  13  15
HETATM   15  N   UNL     1     -43.372  59.518 -60.010  1.00  0.00    -0.333 N 
HETATM   16  H   UNL     1     -43.038  59.768 -60.939  1.00  0.00     0.168 HD
BRANCH  15  17
HETATM   17  C   UNL     1     -44.426  58.580 -59.972  1.00  0.00     0.035 A 
HETATM   18  C   UNL     1     -44.311  57.280 -60.471  1.00  0.00     0.047 A 
HETATM   19  C   UNL     1     -45.384  56.378 -60.403  1.00  0.00     0.041 A 
HETATM   20  C   UNL     1     -46.600  56.798 -59.857  1.00  0.00     0.018 A 
HETATM   21  C   UNL     1     -46.738  58.111 -59.400  1.00  0.00     0.003 A 
HETATM   22  C   UNL     1     -45.659  58.998 -59.465  1.00  0.00     0.029 A 
BRANCH  19  23
HETATM   23  C   UNL     1     -45.158  55.002 -60.921  1.00  0.00     0.293 C 
HETATM   24  O   UNL     1     -44.908  54.765 -62.095  1.00  0.00    -0.259 OA
BRANCH  23  25
HETATM   25  O   UNL     1     -45.210  54.095 -59.918  1.00  0.00    -0.323 OA
HETATM   26  C   UNL     1     -44.098  54.145 -59.020  1.00  0.00     0.213 C 
ENDBRANCH  23  25
ENDBRANCH  19  23
ENDBRANCH  15  17
ENDBRANCH  13  15
ENDBRANCH  11  13
ENDBRANCH  10  11
ENDBRANCH   4  10
BRANCH   1  27
HETATM   27  C   UNL     1     -42.297  58.015 -52.239  1.00  0.00     0.038 C 
HETATM   28  N   UNL     1     -41.462  57.933 -51.147  1.00  0.00    -0.277 N 
HETATM   29  C   UNL     1     -41.106  58.906 -50.141  1.00  0.00     0.179 C 
HETATM   30  N   UNL     1     -40.907  56.716 -51.002  1.00  0.00    -0.172 NA
HETATM   31  C   UNL     1     -41.215  56.041 -52.114  1.00  0.00     0.089 C 
HETATM   32  C   UNL     1     -42.070  56.825 -52.920  1.00  0.00     0.061 C 
BRANCH  31  33
HETATM   33  C   UNL     1     -40.762  54.675 -52.364  1.00  0.00    -0.005 A 
HETATM   34  C   UNL     1     -40.484  53.810 -51.306  1.00  0.00     0.016 A 
HETATM   35  C   UNL     1     -40.131  52.472 -51.548  1.00  0.00     0.030 A 
HETATM   36  C   UNL     1     -40.018  51.950 -52.848  1.00  0.00     0.029 A 
HETATM   37  C   UNL     1     -40.280  52.850 -53.896  1.00  0.00     0.030 A 
HETATM   38  C   UNL     1     -40.644  54.185 -53.666  1.00  0.00     0.016 A 
BRANCH  36  39
HETATM   39  N   UNL     1     -39.717  50.609 -53.101  1.00  0.00    -0.390 N 
HETATM   40  C   UNL     1     -40.172  49.990 -54.345  1.00  0.00     0.149 C 
HETATM   41  C   UNL     1     -39.610  49.705 -51.955  1.00  0.00     0.149 C 
ENDBRANCH  36  39
ENDBRANCH  31  33
ENDBRANCH   1  27
TORSDOF 10
ENDMDL
MODEL 10
REMARK VINA RESULT:      -6.4      3.785      6.844
REMARK  10 active torsions:
REMARK  status: ('A' for Active; 'I' for Inactive)
REMARK    1  A    between atoms: C_4  and  C_5 
REMARK    2  A    between atoms: C_8  and  N_9 
REMARK    3  A    between atoms: C_15  and  C_16 
REMARK    4  A    between atoms: C_19  and  C_20 
REMARK    5  A    between atoms: C_20  and  N_21 
REMARK    6  A    between atoms: N_21  and  C_22 
REMARK    7  A    between atoms: C_22  and  N_23 
REMARK    8  A    between atoms: N_23  and  C_24 
REMARK    9  A    between atoms: C_26  and  C_27 
REMARK   10  A    between atoms: C_27  and  O_28 
ROOT
HETATM    1  C   UNL     1     -42.936  59.102 -53.354  1.00  0.00     0.067 C 
HETATM    2  C   UNL     1     -44.241  59.581 -54.017  1.00  0.00     0.001 C 
HETATM    3  C   UNL     1     -44.273  59.231 -55.519  1.00  0.00     0.040 C 
HETATM    4  C   UNL     1     -43.166  59.955 -56.299  1.00  0.00     0.206 C 
HETATM    5  N   UNL     1     -42.208  60.539 -55.267  1.00  0.00    -0.065 N 
HETATM    6  H   UNL     1     -41.380  60.919 -55.745  1.00  0.00     0.280 HD
HETATM    7  C   UNL     1     -41.742  59.484 -54.261  1.00  0.00     0.246 C 
HETATM    8  C   UNL     1     -44.221  61.131 -53.943  1.00  0.00     0.033 C 
HETATM    9  C   UNL     1     -42.909  61.677 -54.531  1.00  0.00     0.236 C 
ENDROOT
BRANCH   4  10
HETATM   10  C   UNL     1     -42.459  59.063 -57.344  1.00  0.00     0.155 C 
BRANCH  10  11
HETATM   11  N   UNL     1     -42.957  57.690 -57.325  1.00  0.00    -0.365 N 
HETATM   12  H   UNL     1     -43.263  57.313 -56.431  1.00  0.00     0.161 HD
BRANCH  11  13
HETATM   13  C   UNL     1     -43.530  57.024 -58.377  1.00  0.00     0.172 C 
HETATM   14  S   UNL     1     -42.698  56.380 -59.670  1.00  0.00    -0.041 SA
BRANCH  13  15
HETATM   15  N   UNL     1     -44.898  56.944 -58.365  1.00  0.00    -0.333 N 
HETATM   16  H   UNL     1     -45.252  56.090 -57.938  1.00  0.00     0.168 HD
BRANCH  15  17
HETATM   17  C   UNL     1     -45.874  57.902 -58.716  1.00  0.00     0.035 A 
HETATM   18  C   UNL     1     -45.939  58.499 -59.977  1.00  0.00     0.047 A 
HETATM   19  C   UNL     1     -46.933  59.441 -60.284  1.00  0.00     0.041 A 
HETATM   20  C   UNL     1     -47.853  59.813 -59.300  1.00  0.00     0.018 A 
HETATM   21  C   UNL     1     -47.764  59.256 -58.022  1.00  0.00     0.003 A 
HETATM   22  C   UNL     1     -46.775  58.312 -57.731  1.00  0.00     0.029 A 
BRANCH  19  23
HETATM   23  C   UNL     1     -46.952  59.994 -61.665  1.00  0.00     0.293 C 
HETATM   24  O   UNL     1     -46.068  60.717 -62.105  1.00  0.00    -0.259 OA
BRANCH  23  25
HETATM   25  O   UNL     1     -48.027  59.541 -62.350  1.00  0.00    -0.323 OA
HETATM   26  C   UNL     1     -48.863  60.570 -62.885  1.00  0.00     0.213 C 
ENDBRANCH  23  25
ENDBRANCH  19  23
ENDBRANCH  15  17
ENDBRANCH  13  15
ENDBRANCH  11  13
ENDBRANCH  10  11
ENDBRANCH   4  10
BRANCH   1  27
HETATM   27  C   UNL     1     -42.791  57.706 -52.818  1.00  0.00     0.038 C 
HETATM   28  N   UNL     1     -43.542  56.980 -51.920  1.00  0.00    -0.277 N 
HETATM   29  C   UNL     1     -44.625  57.367 -51.047  1.00  0.00     0.179 C 
HETATM   30  N   UNL     1     -43.201  55.679 -51.884  1.00  0.00    -0.172 NA
HETATM   31  C   UNL     1     -42.085  55.575 -52.612  1.00  0.00     0.089 C 
HETATM   32  C   UNL     1     -41.787  56.824 -53.200  1.00  0.00     0.061 C 
BRANCH  31  33
HETATM   33  C   UNL     1     -41.370  54.314 -52.790  1.00  0.00    -0.005 A 
HETATM   34  C   UNL     1     -40.673  53.731 -51.732  1.00  0.00     0.016 A 
HETATM   35  C   UNL     1     -40.058  52.478 -51.882  1.00  0.00     0.030 A 
HETATM   36  C   UNL     1     -40.091  51.767 -53.095  1.00  0.00     0.029 A 
HETATM   37  C   UNL     1     -40.779  52.388 -54.152  1.00  0.00     0.030 A 
HETATM   38  C   UNL     1     -41.407  53.634 -54.010  1.00  0.00     0.016 A 
BRANCH  36  39
HETATM   39  N   UNL     1     -39.527  50.497 -53.242  1.00  0.00    -0.390 N 
HETATM   40  C   UNL     1     -39.541  49.849 -54.552  1.00  0.00     0.149 C 
HETATM   41  C   UNL     1     -39.577  49.590 -52.094  1.00  0.00     0.149 C 
ENDBRANCH  36  39
ENDBRANCH  31  33
ENDBRANCH   1  27
TORSDOF 10
ENDMDL
