MODEL 1
REMARK VINA RESULT:      -8.7      0.000      0.000
REMARK  2 active torsions:
REMARK  status: ('A' for Active; 'I' for Inactive)
REMARK    1  A    between atoms: C_7  and  C_8 
REMARK    2  A    between atoms: C_8  and  O_9 
ROOT
HETATM    1  C   UNL     1     -42.708  55.268 -52.049  1.00  0.00     0.199 A 
HETATM    2  C   UNL     1     -43.655  55.662 -50.868  1.00  0.00     0.266 A 
HETATM    3  O   UNL     1     -44.459  54.943 -50.290  1.00  0.00    -0.269 OA
HETATM    4  N   UNL     1     -43.474  57.022 -50.621  1.00  0.00    -0.323 N 
HETATM    5  C   UNL     1     -42.540  57.567 -51.491  1.00  0.00     0.045 A 
HETATM    6  C   UNL     1     -42.041  56.587 -52.354  1.00  0.00     0.017 A 
HETATM    7  C   UNL     1     -42.140  58.886 -51.551  1.00  0.00     0.030 A 
HETATM    8  C   UNL     1     -41.200  59.229 -52.526  1.00  0.00     0.002 A 
HETATM    9  C   UNL     1     -40.692  58.259 -53.407  1.00  0.00     0.001 A 
HETATM   10  C   UNL     1     -41.114  56.928 -53.329  1.00  0.00     0.013 A 
HETATM   11  H   UNL     1     -43.998  57.528 -49.925  1.00  0.00     0.169 HD
ENDROOT
BRANCH   1  12
HETATM   12  C   UNL     1     -41.622  54.278 -51.685  1.00  0.00     0.025 A 
HETATM   13  C   UNL     1     -40.983  54.175 -50.446  1.00  0.00     0.016 A 
HETATM   14  C   UNL     1     -41.161  54.939 -49.181  1.00  0.00     0.069 C 
HETATM   15  N   UNL     1     -40.055  53.170 -50.525  1.00  0.00    -0.359 N 
HETATM   16  H   UNL     1     -39.444  52.882 -49.773  1.00  0.00     0.166 HD
HETATM   17  C   UNL     1     -40.061  52.598 -51.770  1.00  0.00     0.043 A 
HETATM   18  C   UNL     1     -41.034  53.256 -52.524  1.00  0.00     0.003 A 
HETATM   19  C   UNL     1     -39.276  51.549 -52.271  1.00  0.00     0.030 A 
HETATM   20  C   UNL     1     -41.226  52.822 -53.856  1.00  0.00     0.014 A 
HETATM   21  C   UNL     1     -40.448  51.778 -54.375  1.00  0.00     0.001 A 
HETATM   22  C   UNL     1     -39.486  51.153 -53.592  1.00  0.00     0.002 A 
ENDBRANCH   1  12
BRANCH   1  23
HETATM   23  O   UNL     1     -43.497  54.849 -53.160  1.00  0.00    -0.371 OA
HETATM   24  H   UNL     1     -43.665  55.672 -53.654  1.00  0.00     0.212 HD
ENDBRANCH   1  23
TORSDOF 2
ENDMDL
MODEL 2
REMARK VINA RESULT:      -8.6      1.558      2.436
REMARK  2 active torsions:
REMARK  status: ('A' for Active; 'I' for Inactive)
REMARK    1  A    between atoms: C_7  and  C_8 
REMARK    2  A    between atoms: C_8  and  O_9 
ROOT
HETATM    1  C   UNL     1     -42.810  55.724 -52.486  1.00  0.00     0.199 A 
HETATM    2  C   UNL     1     -43.114  55.465 -50.973  1.00  0.00     0.266 A 
HETATM    3  O   UNL     1     -43.896  54.652 -50.502  1.00  0.00    -0.269 OA
HETATM    4  N   UNL     1     -42.373  56.385 -50.234  1.00  0.00    -0.323 N 
HETATM    5  C   UNL     1     -41.633  57.215 -51.066  1.00  0.00     0.045 A 
HETATM    6  C   UNL     1     -41.836  56.874 -52.407  1.00  0.00     0.017 A 
HETATM    7  C   UNL     1     -40.814  58.255 -50.678  1.00  0.00     0.030 A 
HETATM    8  C   UNL     1     -40.179  58.983 -51.686  1.00  0.00     0.002 A 
HETATM    9  C   UNL     1     -40.376  58.660 -53.040  1.00  0.00     0.001 A 
HETATM   10  C   UNL     1     -41.213  57.602 -53.410  1.00  0.00     0.013 A 
HETATM   11  H   UNL     1     -42.420  56.448 -49.230  1.00  0.00     0.169 HD
ENDROOT
BRANCH   1  12
HETATM   12  C   UNL     1     -42.114  54.582 -53.196  1.00  0.00     0.025 A 
HETATM   13  C   UNL     1     -42.244  54.251 -54.548  1.00  0.00     0.016 A 
HETATM   14  C   UNL     1     -43.037  54.877 -55.641  1.00  0.00     0.069 C 
HETATM   15  N   UNL     1     -41.467  53.151 -54.797  1.00  0.00    -0.359 N 
HETATM   16  H   UNL     1     -41.376  52.693 -55.693  1.00  0.00     0.166 HD
HETATM   17  C   UNL     1     -40.820  52.744 -53.659  1.00  0.00     0.043 A 
HETATM   18  C   UNL     1     -41.191  53.618 -52.636  1.00  0.00     0.003 A 
HETATM   19  C   UNL     1     -39.939  51.669 -53.473  1.00  0.00     0.030 A 
HETATM   20  C   UNL     1     -40.631  53.394 -51.357  1.00  0.00     0.014 A 
HETATM   21  C   UNL     1     -39.752  52.324 -51.151  1.00  0.00     0.001 A 
HETATM   22  C   UNL     1     -39.413  51.473 -52.196  1.00  0.00     0.002 A 
ENDBRANCH   1  12
BRANCH   1  23
HETATM   23  O   UNL     1     -44.008  56.139 -53.137  1.00  0.00    -0.371 OA
HETATM   24  H   UNL     1     -44.718  55.727 -52.612  1.00  0.00     0.212 HD
ENDBRANCH   1  23
TORSDOF 2
ENDMDL
MODEL 3
REMARK VINA RESULT:      -7.9      1.485      5.070
REMARK  2 active torsions:
REMARK  status: ('A' for Active; 'I' for Inactive)
REMARK    1  A    between atoms: C_7  and  C_8 
REMARK    2  A    between atoms: C_8  and  O_9 
ROOT
HETATM    1  C   UNL     1     -42.446  54.282 -52.288  1.00  0.00     0.199 A 
HETATM    2  C   UNL     1     -43.018  54.424 -53.738  1.00  0.00     0.266 A 
HETATM    3  O   UNL     1     -44.008  55.052 -54.086  1.00  0.00    -0.269 OA
HETATM    4  N   UNL     1     -42.230  53.639 -54.578  1.00  0.00    -0.323 N 
HETATM    5  C   UNL     1     -41.224  52.999 -53.867  1.00  0.00     0.045 A 
HETATM    6  C   UNL     1     -41.287  53.341 -52.512  1.00  0.00     0.017 A 
HETATM    7  C   UNL     1     -40.284  52.125 -54.371  1.00  0.00     0.030 A 
HETATM    8  C   UNL     1     -39.373  51.570 -53.470  1.00  0.00     0.002 A 
HETATM    9  C   UNL     1     -39.425  51.896 -52.104  1.00  0.00     0.001 A 
HETATM   10  C   UNL     1     -40.389  52.783 -51.614  1.00  0.00     0.013 A 
HETATM   11  H   UNL     1     -42.415  53.534 -55.563  1.00  0.00     0.169 HD
ENDROOT
BRANCH   1  12
HETATM   12  C   UNL     1     -41.890  55.562 -51.700  1.00  0.00     0.025 A 
HETATM   13  C   UNL     1     -41.556  55.775 -50.360  1.00  0.00     0.016 A 
HETATM   14  C   UNL     1     -41.624  54.876 -49.175  1.00  0.00     0.069 C 
HETATM   15  N   UNL     1     -41.104  57.061 -50.230  1.00  0.00    -0.359 N 
HETATM   16  H   UNL     1     -40.799  57.486 -49.365  1.00  0.00     0.166 HD
HETATM   17  C   UNL     1     -41.118  57.707 -51.438  1.00  0.00     0.043 A 
HETATM   18  C   UNL     1     -41.595  56.801 -52.387  1.00  0.00     0.003 A 
HETATM   19  C   UNL     1     -40.742  59.021 -51.749  1.00  0.00     0.030 A 
HETATM   20  C   UNL     1     -41.688  57.250 -53.724  1.00  0.00     0.014 A 
HETATM   21  C   UNL     1     -41.320  58.561 -54.053  1.00  0.00     0.001 A 
HETATM   22  C   UNL     1     -40.855  59.434 -53.077  1.00  0.00     0.002 A 
ENDBRANCH   1  12
BRANCH   1  23
HETATM   23  O   UNL     1     -43.426  53.665 -51.458  1.00  0.00    -0.371 OA
HETATM   24  H   UNL     1     -43.268  54.052 -50.578  1.00  0.00     0.212 HD
ENDBRANCH   1  23
TORSDOF 2
ENDMDL
MODEL 4
REMARK VINA RESULT:      -7.8      1.894      5.170
REMARK  2 active torsions:
REMARK  status: ('A' for Active; 'I' for Inactive)
REMARK    1  A    between atoms: C_7  and  C_8 
REMARK    2  A    between atoms: C_8  and  O_9 
ROOT
HETATM    1  C   UNL     1     -42.824  55.337 -53.603  1.00  0.00     0.199 A 
HETATM    2  C   UNL     1     -42.657  56.140 -54.935  1.00  0.00     0.266 A 
HETATM    3  O   UNL     1     -43.317  57.098 -55.311  1.00  0.00    -0.269 OA
HETATM    4  N   UNL     1     -41.646  55.525 -55.672  1.00  0.00    -0.323 N 
HETATM    5  C   UNL     1     -41.138  54.422 -54.999  1.00  0.00     0.045 A 
HETATM    6  C   UNL     1     -41.781  54.258 -53.768  1.00  0.00     0.017 A 
HETATM    7  C   UNL     1     -40.154  53.564 -55.445  1.00  0.00     0.030 A 
HETATM    8  C   UNL     1     -39.809  52.495 -54.615  1.00  0.00     0.002 A 
HETATM    9  C   UNL     1     -40.449  52.310 -53.377  1.00  0.00     0.001 A 
HETATM   10  C   UNL     1     -41.446  53.192 -52.947  1.00  0.00     0.013 A 
HETATM   11  H   UNL     1     -41.369  55.834 -56.590  1.00  0.00     0.169 HD
ENDROOT
BRANCH   1  12
HETATM   12  C   UNL     1     -42.485  56.114 -52.349  1.00  0.00     0.025 A 
HETATM   13  C   UNL     1     -43.021  55.897 -51.076  1.00  0.00     0.016 A 
HETATM   14  C   UNL     1     -44.010  54.901 -50.582  1.00  0.00     0.069 C 
HETATM   15  N   UNL     1     -42.473  56.815 -50.218  1.00  0.00    -0.359 N 
HETATM   16  H   UNL     1     -42.686  56.891 -49.234  1.00  0.00     0.166 HD
HETATM   17  C   UNL     1     -41.587  57.628 -50.876  1.00  0.00     0.043 A 
HETATM   18  C   UNL     1     -41.558  57.217 -52.210  1.00  0.00     0.003 A 
HETATM   19  C   UNL     1     -40.816  58.688 -50.380  1.00  0.00     0.030 A 
HETATM   20  C   UNL     1     -40.696  57.915 -53.085  1.00  0.00     0.014 A 
HETATM   21  C   UNL     1     -39.920  58.980 -52.608  1.00  0.00     0.001 A 
HETATM   22  C   UNL     1     -39.983  59.361 -51.274  1.00  0.00     0.002 A 
ENDBRANCH   1  12
BRANCH   1  23
HETATM   23  O   UNL     1     -44.126  54.759 -53.568  1.00  0.00    -0.371 OA
HETATM   24  H   UNL     1     -44.278  54.576 -52.623  1.00  0.00     0.212 HD
ENDBRANCH   1  23
TORSDOF 2
ENDMDL
MODEL 5
REMARK VINA RESULT:      -7.6      1.995      2.809
REMARK  2 active torsions:
REMARK  status: ('A' for Active; 'I' for Inactive)
REMARK    1  A    between atoms: C_7  and  C_8 
REMARK    2  A    between atoms: C_8  and  O_9 
ROOT
HETATM    1  C   UNL     1     -42.047  55.648 -52.214  1.00  0.00     0.199 A 
HETATM    2  C   UNL     1     -41.191  56.948 -52.379  1.00  0.00     0.266 A 
HETATM    3  O   UNL     1     -40.688  57.622 -51.492  1.00  0.00    -0.269 OA
HETATM    4  N   UNL     1     -41.153  57.255 -53.738  1.00  0.00    -0.323 N 
HETATM    5  C   UNL     1     -41.877  56.331 -54.480  1.00  0.00     0.045 A 
HETATM    6  C   UNL     1     -42.424  55.351 -53.645  1.00  0.00     0.017 A 
HETATM    7  C   UNL     1     -42.078  56.343 -55.844  1.00  0.00     0.030 A 
HETATM    8  C   UNL     1     -42.867  55.326 -56.387  1.00  0.00     0.002 A 
HETATM    9  C   UNL     1     -43.430  54.337 -55.563  1.00  0.00     0.001 A 
HETATM   10  C   UNL     1     -43.215  54.346 -54.181  1.00  0.00     0.013 A 
HETATM   11  H   UNL     1     -40.689  58.071 -54.104  1.00  0.00     0.169 HD
ENDROOT
BRANCH   1  12
HETATM   12  C   UNL     1     -41.285  54.453 -51.683  1.00  0.00     0.025 A 
HETATM   13  C   UNL     1     -40.992  54.194 -50.341  1.00  0.00     0.016 A 
HETATM   14  C   UNL     1     -41.320  54.947 -49.099  1.00  0.00     0.069 C 
HETATM   15  N   UNL     1     -40.277  53.027 -50.275  1.00  0.00    -0.359 N 
HETATM   16  H   UNL     1     -39.929  52.604 -49.426  1.00  0.00     0.166 HD
HETATM   17  C   UNL     1     -40.094  52.498 -51.526  1.00  0.00     0.043 A 
HETATM   18  C   UNL     1     -40.717  53.355 -52.435  1.00  0.00     0.003 A 
HETATM   19  C   UNL     1     -39.423  51.327 -51.907  1.00  0.00     0.030 A 
HETATM   20  C   UNL     1     -40.663  53.001 -53.802  1.00  0.00     0.014 A 
HETATM   21  C   UNL     1     -39.995  51.836 -54.203  1.00  0.00     0.001 A 
HETATM   22  C   UNL     1     -39.382  51.013 -53.266  1.00  0.00     0.002 A 
ENDBRANCH   1  12
BRANCH   1  23
HETATM   23  O   UNL     1     -43.213  55.952 -51.453  1.00  0.00    -0.371 OA
HETATM   24  H   UNL     1     -42.863  56.265 -50.599  1.00  0.00     0.212 HD
ENDBRANCH   1  23
TORSDOF 2
ENDMDL
MODEL 6
REMARK VINA RESULT:      -7.6      2.650      3.303
REMARK  2 active torsions:
REMARK  status: ('A' for Active; 'I' for Inactive)
REMARK    1  A    between atoms: C_7  and  C_8 
REMARK    2  A    between atoms: C_8  and  O_9 
ROOT
HETATM    1  C   UNL     1     -41.807  57.670 -52.211  1.00  0.00     0.199 A 
HETATM    2  C   UNL     1     -40.751  58.639 -52.839  1.00  0.00     0.266 A 
HETATM    3  O   UNL     1     -39.678  58.978 -52.361  1.00  0.00    -0.269 OA
HETATM    4  N   UNL     1     -41.281  59.116 -54.037  1.00  0.00    -0.323 N 
HETATM    5  C   UNL     1     -42.546  58.592 -54.268  1.00  0.00     0.045 A 
HETATM    6  C   UNL     1     -42.914  57.725 -53.235  1.00  0.00     0.017 A 
HETATM    7  C   UNL     1     -43.373  58.871 -55.337  1.00  0.00     0.030 A 
HETATM    8  C   UNL     1     -44.624  58.250 -55.361  1.00  0.00     0.002 A 
HETATM    9  C   UNL     1     -45.014  57.380 -54.328  1.00  0.00     0.001 A 
HETATM   10  C   UNL     1     -44.160  57.115 -53.253  1.00  0.00     0.013 A 
HETATM   11  H   UNL     1     -40.806  59.787 -54.619  1.00  0.00     0.169 HD
ENDROOT
BRANCH   1  12
HETATM   12  C   UNL     1     -41.355  56.230 -52.100  1.00  0.00     0.025 A 
HETATM   13  C   UNL     1     -41.180  55.511 -50.913  1.00  0.00     0.016 A 
HETATM   14  C   UNL     1     -41.378  55.900 -49.490  1.00  0.00     0.069 C 
HETATM   15  N   UNL     1     -40.750  54.251 -51.235  1.00  0.00    -0.359 N 
HETATM   16  H   UNL     1     -40.539  53.521 -50.570  1.00  0.00     0.166 HD
HETATM   17  C   UNL     1     -40.642  54.105 -52.593  1.00  0.00     0.043 A 
HETATM   18  C   UNL     1     -41.020  55.318 -53.172  1.00  0.00     0.003 A 
HETATM   19  C   UNL     1     -40.239  52.989 -53.339  1.00  0.00     0.030 A 
HETATM   20  C   UNL     1     -40.995  55.399 -54.583  1.00  0.00     0.014 A 
HETATM   21  C   UNL     1     -40.591  54.295 -55.345  1.00  0.00     0.001 A 
HETATM   22  C   UNL     1     -40.217  53.107 -54.729  1.00  0.00     0.002 A 
ENDBRANCH   1  12
BRANCH   1  23
HETATM   23  O   UNL     1     -42.257  58.212 -50.973  1.00  0.00    -0.371 OA
HETATM   24  H   UNL     1     -41.945  59.135 -50.990  1.00  0.00     0.212 HD
ENDBRANCH   1  23
TORSDOF 2
ENDMDL
MODEL 7
REMARK VINA RESULT:      -7.4      4.112      6.288
REMARK  2 active torsions:
REMARK  status: ('A' for Active; 'I' for Inactive)
REMARK    1  A    between atoms: C_7  and  C_8 
REMARK    2  A    between atoms: C_8  and  O_9 
ROOT
HETATM    1  C   UNL     1     -42.847  56.992 -54.679  1.00  0.00     0.199 A 
HETATM    2  C   UNL     1     -44.289  56.402 -54.539  1.00  0.00     0.266 A 
HETATM    3  O   UNL     1     -45.337  57.023 -54.433  1.00  0.00    -0.269 OA
HETATM    4  N   UNL     1     -44.171  55.014 -54.487  1.00  0.00    -0.323 N 
HETATM    5  C   UNL     1     -42.842  54.622 -54.567  1.00  0.00     0.045 A 
HETATM    6  C   UNL     1     -42.007  55.738 -54.691  1.00  0.00     0.017 A 
HETATM    7  C   UNL     1     -42.357  53.332 -54.515  1.00  0.00     0.030 A 
HETATM    8  C   UNL     1     -40.972  53.162 -54.587  1.00  0.00     0.002 A 
HETATM    9  C   UNL     1     -40.117  54.271 -54.705  1.00  0.00     0.001 A 
HETATM   10  C   UNL     1     -40.631  55.571 -54.753  1.00  0.00     0.013 A 
HETATM   11  H   UNL     1     -44.960  54.401 -54.364  1.00  0.00     0.169 HD
ENDROOT
BRANCH   1  12
HETATM   12  C   UNL     1     -42.588  57.729 -55.975  1.00  0.00     0.025 A 
HETATM   13  C   UNL     1     -42.236  59.077 -56.100  1.00  0.00     0.016 A 
HETATM   14  C   UNL     1     -42.009  60.133 -55.076  1.00  0.00     0.069 C 
HETATM   15  N   UNL     1     -42.106  59.364 -57.433  1.00  0.00    -0.359 N 
HETATM   16  H   UNL     1     -41.863  60.268 -57.813  1.00  0.00     0.166 HD
HETATM   17  C   UNL     1     -42.352  58.253 -58.197  1.00  0.00     0.043 A 
HETATM   18  C   UNL     1     -42.648  57.206 -57.323  1.00  0.00     0.003 A 
HETATM   19  C   UNL     1     -42.329  58.110 -59.591  1.00  0.00     0.030 A 
HETATM   20  C   UNL     1     -42.929  55.944 -57.894  1.00  0.00     0.014 A 
HETATM   21  C   UNL     1     -42.915  55.782 -59.286  1.00  0.00     0.001 A 
HETATM   22  C   UNL     1     -42.621  56.852 -60.121  1.00  0.00     0.002 A 
ENDBRANCH   1  12
BRANCH   1  23
HETATM   23  O   UNL     1     -42.548  57.771 -53.523  1.00  0.00    -0.371 OA
HETATM   24  H   UNL     1     -42.310  58.645 -53.882  1.00  0.00     0.212 HD
ENDBRANCH   1  23
TORSDOF 2
ENDMDL
MODEL 8
REMARK VINA RESULT:      -7.4      2.531      3.898
REMARK  2 active torsions:
REMARK  status: ('A' for Active; 'I' for Inactive)
REMARK    1  A    between atoms: C_7  and  C_8 
REMARK    2  A    between atoms: C_8  and  O_9 
ROOT
HETATM    1  C   UNL     1     -41.384  57.530 -51.893  1.00  0.00     0.199 A 
HETATM    2  C   UNL     1     -40.768  58.936 -52.200  1.00  0.00     0.266 A 
HETATM    3  O   UNL     1     -39.596  59.199 -52.427  1.00  0.00    -0.269 OA
HETATM    4  N   UNL     1     -41.796  59.873 -52.103  1.00  0.00    -0.323 N 
HETATM    5  C   UNL     1     -42.997  59.265 -51.767  1.00  0.00     0.045 A 
HETATM    6  C   UNL     1     -42.829  57.882 -51.636  1.00  0.00     0.017 A 
HETATM    7  C   UNL     1     -44.209  59.890 -51.558  1.00  0.00     0.030 A 
HETATM    8  C   UNL     1     -45.294  59.086 -51.198  1.00  0.00     0.002 A 
HETATM    9  C   UNL     1     -45.142  57.696 -51.056  1.00  0.00     0.001 A 
HETATM   10  C   UNL     1     -43.903  57.084 -51.271  1.00  0.00     0.013 A 
HETATM   11  H   UNL     1     -41.649  60.862 -52.224  1.00  0.00     0.169 HD
ENDROOT
BRANCH   1  12
HETATM   12  C   UNL     1     -41.348  56.558 -53.053  1.00  0.00     0.025 A 
HETATM   13  C   UNL     1     -41.645  56.855 -54.387  1.00  0.00     0.016 A 
HETATM   14  C   UNL     1     -42.048  58.129 -55.044  1.00  0.00     0.069 C 
HETATM   15  N   UNL     1     -41.512  55.707 -55.122  1.00  0.00    -0.359 N 
HETATM   16  H   UNL     1     -41.671  55.632 -56.117  1.00  0.00     0.166 HD
HETATM   17  C   UNL     1     -41.130  54.660 -54.325  1.00  0.00     0.043 A 
HETATM   18  C   UNL     1     -41.007  55.152 -53.024  1.00  0.00     0.003 A 
HETATM   19  C   UNL     1     -40.885  53.323 -54.669  1.00  0.00     0.030 A 
HETATM   20  C   UNL     1     -40.609  54.239 -52.021  1.00  0.00     0.014 A 
HETATM   21  C   UNL     1     -40.364  52.899 -52.345  1.00  0.00     0.001 A 
HETATM   22  C   UNL     1     -40.503  52.448 -53.652  1.00  0.00     0.002 A 
ENDBRANCH   1  12
BRANCH   1  23
HETATM   23  O   UNL     1     -40.788  57.009 -50.709  1.00  0.00    -0.371 OA
HETATM   24  H   UNL     1     -40.038  56.479 -51.034  1.00  0.00     0.212 HD
ENDBRANCH   1  23
TORSDOF 2
ENDMDL
MODEL 9
REMARK VINA RESULT:      -7.4      1.865      5.521
REMARK  2 active torsions:
REMARK  status: ('A' for Active; 'I' for Inactive)
REMARK    1  A    between atoms: C_7  and  C_8 
REMARK    2  A    between atoms: C_8  and  O_9 
ROOT
HETATM    1  C   UNL     1     -41.322  55.691 -50.920  1.00  0.00     0.199 A 
HETATM    2  C   UNL     1     -41.248  54.484 -49.927  1.00  0.00     0.266 A 
HETATM    3  O   UNL     1     -41.369  54.516 -48.711  1.00  0.00    -0.269 OA
HETATM    4  N   UNL     1     -40.947  53.346 -50.673  1.00  0.00    -0.323 N 
HETATM    5  C   UNL     1     -40.808  53.653 -52.020  1.00  0.00     0.045 A 
HETATM    6  C   UNL     1     -41.024  55.018 -52.237  1.00  0.00     0.017 A 
HETATM    7  C   UNL     1     -40.482  52.780 -53.037  1.00  0.00     0.030 A 
HETATM    8  C   UNL     1     -40.366  53.308 -54.325  1.00  0.00     0.002 A 
HETATM    9  C   UNL     1     -40.574  54.677 -54.562  1.00  0.00     0.001 A 
HETATM   10  C   UNL     1     -40.901  55.545 -53.515  1.00  0.00     0.013 A 
HETATM   11  H   UNL     1     -40.811  52.438 -50.259  1.00  0.00     0.169 HD
ENDROOT
BRANCH   1  12
HETATM   12  C   UNL     1     -42.687  56.335 -51.032  1.00  0.00     0.025 A 
HETATM   13  C   UNL     1     -43.917  55.693 -50.859  1.00  0.00     0.016 A 
HETATM   14  C   UNL     1     -44.251  54.282 -50.524  1.00  0.00     0.069 C 
HETATM   15  N   UNL     1     -44.913  56.613 -51.058  1.00  0.00    -0.359 N 
HETATM   16  H   UNL     1     -45.903  56.420 -51.000  1.00  0.00     0.166 HD
HETATM   17  C   UNL     1     -44.387  57.845 -51.348  1.00  0.00     0.043 A 
HETATM   18  C   UNL     1     -42.997  57.716 -51.332  1.00  0.00     0.003 A 
HETATM   19  C   UNL     1     -45.046  59.052 -51.618  1.00  0.00     0.030 A 
HETATM   20  C   UNL     1     -42.235  58.877 -51.599  1.00  0.00     0.014 A 
HETATM   21  C   UNL     1     -42.876  60.092 -51.875  1.00  0.00     0.001 A 
HETATM   22  C   UNL     1     -44.263  60.176 -51.886  1.00  0.00     0.002 A 
ENDBRANCH   1  12
BRANCH   1  23
HETATM   23  O   UNL     1     -40.290  56.621 -50.600  1.00  0.00    -0.371 OA
HETATM   24  H   UNL     1     -40.770  57.415 -50.303  1.00  0.00     0.212 HD
ENDBRANCH   1  23
TORSDOF 2
ENDMDL
MODEL 10
REMARK VINA RESULT:      -7.4     15.126     16.702
REMARK  2 active torsions:
REMARK  status: ('A' for Active; 'I' for Inactive)
REMARK    1  A    between atoms: C_7  and  C_8 
REMARK    2  A    between atoms: C_8  and  O_9 
ROOT
HETATM    1  C   UNL     1     -34.946  41.554 -55.282  1.00  0.00     0.199 A 
HETATM    2  C   UNL     1     -35.230  41.677 -53.749  1.00  0.00     0.266 A 
HETATM    3  O   UNL     1     -36.160  42.260 -53.211  1.00  0.00    -0.269 OA
HETATM    4  N   UNL     1     -34.182  41.048 -53.077  1.00  0.00    -0.323 N 
HETATM    5  C   UNL     1     -33.249  40.540 -53.971  1.00  0.00     0.045 A 
HETATM    6  C   UNL     1     -33.642  40.795 -55.289  1.00  0.00     0.017 A 
HETATM    7  C   UNL     1     -32.075  39.887 -53.656  1.00  0.00     0.030 A 
HETATM    8  C   UNL     1     -31.263  39.478 -54.717  1.00  0.00     0.002 A 
HETATM    9  C   UNL     1     -31.638  39.731 -56.047  1.00  0.00     0.001 A 
HETATM   10  C   UNL     1     -32.831  40.398 -56.342  1.00  0.00     0.013 A 
HETATM   11  H   UNL     1     -34.113  41.020 -52.073  1.00  0.00     0.169 HD
ENDROOT
BRANCH   1  12
HETATM   12  C   UNL     1     -35.959  40.731 -56.049  1.00  0.00     0.025 A 
HETATM   13  C   UNL     1     -36.496  39.504 -55.649  1.00  0.00     0.016 A 
HETATM   14  C   UNL     1     -36.270  38.683 -54.429  1.00  0.00     0.069 C 
HETATM   15  N   UNL     1     -37.363  39.078 -56.621  1.00  0.00    -0.359 N 
HETATM   16  H   UNL     1     -37.889  38.216 -56.594  1.00  0.00     0.166 HD
HETATM   17  C   UNL     1     -37.426  39.983 -57.648  1.00  0.00     0.043 A 
HETATM   18  C   UNL     1     -36.569  41.037 -57.326  1.00  0.00     0.003 A 
HETATM   19  C   UNL     1     -38.180  39.937 -58.829  1.00  0.00     0.030 A 
HETATM   20  C   UNL     1     -36.479  42.105 -58.248  1.00  0.00     0.014 A 
HETATM   21  C   UNL     1     -37.221  42.075 -59.435  1.00  0.00     0.001 A 
HETATM   22  C   UNL     1     -38.059  41.003 -59.721  1.00  0.00     0.002 A 
ENDBRANCH   1  12
BRANCH   1  23
HETATM   23  O   UNL     1     -34.757  42.858 -55.826  1.00  0.00    -0.371 OA
HETATM   24  H   UNL     1     -34.609  42.699 -56.776  1.00  0.00     0.212 HD
ENDBRANCH   1  23
TORSDOF 2
ENDMDL
