MODEL 1
REMARK VINA RESULT:      -8.3      0.000      0.000
REMARK  9 active torsions:
REMARK  status: ('A' for Active; 'I' for Inactive)
REMARK    1  A    between atoms: C_2  and  N_3 
REMARK    2  A    between atoms: C_2  and  C_23 
REMARK       I    between atoms: N_3  and  C_4 
REMARK       I    between atoms: C_4  and  N_5 
REMARK    3  A    between atoms: N_5  and  C_6 
REMARK    4  A    between atoms: C_6  and  C_7 
REMARK    5  A    between atoms: C_7  and  N_8 
REMARK    6  A    between atoms: C_7  and  C_14 
REMARK    7  A    between atoms: C_15  and  O_16 
REMARK    8  A    between atoms: C_23  and  C_24 
REMARK    9  A    between atoms: C_27  and  O_28 
ROOT
HETATM    1  N   UNL     1     -43.077  57.434 -55.803  1.00  0.00    -0.339 N 
HETATM    2  C   UNL     1     -42.527  56.193 -55.639  1.00  0.00     0.316 C 
HETATM    3  N   UNL     1     -41.193  56.263 -55.317  1.00  0.00    -0.341 N 
HETATM    4  O   UNL     1     -43.096  55.136 -55.866  1.00  0.00    -0.248 OA
HETATM    5  H   UNL     1     -42.713  58.159 -55.203  1.00  0.00     0.164 HD
HETATM    6  H   UNL     1     -40.932  57.119 -54.847  1.00  0.00     0.164 HD
ENDROOT
BRANCH   3   7
HETATM    7  C   UNL     1     -40.493  55.063 -54.877  1.00  0.00     0.162 C 
BRANCH   7   8
HETATM    8  C   UNL     1     -40.696  54.586 -53.394  1.00  0.00     0.241 C 
BRANCH   8   9
HETATM    9  N   UNL     1     -42.076  54.967 -52.802  1.00  0.00    -0.061 N 
HETATM   10  H   UNL     1     -42.623  55.242 -53.626  1.00  0.00     0.280 HD
HETATM   11  C   UNL     1     -42.144  56.102 -51.810  1.00  0.00     0.236 C 
HETATM   12  C   UNL     1     -42.639  55.470 -50.526  1.00  0.00     0.029 C 
HETATM   13  C   UNL     1     -43.586  54.397 -51.018  1.00  0.00     0.029 C 
HETATM   14  C   UNL     1     -42.862  53.807 -52.215  1.00  0.00     0.236 C 
ENDBRANCH   8   9
BRANCH   8  15
HETATM   15  C   UNL     1     -40.378  53.087 -53.281  1.00  0.00     0.007 A 
HETATM   16  C   UNL     1     -39.873  52.588 -52.055  1.00  0.00     0.076 A 
HETATM   17  C   UNL     1     -39.572  51.230 -51.913  1.00  0.00     0.037 A 
HETATM   18  C   UNL     1     -39.754  50.353 -52.980  1.00  0.00     0.003 A 
HETATM   19  C   UNL     1     -40.235  50.828 -54.194  1.00  0.00     0.001 A 
HETATM   20  C   UNL     1     -40.541  52.183 -54.347  1.00  0.00     0.012 A 
BRANCH  16  21
HETATM   21  O   UNL     1     -39.729  53.509 -51.051  1.00  0.00    -0.355 OA
HETATM   22  C   UNL     1     -40.199  53.142 -49.756  1.00  0.00     0.210 C 
ENDBRANCH  16  21
ENDBRANCH   8  15
ENDBRANCH   7   8
ENDBRANCH   3   7
BRANCH   1  23
HETATM   23  C   UNL     1     -44.463  57.645 -56.234  1.00  0.00     0.086 C 
HETATM   24  C   UNL     1     -45.247  58.441 -55.188  1.00  0.00     0.032 C 
BRANCH  23  25
HETATM   25  C   UNL     1     -44.606  58.287 -57.631  1.00  0.00     0.063 C 
BRANCH  25  26
HETATM   26  C   UNL     1     -44.714  57.278 -58.751  1.00  0.00    -0.056 A 
HETATM   27  C   UNL     1     -45.947  57.014 -59.365  1.00  0.00     0.010 A 
HETATM   28  C   UNL     1     -46.038  56.071 -60.392  1.00  0.00     0.037 A 
HETATM   29  C   UNL     1     -44.896  55.392 -60.801  1.00  0.00     0.065 A 
HETATM   30  C   UNL     1     -43.667  55.641 -60.205  1.00  0.00     0.037 A 
HETATM   31  C   UNL     1     -43.575  56.584 -59.183  1.00  0.00     0.010 A 
BRANCH  29  32
HETATM   32  O   UNL     1     -44.938  54.463 -61.798  1.00  0.00    -0.361 OA
HETATM   33  H   UNL     1     -44.578  54.859 -62.610  1.00  0.00     0.217 HD
ENDBRANCH  29  32
ENDBRANCH  25  26
ENDBRANCH  23  25
ENDBRANCH   1  23
TORSDOF 9
ENDMDL
MODEL 2
REMARK VINA RESULT:      -7.8      2.069      8.517
REMARK  9 active torsions:
REMARK  status: ('A' for Active; 'I' for Inactive)
REMARK    1  A    between atoms: C_2  and  N_3 
REMARK    2  A    between atoms: C_2  and  C_23 
REMARK       I    between atoms: N_3  and  C_4 
REMARK       I    between atoms: C_4  and  N_5 
REMARK    3  A    between atoms: N_5  and  C_6 
REMARK    4  A    between atoms: C_6  and  C_7 
REMARK    5  A    between atoms: C_7  and  N_8 
REMARK    6  A    between atoms: C_7  and  C_14 
REMARK    7  A    between atoms: C_15  and  O_16 
REMARK    8  A    between atoms: C_23  and  C_24 
REMARK    9  A    between atoms: C_27  and  O_28 
ROOT
HETATM    1  N   UNL     1     -42.955  54.907 -54.021  1.00  0.00    -0.339 N 
HETATM    2  C   UNL     1     -42.493  55.673 -55.055  1.00  0.00     0.316 C 
HETATM    3  N   UNL     1     -43.182  55.431 -56.219  1.00  0.00    -0.341 N 
HETATM    4  O   UNL     1     -41.512  56.399 -55.009  1.00  0.00    -0.248 OA
HETATM    5  H   UNL     1     -43.947  54.719 -54.022  1.00  0.00     0.164 HD
HETATM    6  H   UNL     1     -44.126  55.099 -56.072  1.00  0.00     0.164 HD
ENDROOT
BRANCH   3   7
HETATM    7  C   UNL     1     -42.993  56.311 -57.365  1.00  0.00     0.162 C 
BRANCH   7   8
HETATM    8  C   UNL     1     -44.135  57.334 -57.711  1.00  0.00     0.241 C 
BRANCH   8   9
HETATM    9  N   UNL     1     -43.635  58.790 -57.878  1.00  0.00    -0.061 N 
HETATM   10  H   UNL     1     -44.353  59.346 -57.398  1.00  0.00     0.280 HD
HETATM   11  C   UNL     1     -43.486  59.345 -59.273  1.00  0.00     0.236 C 
HETATM   12  C   UNL     1     -42.010  59.648 -59.417  1.00  0.00     0.029 C 
HETATM   13  C   UNL     1     -41.615  60.087 -58.025  1.00  0.00     0.029 C 
HETATM   14  C   UNL     1     -42.358  59.119 -57.123  1.00  0.00     0.236 C 
ENDBRANCH   8   9
BRANCH   8  15
HETATM   15  C   UNL     1     -44.941  56.825 -58.917  1.00  0.00     0.007 A 
HETATM   16  C   UNL     1     -46.292  57.228 -59.052  1.00  0.00     0.076 A 
HETATM   17  C   UNL     1     -47.058  56.786 -60.136  1.00  0.00     0.037 A 
HETATM   18  C   UNL     1     -46.504  55.935 -61.089  1.00  0.00     0.003 A 
HETATM   19  C   UNL     1     -45.185  55.518 -60.964  1.00  0.00     0.001 A 
HETATM   20  C   UNL     1     -44.410  55.954 -59.886  1.00  0.00     0.012 A 
BRANCH  16  21
HETATM   21  O   UNL     1     -46.762  58.072 -58.081  1.00  0.00    -0.355 OA
HETATM   22  C   UNL     1     -47.450  59.245 -58.512  1.00  0.00     0.210 C 
ENDBRANCH  16  21
ENDBRANCH   8  15
ENDBRANCH   7   8
ENDBRANCH   3   7
BRANCH   1  23
HETATM   23  C   UNL     1     -42.341  54.905 -52.689  1.00  0.00     0.086 C 
HETATM   24  C   UNL     1     -43.053  53.921 -51.759  1.00  0.00     0.032 C 
BRANCH  23  25
HETATM   25  C   UNL     1     -40.817  54.653 -52.690  1.00  0.00     0.063 C 
BRANCH  25  26
HETATM   26  C   UNL     1     -40.444  53.205 -52.912  1.00  0.00    -0.056 A 
HETATM   27  C   UNL     1     -40.654  52.590 -54.155  1.00  0.00     0.010 A 
HETATM   28  C   UNL     1     -40.317  51.248 -54.345  1.00  0.00     0.037 A 
HETATM   29  C   UNL     1     -39.770  50.523 -53.292  1.00  0.00     0.065 A 
HETATM   30  C   UNL     1     -39.554  51.116 -52.055  1.00  0.00     0.037 A 
HETATM   31  C   UNL     1     -39.888  52.456 -51.866  1.00  0.00     0.010 A 
BRANCH  29  32
HETATM   32  O   UNL     1     -39.427  49.211 -53.433  1.00  0.00    -0.361 OA
HETATM   33  H   UNL     1     -38.966  49.098 -54.281  1.00  0.00     0.217 HD
ENDBRANCH  29  32
ENDBRANCH  25  26
ENDBRANCH  23  25
ENDBRANCH   1  23
TORSDOF 9
ENDMDL
MODEL 3
REMARK VINA RESULT:      -7.7      2.187      7.887
REMARK  9 active torsions:
REMARK  status: ('A' for Active; 'I' for Inactive)
REMARK    1  A    between atoms: C_2  and  N_3 
REMARK    2  A    between atoms: C_2  and  C_23 
REMARK       I    between atoms: N_3  and  C_4 
REMARK       I    between atoms: C_4  and  N_5 
REMARK    3  A    between atoms: N_5  and  C_6 
REMARK    4  A    between atoms: C_6  and  C_7 
REMARK    5  A    between atoms: C_7  and  N_8 
REMARK    6  A    between atoms: C_7  and  C_14 
REMARK    7  A    between atoms: C_15  and  O_16 
REMARK    8  A    between atoms: C_23  and  C_24 
REMARK    9  A    between atoms: C_27  and  O_28 
ROOT
HETATM    1  N   UNL     1     -40.928  53.911 -54.826  1.00  0.00    -0.339 N 
HETATM    2  C   UNL     1     -42.079  54.396 -55.381  1.00  0.00     0.316 C 
HETATM    3  N   UNL     1     -41.824  55.338 -56.349  1.00  0.00    -0.341 N 
HETATM    4  O   UNL     1     -43.210  54.134 -54.999  1.00  0.00    -0.248 OA
HETATM    5  H   UNL     1     -40.139  53.832 -55.449  1.00  0.00     0.164 HD
HETATM    6  H   UNL     1     -40.924  55.229 -56.795  1.00  0.00     0.164 HD
ENDROOT
BRANCH   3   7
HETATM    7  C   UNL     1     -42.905  55.796 -57.212  1.00  0.00     0.162 C 
BRANCH   7   8
HETATM    8  C   UNL     1     -43.119  57.344 -57.375  1.00  0.00     0.241 C 
BRANCH   8   9
HETATM    9  N   UNL     1     -44.101  57.720 -58.512  1.00  0.00    -0.061 N 
HETATM   10  H   UNL     1     -43.490  58.126 -59.231  1.00  0.00     0.280 HD
HETATM   11  C   UNL     1     -45.191  58.721 -58.220  1.00  0.00     0.236 C 
HETATM   12  C   UNL     1     -46.484  57.960 -58.413  1.00  0.00     0.029 C 
HETATM   13  C   UNL     1     -46.155  57.010 -59.543  1.00  0.00     0.029 C 
HETATM   14  C   UNL     1     -44.751  56.538 -59.213  1.00  0.00     0.236 C 
ENDBRANCH   8   9
BRANCH   8  15
HETATM   15  C   UNL     1     -43.492  57.963 -56.019  1.00  0.00     0.007 A 
HETATM   16  C   UNL     1     -42.783  59.105 -55.573  1.00  0.00     0.076 A 
HETATM   17  C   UNL     1     -43.094  59.698 -54.345  1.00  0.00     0.037 A 
HETATM   18  C   UNL     1     -44.097  59.164 -53.540  1.00  0.00     0.003 A 
HETATM   19  C   UNL     1     -44.793  58.035 -53.955  1.00  0.00     0.001 A 
HETATM   20  C   UNL     1     -44.492  57.436 -55.181  1.00  0.00     0.012 A 
BRANCH  16  21
HETATM   21  O   UNL     1     -41.817  59.576 -56.423  1.00  0.00    -0.355 OA
HETATM   22  C   UNL     1     -42.056  60.835 -57.050  1.00  0.00     0.210 C 
ENDBRANCH  16  21
ENDBRANCH   8  15
ENDBRANCH   7   8
ENDBRANCH   3   7
BRANCH   1  23
HETATM   23  C   UNL     1     -40.916  52.959 -53.710  1.00  0.00     0.086 C 
HETATM   24  C   UNL     1     -39.984  51.782 -54.004  1.00  0.00     0.032 C 
BRANCH  23  25
HETATM   25  C   UNL     1     -40.588  53.588 -52.338  1.00  0.00     0.063 C 
BRANCH  25  26
HETATM   26  C   UNL     1     -41.662  54.525 -51.831  1.00  0.00    -0.056 A 
HETATM   27  C   UNL     1     -41.468  55.913 -51.841  1.00  0.00     0.010 A 
HETATM   28  C   UNL     1     -42.461  56.769 -51.358  1.00  0.00     0.037 A 
HETATM   29  C   UNL     1     -43.647  56.234 -50.867  1.00  0.00     0.065 A 
HETATM   30  C   UNL     1     -43.856  54.861 -50.852  1.00  0.00     0.037 A 
HETATM   31  C   UNL     1     -42.867  54.007 -51.335  1.00  0.00     0.010 A 
BRANCH  29  32
HETATM   32  O   UNL     1     -44.643  57.031 -50.387  1.00  0.00    -0.361 OA
HETATM   33  H   UNL     1     -44.330  57.470 -49.578  1.00  0.00     0.217 HD
ENDBRANCH  29  32
ENDBRANCH  25  26
ENDBRANCH  23  25
ENDBRANCH   1  23
TORSDOF 9
ENDMDL
MODEL 4
REMARK VINA RESULT:      -7.7      2.292      8.973
REMARK  9 active torsions:
REMARK  status: ('A' for Active; 'I' for Inactive)
REMARK    1  A    between atoms: C_2  and  N_3 
REMARK    2  A    between atoms: C_2  and  C_23 
REMARK       I    between atoms: N_3  and  C_4 
REMARK       I    between atoms: C_4  and  N_5 
REMARK    3  A    between atoms: N_5  and  C_6 
REMARK    4  A    between atoms: C_6  and  C_7 
REMARK    5  A    between atoms: C_7  and  N_8 
REMARK    6  A    between atoms: C_7  and  C_14 
REMARK    7  A    between atoms: C_15  and  O_16 
REMARK    8  A    between atoms: C_23  and  C_24 
REMARK    9  A    between atoms: C_27  and  O_28 
ROOT
HETATM    1  N   UNL     1     -41.664  55.983 -54.834  1.00  0.00    -0.339 N 
HETATM    2  C   UNL     1     -42.093  56.064 -56.129  1.00  0.00     0.316 C 
HETATM    3  N   UNL     1     -42.092  57.359 -56.589  1.00  0.00    -0.341 N 
HETATM    4  O   UNL     1     -42.543  55.134 -56.781  1.00  0.00    -0.248 OA
HETATM    5  H   UNL     1     -40.949  56.642 -54.565  1.00  0.00     0.164 HD
HETATM    6  H   UNL     1     -41.422  57.956 -56.123  1.00  0.00     0.164 HD
ENDROOT
BRANCH   3   7
HETATM    7  C   UNL     1     -42.292  57.621 -58.008  1.00  0.00     0.162 C 
BRANCH   7   8
HETATM    8  C   UNL     1     -43.638  58.297 -58.456  1.00  0.00     0.241 C 
BRANCH   8   9
HETATM    9  N   UNL     1     -43.442  59.641 -59.200  1.00  0.00    -0.061 N 
HETATM   10  H   UNL     1     -44.251  60.199 -58.904  1.00  0.00     0.280 HD
HETATM   11  C   UNL     1     -43.420  59.633 -60.708  1.00  0.00     0.236 C 
HETATM   12  C   UNL     1     -42.036  60.118 -61.083  1.00  0.00     0.029 C 
HETATM   13  C   UNL     1     -41.722  61.123 -59.997  1.00  0.00     0.029 C 
HETATM   14  C   UNL     1     -42.248  60.460 -58.737  1.00  0.00     0.236 C 
ENDBRANCH   8   9
BRANCH   8  15
HETATM   15  C   UNL     1     -44.492  57.287 -59.239  1.00  0.00     0.007 A 
HETATM   16  C   UNL     1     -45.896  57.465 -59.275  1.00  0.00     0.076 A 
HETATM   17  C   UNL     1     -46.707  56.567 -59.978  1.00  0.00     0.037 A 
HETATM   18  C   UNL     1     -46.142  55.481 -60.641  1.00  0.00     0.003 A 
HETATM   19  C   UNL     1     -44.768  55.282 -60.604  1.00  0.00     0.001 A 
HETATM   20  C   UNL     1     -43.948  56.173 -59.907  1.00  0.00     0.012 A 
BRANCH  16  21
HETATM   21  O   UNL     1     -46.375  58.561 -58.607  1.00  0.00    -0.355 OA
HETATM   22  C   UNL     1     -47.134  59.505 -59.360  1.00  0.00     0.210 C 
ENDBRANCH  16  21
ENDBRANCH   8  15
ENDBRANCH   7   8
ENDBRANCH   3   7
BRANCH   1  23
HETATM   23  C   UNL     1     -41.650  54.730 -54.071  1.00  0.00     0.086 C 
HETATM   24  C   UNL     1     -43.072  54.272 -53.743  1.00  0.00     0.032 C 
BRANCH  23  25
HETATM   25  C   UNL     1     -40.846  53.590 -54.735  1.00  0.00     0.063 C 
BRANCH  25  26
HETATM   26  C   UNL     1     -40.398  52.522 -53.763  1.00  0.00    -0.056 A 
HETATM   27  C   UNL     1     -40.171  52.827 -52.413  1.00  0.00     0.010 A 
HETATM   28  C   UNL     1     -39.745  51.835 -51.527  1.00  0.00     0.037 A 
HETATM   29  C   UNL     1     -39.547  50.539 -51.992  1.00  0.00     0.065 A 
HETATM   30  C   UNL     1     -39.769  50.219 -53.325  1.00  0.00     0.037 A 
HETATM   31  C   UNL     1     -40.196  51.208 -54.209  1.00  0.00     0.010 A 
BRANCH  29  32
HETATM   32  O   UNL     1     -39.133  49.540 -51.162  1.00  0.00    -0.361 OA
HETATM   33  H   UNL     1     -39.642  49.588 -50.336  1.00  0.00     0.217 HD
ENDBRANCH  29  32
ENDBRANCH  25  26
ENDBRANCH  23  25
ENDBRANCH   1  23
TORSDOF 9
ENDMDL
MODEL 5
REMARK VINA RESULT:      -7.6      2.209      8.343
REMARK  9 active torsions:
REMARK  status: ('A' for Active; 'I' for Inactive)
REMARK    1  A    between atoms: C_2  and  N_3 
REMARK    2  A    between atoms: C_2  and  C_23 
REMARK       I    between atoms: N_3  and  C_4 
REMARK       I    between atoms: C_4  and  N_5 
REMARK    3  A    between atoms: N_5  and  C_6 
REMARK    4  A    between atoms: C_6  and  C_7 
REMARK    5  A    between atoms: C_7  and  N_8 
REMARK    6  A    between atoms: C_7  and  C_14 
REMARK    7  A    between atoms: C_15  and  O_16 
REMARK    8  A    between atoms: C_23  and  C_24 
REMARK    9  A    between atoms: C_27  and  O_28 
ROOT
HETATM    1  N   UNL     1     -42.920  54.564 -54.230  1.00  0.00    -0.339 N 
HETATM    2  C   UNL     1     -42.493  55.220 -55.351  1.00  0.00     0.316 C 
HETATM    3  N   UNL     1     -43.172  54.811 -56.473  1.00  0.00    -0.341 N 
HETATM    4  O   UNL     1     -41.543  55.988 -55.398  1.00  0.00    -0.248 OA
HETATM    5  H   UNL     1     -43.902  54.335 -54.202  1.00  0.00     0.164 HD
HETATM    6  H   UNL     1     -44.101  54.460 -56.281  1.00  0.00     0.164 HD
ENDROOT
BRANCH   3   7
HETATM    7  C   UNL     1     -43.024  55.555 -57.717  1.00  0.00     0.162 C 
BRANCH   7   8
HETATM    8  C   UNL     1     -43.106  57.123 -57.659  1.00  0.00     0.241 C 
BRANCH   8   9
HETATM    9  N   UNL     1     -42.066  57.835 -58.558  1.00  0.00    -0.061 N 
HETATM   10  H   UNL     1     -41.168  57.466 -58.223  1.00  0.00     0.280 HD
HETATM   11  C   UNL     1     -41.986  59.341 -58.514  1.00  0.00     0.236 C 
HETATM   12  C   UNL     1     -42.348  59.793 -59.912  1.00  0.00     0.029 C 
HETATM   13  C   UNL     1     -41.772  58.699 -60.784  1.00  0.00     0.029 C 
HETATM   14  C   UNL     1     -42.101  57.428 -60.022  1.00  0.00     0.236 C 
ENDBRANCH   8   9
BRANCH   8  15
HETATM   15  C   UNL     1     -44.551  57.578 -57.922  1.00  0.00     0.007 A 
HETATM   16  C   UNL     1     -45.177  58.435 -56.985  1.00  0.00     0.076 A 
HETATM   17  C   UNL     1     -46.490  58.871 -57.189  1.00  0.00     0.037 A 
HETATM   18  C   UNL     1     -47.202  58.458 -58.312  1.00  0.00     0.003 A 
HETATM   19  C   UNL     1     -46.608  57.605 -59.235  1.00  0.00     0.001 A 
HETATM   20  C   UNL     1     -45.297  57.165 -59.042  1.00  0.00     0.012 A 
BRANCH  16  21
HETATM   21  O   UNL     1     -44.410  58.805 -55.911  1.00  0.00    -0.355 OA
HETATM   22  C   UNL     1     -45.007  58.707 -54.618  1.00  0.00     0.210 C 
ENDBRANCH  16  21
ENDBRANCH   8  15
ENDBRANCH   7   8
ENDBRANCH   3   7
BRANCH   1  23
HETATM   23  C   UNL     1     -42.303  54.747 -52.911  1.00  0.00     0.086 C 
HETATM   24  C   UNL     1     -43.012  53.900 -51.853  1.00  0.00     0.032 C 
BRANCH  23  25
HETATM   25  C   UNL     1     -40.779  54.501 -52.880  1.00  0.00     0.063 C 
BRANCH  25  26
HETATM   26  C   UNL     1     -40.401  53.041 -52.989  1.00  0.00    -0.056 A 
HETATM   27  C   UNL     1     -40.541  52.350 -54.201  1.00  0.00     0.010 A 
HETATM   28  C   UNL     1     -40.200  50.998 -54.288  1.00  0.00     0.037 A 
HETATM   29  C   UNL     1     -39.719  50.340 -53.161  1.00  0.00     0.065 A 
HETATM   30  C   UNL     1     -39.572  51.009 -51.953  1.00  0.00     0.037 A 
HETATM   31  C   UNL     1     -39.909  52.359 -51.868  1.00  0.00     0.010 A 
BRANCH  29  32
HETATM   32  O   UNL     1     -39.374  49.022 -53.200  1.00  0.00    -0.361 OA
HETATM   33  H   UNL     1     -40.171  48.495 -53.379  1.00  0.00     0.217 HD
ENDBRANCH  29  32
ENDBRANCH  25  26
ENDBRANCH  23  25
ENDBRANCH   1  23
TORSDOF 9
ENDMDL
MODEL 6
REMARK VINA RESULT:      -7.3      1.943      8.294
REMARK  9 active torsions:
REMARK  status: ('A' for Active; 'I' for Inactive)
REMARK    1  A    between atoms: C_2  and  N_3 
REMARK    2  A    between atoms: C_2  and  C_23 
REMARK       I    between atoms: N_3  and  C_4 
REMARK       I    between atoms: C_4  and  N_5 
REMARK    3  A    between atoms: N_5  and  C_6 
REMARK    4  A    between atoms: C_6  and  C_7 
REMARK    5  A    between atoms: C_7  and  N_8 
REMARK    6  A    between atoms: C_7  and  C_14 
REMARK    7  A    between atoms: C_15  and  O_16 
REMARK    8  A    between atoms: C_23  and  C_24 
REMARK    9  A    between atoms: C_27  and  O_28 
ROOT
HETATM    1  N   UNL     1     -42.979  55.480 -54.225  1.00  0.00    -0.339 N 
HETATM    2  C   UNL     1     -43.553  56.696 -54.472  1.00  0.00     0.316 C 
HETATM    3  N   UNL     1     -44.048  56.779 -55.751  1.00  0.00    -0.341 N 
HETATM    4  O   UNL     1     -43.532  57.651 -53.710  1.00  0.00    -0.248 OA
HETATM    5  H   UNL     1     -43.412  54.689 -54.679  1.00  0.00     0.164 HD
HETATM    6  H   UNL     1     -44.306  55.885 -56.146  1.00  0.00     0.164 HD
ENDROOT
BRANCH   3   7
HETATM    7  C   UNL     1     -44.897  57.903 -56.125  1.00  0.00     0.162 C 
BRANCH   7   8
HETATM    8  C   UNL     1     -44.722  58.520 -57.559  1.00  0.00     0.241 C 
BRANCH   8   9
HETATM    9  N   UNL     1     -43.267  58.938 -57.883  1.00  0.00    -0.061 N 
HETATM   10  H   UNL     1     -42.846  58.075 -58.250  1.00  0.00     0.280 HD
HETATM   11  C   UNL     1     -42.391  59.430 -56.758  1.00  0.00     0.236 C 
HETATM   12  C   UNL     1     -42.056  60.861 -57.120  1.00  0.00     0.029 C 
HETATM   13  C   UNL     1     -41.964  60.818 -58.629  1.00  0.00     0.029 C 
HETATM   14  C   UNL     1     -43.125  59.925 -59.030  1.00  0.00     0.236 C 
ENDBRANCH   8   9
BRANCH   8  15
HETATM   15  C   UNL     1     -45.335  57.579 -58.608  1.00  0.00     0.007 A 
HETATM   16  C   UNL     1     -44.521  56.569 -59.176  1.00  0.00     0.076 A 
HETATM   17  C   UNL     1     -45.042  55.693 -60.133  1.00  0.00     0.037 A 
HETATM   18  C   UNL     1     -46.366  55.811 -60.548  1.00  0.00     0.003 A 
HETATM   19  C   UNL     1     -47.175  56.806 -60.013  1.00  0.00     0.001 A 
HETATM   20  C   UNL     1     -46.665  57.686 -59.055  1.00  0.00     0.012 A 
BRANCH  16  21
HETATM   21  O   UNL     1     -43.233  56.510 -58.711  1.00  0.00    -0.355 OA
HETATM   22  C   UNL     1     -42.225  56.098 -59.632  1.00  0.00     0.210 C 
ENDBRANCH  16  21
ENDBRANCH   8  15
ENDBRANCH   7   8
ENDBRANCH   3   7
BRANCH   1  23
HETATM   23  C   UNL     1     -42.297  55.156 -52.968  1.00  0.00     0.086 C 
HETATM   24  C   UNL     1     -43.000  54.006 -52.244  1.00  0.00     0.032 C 
BRANCH  23  25
HETATM   25  C   UNL     1     -40.787  54.869 -53.117  1.00  0.00     0.063 C 
BRANCH  25  26
HETATM   26  C   UNL     1     -40.454  53.395 -53.166  1.00  0.00    -0.056 A 
HETATM   27  C   UNL     1     -40.698  52.640 -54.323  1.00  0.00     0.010 A 
HETATM   28  C   UNL     1     -40.398  51.276 -54.353  1.00  0.00     0.037 A 
HETATM   29  C   UNL     1     -39.855  50.669 -53.226  1.00  0.00     0.065 A 
HETATM   30  C   UNL     1     -39.605  51.401 -52.073  1.00  0.00     0.037 A 
HETATM   31  C   UNL     1     -39.902  52.763 -52.043  1.00  0.00     0.010 A 
BRANCH  29  32
HETATM   32  O   UNL     1     -39.547  49.341 -53.211  1.00  0.00    -0.361 OA
HETATM   33  H   UNL     1     -39.346  49.057 -54.119  1.00  0.00     0.217 HD
ENDBRANCH  29  32
ENDBRANCH  25  26
ENDBRANCH  23  25
ENDBRANCH   1  23
TORSDOF 9
ENDMDL
MODEL 7
REMARK VINA RESULT:      -7.1      3.627      9.651
REMARK  9 active torsions:
REMARK  status: ('A' for Active; 'I' for Inactive)
REMARK    1  A    between atoms: C_2  and  N_3 
REMARK    2  A    between atoms: C_2  and  C_23 
REMARK       I    between atoms: N_3  and  C_4 
REMARK       I    between atoms: C_4  and  N_5 
REMARK    3  A    between atoms: N_5  and  C_6 
REMARK    4  A    between atoms: C_6  and  C_7 
REMARK    5  A    between atoms: C_7  and  N_8 
REMARK    6  A    between atoms: C_7  and  C_14 
REMARK    7  A    between atoms: C_15  and  O_16 
REMARK    8  A    between atoms: C_23  and  C_24 
REMARK    9  A    between atoms: C_27  and  O_28 
ROOT
HETATM    1  N   UNL     1     -42.077  55.762 -56.613  1.00  0.00    -0.339 N 
HETATM    2  C   UNL     1     -42.199  57.121 -56.526  1.00  0.00     0.316 C 
HETATM    3  N   UNL     1     -42.219  57.714 -57.766  1.00  0.00    -0.341 N 
HETATM    4  O   UNL     1     -42.171  57.766 -55.488  1.00  0.00    -0.248 OA
HETATM    5  H   UNL     1     -42.534  55.329 -57.401  1.00  0.00     0.164 HD
HETATM    6  H   UNL     1     -42.563  57.110 -58.500  1.00  0.00     0.164 HD
ENDROOT
BRANCH   3   7
HETATM    7  C   UNL     1     -42.575  59.122 -57.887  1.00  0.00     0.162 C 
BRANCH   7   8
HETATM    8  C   UNL     1     -42.772  59.716 -59.328  1.00  0.00     0.241 C 
BRANCH   8   9
HETATM    9  N   UNL     1     -44.239  60.094 -59.651  1.00  0.00    -0.061 N 
HETATM   10  H   UNL     1     -44.145  60.876 -60.310  1.00  0.00     0.280 HD
HETATM   11  C   UNL     1     -45.129  60.552 -58.522  1.00  0.00     0.236 C 
HETATM   12  C   UNL     1     -46.231  59.517 -58.448  1.00  0.00     0.029 C 
HETATM   13  C   UNL     1     -46.426  59.124 -59.895  1.00  0.00     0.029 C 
HETATM   14  C   UNL     1     -45.010  59.047 -60.437  1.00  0.00     0.236 C 
ENDBRANCH   8   9
BRANCH   8  15
HETATM   15  C   UNL     1     -41.782  60.871 -59.554  1.00  0.00     0.007 A 
HETATM   16  C   UNL     1     -41.527  61.300 -60.879  1.00  0.00     0.076 A 
HETATM   17  C   UNL     1     -40.633  62.348 -61.124  1.00  0.00     0.037 A 
HETATM   18  C   UNL     1     -39.975  62.974 -60.069  1.00  0.00     0.003 A 
HETATM   19  C   UNL     1     -40.202  62.555 -58.763  1.00  0.00     0.001 A 
HETATM   20  C   UNL     1     -41.094  61.511 -58.506  1.00  0.00     0.012 A 
BRANCH  16  21
HETATM   21  O   UNL     1     -42.218  60.642 -61.862  1.00  0.00    -0.355 OA
HETATM   22  C   UNL     1     -42.734  61.428 -62.935  1.00  0.00     0.210 C 
ENDBRANCH  16  21
ENDBRANCH   8  15
ENDBRANCH   7   8
ENDBRANCH   3   7
BRANCH   1  23
HETATM   23  C   UNL     1     -41.943  54.894 -55.439  1.00  0.00     0.086 C 
HETATM   24  C   UNL     1     -43.080  53.871 -55.382  1.00  0.00     0.032 C 
BRANCH  23  25
HETATM   25  C   UNL     1     -40.571  54.195 -55.315  1.00  0.00     0.063 C 
BRANCH  25  26
HETATM   26  C   UNL     1     -40.402  53.420 -54.028  1.00  0.00    -0.056 A 
HETATM   27  C   UNL     1     -39.948  52.094 -54.042  1.00  0.00     0.010 A 
HETATM   28  C   UNL     1     -39.807  51.383 -52.847  1.00  0.00     0.037 A 
HETATM   29  C   UNL     1     -40.119  52.000 -51.641  1.00  0.00     0.065 A 
HETATM   30  C   UNL     1     -40.568  53.314 -51.609  1.00  0.00     0.037 A 
HETATM   31  C   UNL     1     -40.707  54.025 -52.800  1.00  0.00     0.010 A 
BRANCH  29  32
HETATM   32  O   UNL     1     -39.996  51.345 -50.452  1.00  0.00    -0.361 OA
HETATM   33  H   UNL     1     -40.883  51.130 -50.120  1.00  0.00     0.217 HD
ENDBRANCH  29  32
ENDBRANCH  25  26
ENDBRANCH  23  25
ENDBRANCH   1  23
TORSDOF 9
ENDMDL
MODEL 8
REMARK VINA RESULT:      -7.1      2.348      8.927
REMARK  9 active torsions:
REMARK  status: ('A' for Active; 'I' for Inactive)
REMARK    1  A    between atoms: C_2  and  N_3 
REMARK    2  A    between atoms: C_2  and  C_23 
REMARK       I    between atoms: N_3  and  C_4 
REMARK       I    between atoms: C_4  and  N_5 
REMARK    3  A    between atoms: N_5  and  C_6 
REMARK    4  A    between atoms: C_6  and  C_7 
REMARK    5  A    between atoms: C_7  and  N_8 
REMARK    6  A    between atoms: C_7  and  C_14 
REMARK    7  A    between atoms: C_15  and  O_16 
REMARK    8  A    between atoms: C_23  and  C_24 
REMARK    9  A    between atoms: C_27  and  O_28 
ROOT
HETATM    1  N   UNL     1     -44.385  56.410 -53.553  1.00  0.00    -0.339 N 
HETATM    2  C   UNL     1     -44.314  57.314 -54.576  1.00  0.00     0.316 C 
HETATM    3  N   UNL     1     -45.415  57.249 -55.395  1.00  0.00    -0.341 N 
HETATM    4  O   UNL     1     -43.347  58.018 -54.826  1.00  0.00    -0.248 OA
HETATM    5  H   UNL     1     -45.309  56.231 -53.188  1.00  0.00     0.164 HD
HETATM    6  H   UNL     1     -46.246  56.907 -54.933  1.00  0.00     0.164 HD
ENDROOT
BRANCH   3   7
HETATM    7  C   UNL     1     -45.630  58.284 -56.398  1.00  0.00     0.162 C 
BRANCH   7   8
HETATM    8  C   UNL     1     -44.896  58.144 -57.779  1.00  0.00     0.241 C 
BRANCH   8   9
HETATM    9  N   UNL     1     -44.533  56.684 -58.146  1.00  0.00    -0.061 N 
HETATM   10  H   UNL     1     -45.000  56.131 -57.418  1.00  0.00     0.280 HD
HETATM   11  C   UNL     1     -43.078  56.286 -58.159  1.00  0.00     0.236 C 
HETATM   12  C   UNL     1     -42.792  55.893 -59.592  1.00  0.00     0.029 C 
HETATM   13  C   UNL     1     -44.094  55.267 -60.040  1.00  0.00     0.029 C 
HETATM   14  C   UNL     1     -45.150  56.177 -59.439  1.00  0.00     0.236 C 
ENDBRANCH   8   9
BRANCH   8  15
HETATM   15  C   UNL     1     -45.702  58.864 -58.872  1.00  0.00     0.007 A 
HETATM   16  C   UNL     1     -45.006  59.456 -59.954  1.00  0.00     0.076 A 
HETATM   17  C   UNL     1     -45.705  60.119 -60.969  1.00  0.00     0.037 A 
HETATM   18  C   UNL     1     -47.093  60.215 -60.920  1.00  0.00     0.003 A 
HETATM   19  C   UNL     1     -47.791  59.653 -59.858  1.00  0.00     0.001 A 
HETATM   20  C   UNL     1     -47.104  58.987 -58.840  1.00  0.00     0.012 A 
BRANCH  16  21
HETATM   21  O   UNL     1     -43.644  59.313 -59.936  1.00  0.00    -0.355 OA
HETATM   22  C   UNL     1     -42.915  59.854 -61.037  1.00  0.00     0.210 C 
ENDBRANCH  16  21
ENDBRANCH   8  15
ENDBRANCH   7   8
ENDBRANCH   3   7
BRANCH   1  23
HETATM   23  C   UNL     1     -43.303  56.209 -52.584  1.00  0.00     0.086 C 
HETATM   24  C   UNL     1     -43.290  57.326 -51.538  1.00  0.00     0.032 C 
BRANCH  23  25
HETATM   25  C   UNL     1     -43.305  54.822 -51.904  1.00  0.00     0.063 C 
BRANCH  25  26
HETATM   26  C   UNL     1     -42.178  53.924 -52.362  1.00  0.00    -0.056 A 
HETATM   27  C   UNL     1     -41.231  53.437 -51.450  1.00  0.00     0.010 A 
HETATM   28  C   UNL     1     -40.186  52.618 -51.885  1.00  0.00     0.037 A 
HETATM   29  C   UNL     1     -40.092  52.286 -53.232  1.00  0.00     0.065 A 
HETATM   30  C   UNL     1     -41.022  52.758 -54.149  1.00  0.00     0.037 A 
HETATM   31  C   UNL     1     -42.066  53.573 -53.714  1.00  0.00     0.010 A 
BRANCH  29  32
HETATM   32  O   UNL     1     -39.090  51.490 -53.701  1.00  0.00    -0.361 OA
HETATM   33  H   UNL     1     -39.476  50.658 -54.024  1.00  0.00     0.217 HD
ENDBRANCH  29  32
ENDBRANCH  25  26
ENDBRANCH  23  25
ENDBRANCH   1  23
TORSDOF 9
ENDMDL
MODEL 9
REMARK VINA RESULT:      -6.9      2.499      8.298
REMARK  9 active torsions:
REMARK  status: ('A' for Active; 'I' for Inactive)
REMARK    1  A    between atoms: C_2  and  N_3 
REMARK    2  A    between atoms: C_2  and  C_23 
REMARK       I    between atoms: N_3  and  C_4 
REMARK       I    between atoms: C_4  and  N_5 
REMARK    3  A    between atoms: N_5  and  C_6 
REMARK    4  A    between atoms: C_6  and  C_7 
REMARK    5  A    between atoms: C_7  and  N_8 
REMARK    6  A    between atoms: C_7  and  C_14 
REMARK    7  A    between atoms: C_15  and  O_16 
REMARK    8  A    between atoms: C_23  and  C_24 
REMARK    9  A    between atoms: C_27  and  O_28 
ROOT
HETATM    1  N   UNL     1     -41.496  56.186 -52.759  1.00  0.00    -0.339 N 
HETATM    2  C   UNL     1     -41.704  56.840 -53.940  1.00  0.00     0.316 C 
HETATM    3  N   UNL     1     -41.805  58.200 -53.763  1.00  0.00    -0.341 N 
HETATM    4  O   UNL     1     -41.904  56.300 -55.018  1.00  0.00    -0.248 OA
HETATM    5  H   UNL     1     -40.935  56.676 -52.078  1.00  0.00     0.164 HD
HETATM    6  H   UNL     1     -41.313  58.541 -52.948  1.00  0.00     0.164 HD
ENDROOT
BRANCH   3   7
HETATM    7  C   UNL     1     -41.794  59.082 -54.923  1.00  0.00     0.162 C 
BRANCH   7   8
HETATM    8  C   UNL     1     -43.108  59.201 -55.777  1.00  0.00     0.241 C 
BRANCH   8   9
HETATM    9  N   UNL     1     -44.245  59.974 -55.065  1.00  0.00    -0.061 N 
HETATM   10  H   UNL     1     -44.847  60.280 -55.838  1.00  0.00     0.280 HD
HETATM   11  C   UNL     1     -43.888  61.194 -54.254  1.00  0.00     0.236 C 
HETATM   12  C   UNL     1     -44.288  60.853 -52.835  1.00  0.00     0.029 C 
HETATM   13  C   UNL     1     -45.521  59.997 -53.026  1.00  0.00     0.029 C 
HETATM   14  C   UNL     1     -45.162  59.116 -54.209  1.00  0.00     0.236 C 
ENDBRANCH   8   9
BRANCH   8  15
HETATM   15  C   UNL     1     -42.773  59.757 -57.170  1.00  0.00     0.007 A 
HETATM   16  C   UNL     1     -43.550  59.335 -58.277  1.00  0.00     0.076 A 
HETATM   17  C   UNL     1     -43.276  59.820 -59.560  1.00  0.00     0.037 A 
HETATM   18  C   UNL     1     -42.229  60.713 -59.767  1.00  0.00     0.003 A 
HETATM   19  C   UNL     1     -41.447  61.126 -58.695  1.00  0.00     0.001 A 
HETATM   20  C   UNL     1     -41.712  60.650 -57.408  1.00  0.00     0.012 A 
BRANCH  16  21
HETATM   21  O   UNL     1     -44.567  58.462 -57.993  1.00  0.00    -0.355 OA
HETATM   22  C   UNL     1     -44.611  57.246 -58.737  1.00  0.00     0.210 C 
ENDBRANCH  16  21
ENDBRANCH   8  15
ENDBRANCH   7   8
ENDBRANCH   3   7
BRANCH   1  23
HETATM   23  C   UNL     1     -41.438  54.724 -52.652  1.00  0.00     0.086 C 
HETATM   24  C   UNL     1     -42.843  54.120 -52.635  1.00  0.00     0.032 C 
BRANCH  23  25
HETATM   25  C   UNL     1     -40.560  54.041 -53.723  1.00  0.00     0.063 C 
BRANCH  25  26
HETATM   26  C   UNL     1     -40.229  52.601 -53.405  1.00  0.00    -0.056 A 
HETATM   27  C   UNL     1     -40.363  51.600 -54.378  1.00  0.00     0.010 A 
HETATM   28  C   UNL     1     -40.066  50.270 -54.069  1.00  0.00     0.037 A 
HETATM   29  C   UNL     1     -39.636  49.944 -52.788  1.00  0.00     0.065 A 
HETATM   30  C   UNL     1     -39.497  50.922 -51.812  1.00  0.00     0.037 A 
HETATM   31  C   UNL     1     -39.790  52.250 -52.121  1.00  0.00     0.010 A 
BRANCH  29  32
HETATM   32  O   UNL     1     -39.336  48.660 -52.443  1.00  0.00    -0.361 OA
HETATM   33  H   UNL     1     -39.979  48.355 -51.781  1.00  0.00     0.217 HD
ENDBRANCH  29  32
ENDBRANCH  25  26
ENDBRANCH  23  25
ENDBRANCH   1  23
TORSDOF 9
ENDMDL
MODEL 10
REMARK VINA RESULT:      -6.9      2.345      4.339
REMARK  9 active torsions:
REMARK  status: ('A' for Active; 'I' for Inactive)
REMARK    1  A    between atoms: C_2  and  N_3 
REMARK    2  A    between atoms: C_2  and  C_23 
REMARK       I    between atoms: N_3  and  C_4 
REMARK       I    between atoms: C_4  and  N_5 
REMARK    3  A    between atoms: N_5  and  C_6 
REMARK    4  A    between atoms: C_6  and  C_7 
REMARK    5  A    between atoms: C_7  and  N_8 
REMARK    6  A    between atoms: C_7  and  C_14 
REMARK    7  A    between atoms: C_15  and  O_16 
REMARK    8  A    between atoms: C_23  and  C_24 
REMARK    9  A    between atoms: C_27  and  O_28 
ROOT
HETATM    1  N   UNL     1     -43.018  59.378 -58.274  1.00  0.00    -0.339 N 
HETATM    2  C   UNL     1     -43.567  58.845 -57.142  1.00  0.00     0.316 C 
HETATM    3  N   UNL     1     -42.684  58.855 -56.089  1.00  0.00    -0.341 N 
HETATM    4  O   UNL     1     -44.663  58.307 -57.077  1.00  0.00    -0.248 OA
HETATM    5  H   UNL     1     -42.369  60.138 -58.132  1.00  0.00     0.164 HD
HETATM    6  H   UNL     1     -41.986  59.584 -56.151  1.00  0.00     0.164 HD
ENDROOT
BRANCH   3   7
HETATM    7  C   UNL     1     -43.157  58.547 -54.746  1.00  0.00     0.162 C 
BRANCH   7   8
HETATM    8  C   UNL     1     -42.566  57.284 -54.022  1.00  0.00     0.241 C 
BRANCH   8   9
HETATM    9  N   UNL     1     -41.855  56.295 -54.978  1.00  0.00    -0.061 N 
HETATM   10  H   UNL     1     -41.512  56.898 -55.735  1.00  0.00     0.280 HD
HETATM   11  C   UNL     1     -42.669  55.191 -55.607  1.00  0.00     0.236 C 
HETATM   12  C   UNL     1     -42.059  53.908 -55.084  1.00  0.00     0.029 C 
HETATM   13  C   UNL     1     -40.589  54.249 -54.976  1.00  0.00     0.029 C 
HETATM   14  C   UNL     1     -40.591  55.661 -54.419  1.00  0.00     0.236 C 
ENDBRANCH   8   9
BRANCH   8  15
HETATM   15  C   UNL     1     -41.688  57.726 -52.840  1.00  0.00     0.007 A 
HETATM   16  C   UNL     1     -41.906  57.137 -51.571  1.00  0.00     0.076 A 
HETATM   17  C   UNL     1     -41.127  57.513 -50.472  1.00  0.00     0.037 A 
HETATM   18  C   UNL     1     -40.135  58.480 -50.610  1.00  0.00     0.003 A 
HETATM   19  C   UNL     1     -39.917  59.079 -51.844  1.00  0.00     0.001 A 
HETATM   20  C   UNL     1     -40.687  58.710 -52.950  1.00  0.00     0.012 A 
BRANCH  16  21
HETATM   21  O   UNL     1     -42.894  56.189 -51.516  1.00  0.00    -0.355 OA
HETATM   22  C   UNL     1     -42.491  54.840 -51.284  1.00  0.00     0.210 C 
ENDBRANCH  16  21
ENDBRANCH   8  15
ENDBRANCH   7   8
ENDBRANCH   3   7
BRANCH   1  23
HETATM   23  C   UNL     1     -43.715  59.410 -59.564  1.00  0.00     0.086 C 
HETATM   24  C   UNL     1     -43.636  60.801 -60.195  1.00  0.00     0.032 C 
BRANCH  23  25
HETATM   25  C   UNL     1     -43.254  58.327 -60.564  1.00  0.00     0.063 C 
BRANCH  25  26
HETATM   26  C   UNL     1     -43.791  56.948 -60.252  1.00  0.00    -0.056 A 
HETATM   27  C   UNL     1     -45.093  56.583 -60.620  1.00  0.00     0.010 A 
HETATM   28  C   UNL     1     -45.584  55.311 -60.315  1.00  0.00     0.037 A 
HETATM   29  C   UNL     1     -44.769  54.406 -59.643  1.00  0.00     0.065 A 
HETATM   30  C   UNL     1     -43.476  54.750 -59.273  1.00  0.00     0.037 A 
HETATM   31  C   UNL     1     -42.986  56.019 -59.579  1.00  0.00     0.010 A 
BRANCH  29  32
HETATM   32  O   UNL     1     -45.206  53.154 -59.326  1.00  0.00    -0.361 OA
HETATM   33  H   UNL     1     -46.145  53.081 -59.563  1.00  0.00     0.217 HD
ENDBRANCH  29  32
ENDBRANCH  25  26
ENDBRANCH  23  25
ENDBRANCH   1  23
TORSDOF 9
ENDMDL
