MODEL 1
REMARK VINA RESULT:      -8.1      0.000      0.000
REMARK  6 active torsions:
REMARK  status: ('A' for Active; 'I' for Inactive)
REMARK    1  A    between atoms: C_2  and  O_3 
REMARK    2  A    between atoms: O_3  and  C_4 
REMARK    3  A    between atoms: C_7  and  C_8 
REMARK    4  A    between atoms: C_8  and  N_9 
REMARK       I    between atoms: N_9  and  C_10 
REMARK    5  A    between atoms: C_10  and  C_11 
REMARK    6  A    between atoms: C_15  and  C_16 
ROOT
HETATM    1  N   UNL     1     -42.331  56.506 -56.802  1.00  0.00    -0.347 N 
HETATM    2  C   UNL     1     -42.773  56.285 -55.515  1.00  0.00     0.272 C 
HETATM    3  O   UNL     1     -43.791  56.792 -55.051  1.00  0.00    -0.266 OA
HETATM    4  H   UNL     1     -41.432  56.094 -57.031  1.00  0.00     0.163 HD
ENDROOT
BRANCH   2   5
HETATM    5  C   UNL     1     -41.894  55.416 -54.723  1.00  0.00     0.146 A 
HETATM    6  N   UNL     1     -41.109  55.878 -53.731  1.00  0.00    -0.169 NA
HETATM    7  N   UNL     1     -40.529  54.768 -53.237  1.00  0.00    -0.277 N 
HETATM    8  H   UNL     1     -39.904  54.874 -52.447  1.00  0.00     0.189 HD
HETATM    9  C   UNL     1     -40.885  53.601 -53.867  1.00  0.00     0.063 A 
HETATM   10  C   UNL     1     -41.774  54.009 -54.845  1.00  0.00     0.071 A 
BRANCH   9  11
HETATM   11  C   UNL     1     -40.403  52.267 -53.493  1.00  0.00    -0.008 A 
HETATM   12  C   UNL     1     -39.902  52.037 -52.200  1.00  0.00     0.014 A 
HETATM   13  C   UNL     1     -39.431  50.777 -51.820  1.00  0.00     0.001 A 
HETATM   14  C   UNL     1     -39.453  49.723 -52.727  1.00  0.00     0.000 A 
HETATM   15  C   UNL     1     -39.947  49.929 -54.011  1.00  0.00     0.001 A 
HETATM   16  C   UNL     1     -40.420  51.191 -54.392  1.00  0.00     0.014 A 
ENDBRANCH   9  11
ENDBRANCH   2   5
BRANCH   1  17
HETATM   17  C   UNL     1     -42.893  57.554 -57.623  1.00  0.00     0.114 C 
HETATM   18  C   UNL     1     -41.783  58.340 -58.330  1.00  0.00     0.037 C 
BRANCH  17  19
HETATM   19  C   UNL     1     -43.916  57.006 -58.599  1.00  0.00    -0.036 A 
HETATM   20  C   UNL     1     -45.104  57.718 -58.824  1.00  0.00     0.012 A 
HETATM   21  C   UNL     1     -46.030  57.281 -59.773  1.00  0.00     0.037 A 
HETATM   22  C   UNL     1     -45.784  56.132 -60.520  1.00  0.00     0.068 A 
HETATM   23  C   UNL     1     -44.637  55.380 -60.268  1.00  0.00     0.037 A 
HETATM   24  C   UNL     1     -43.709  55.815 -59.312  1.00  0.00     0.012 A 
BRANCH  22  25
HETATM   25  O   UNL     1     -46.738  55.828 -61.453  1.00  0.00    -0.352 OA
BRANCH  25  26
HETATM   26  C   UNL     1     -47.910  56.642 -61.424  1.00  0.00     0.171 C 
HETATM   27  C   UNL     1     -48.468  56.706 -62.836  1.00  0.00     0.034 C 
ENDBRANCH  25  26
ENDBRANCH  22  25
ENDBRANCH  17  19
ENDBRANCH   1  17
TORSDOF 6
ENDMDL
MODEL 2
REMARK VINA RESULT:      -8.1      1.010      1.105
REMARK  6 active torsions:
REMARK  status: ('A' for Active; 'I' for Inactive)
REMARK    1  A    between atoms: C_2  and  O_3 
REMARK    2  A    between atoms: O_3  and  C_4 
REMARK    3  A    between atoms: C_7  and  C_8 
REMARK    4  A    between atoms: C_8  and  N_9 
REMARK       I    between atoms: N_9  and  C_10 
REMARK    5  A    between atoms: C_10  and  C_11 
REMARK    6  A    between atoms: C_15  and  C_16 
ROOT
HETATM    1  N   UNL     1     -42.438  56.416 -57.675  1.00  0.00    -0.347 N 
HETATM    2  C   UNL     1     -42.555  56.927 -56.400  1.00  0.00     0.272 C 
HETATM    3  O   UNL     1     -43.146  57.971 -56.139  1.00  0.00    -0.266 OA
HETATM    4  H   UNL     1     -41.854  55.591 -57.764  1.00  0.00     0.163 HD
ENDROOT
BRANCH   2   5
HETATM    5  C   UNL     1     -41.872  56.129 -55.374  1.00  0.00     0.146 A 
HETATM    6  N   UNL     1     -41.472  56.643 -54.195  1.00  0.00    -0.169 NA
HETATM    7  N   UNL     1     -40.959  55.584 -53.541  1.00  0.00    -0.277 N 
HETATM    8  H   UNL     1     -40.614  55.732 -52.600  1.00  0.00     0.189 HD
HETATM    9  C   UNL     1     -40.990  54.403 -54.241  1.00  0.00     0.063 A 
HETATM   10  C   UNL     1     -41.581  54.744 -55.443  1.00  0.00     0.071 A 
BRANCH   9  11
HETATM   11  C   UNL     1     -40.511  53.114 -53.728  1.00  0.00    -0.008 A 
HETATM   12  C   UNL     1     -40.170  52.979 -52.372  1.00  0.00     0.014 A 
HETATM   13  C   UNL     1     -39.706  51.763 -51.860  1.00  0.00     0.001 A 
HETATM   14  C   UNL     1     -39.575  50.660 -52.696  1.00  0.00     0.000 A 
HETATM   15  C   UNL     1     -39.909  50.772 -54.042  1.00  0.00     0.001 A 
HETATM   16  C   UNL     1     -40.376  51.989 -54.555  1.00  0.00     0.014 A 
ENDBRANCH   9  11
ENDBRANCH   2   5
BRANCH   1  17
HETATM   17  C   UNL     1     -42.782  57.205 -58.838  1.00  0.00     0.114 C 
HETATM   18  C   UNL     1     -41.701  57.075 -59.916  1.00  0.00     0.037 C 
BRANCH  17  19
HETATM   19  C   UNL     1     -44.159  56.848 -59.362  1.00  0.00    -0.036 A 
HETATM   20  C   UNL     1     -45.279  57.549 -58.890  1.00  0.00     0.012 A 
HETATM   21  C   UNL     1     -46.550  57.298 -59.409  1.00  0.00     0.037 A 
HETATM   22  C   UNL     1     -46.726  56.349 -60.414  1.00  0.00     0.068 A 
HETATM   23  C   UNL     1     -45.634  55.602 -60.852  1.00  0.00     0.037 A 
HETATM   24  C   UNL     1     -44.358  55.850 -60.329  1.00  0.00     0.012 A 
BRANCH  22  25
HETATM   25  O   UNL     1     -48.007  56.223 -60.878  1.00  0.00    -0.352 OA
BRANCH  25  26
HETATM   26  C   UNL     1     -48.219  56.646 -62.226  1.00  0.00     0.171 C 
HETATM   27  C   UNL     1     -48.716  58.081 -62.191  1.00  0.00     0.034 C 
ENDBRANCH  25  26
ENDBRANCH  22  25
ENDBRANCH  17  19
ENDBRANCH   1  17
TORSDOF 6
ENDMDL
MODEL 3
REMARK VINA RESULT:      -7.6      1.533      2.140
REMARK  6 active torsions:
REMARK  status: ('A' for Active; 'I' for Inactive)
REMARK    1  A    between atoms: C_2  and  O_3 
REMARK    2  A    between atoms: O_3  and  C_4 
REMARK    3  A    between atoms: C_7  and  C_8 
REMARK    4  A    between atoms: C_8  and  N_9 
REMARK       I    between atoms: N_9  and  C_10 
REMARK    5  A    between atoms: C_10  and  C_11 
REMARK    6  A    between atoms: C_15  and  C_16 
ROOT
HETATM    1  N   UNL     1     -42.551  56.632 -54.853  1.00  0.00    -0.347 N 
HETATM    2  C   UNL     1     -42.482  56.668 -53.478  1.00  0.00     0.272 C 
HETATM    3  O   UNL     1     -42.974  57.565 -52.797  1.00  0.00    -0.266 OA
HETATM    4  H   UNL     1     -42.032  55.881 -55.297  1.00  0.00     0.163 HD
ENDROOT
BRANCH   2   5
HETATM    5  C   UNL     1     -41.729  55.554 -52.888  1.00  0.00     0.146 A 
HETATM    6  N   UNL     1     -41.208  55.599 -51.646  1.00  0.00    -0.169 NA
HETATM    7  N   UNL     1     -40.665  54.379 -51.482  1.00  0.00    -0.277 N 
HETATM    8  H   UNL     1     -40.231  54.172 -50.591  1.00  0.00     0.189 HD
HETATM    9  C   UNL     1     -40.791  53.540 -52.563  1.00  0.00     0.063 A 
HETATM   10  C   UNL     1     -41.481  54.296 -53.492  1.00  0.00     0.071 A 
BRANCH   9  11
HETATM   11  C   UNL     1     -40.300  52.158 -52.611  1.00  0.00    -0.008 A 
HETATM   12  C   UNL     1     -39.886  51.517 -51.431  1.00  0.00     0.014 A 
HETATM   13  C   UNL     1     -39.410  50.203 -51.450  1.00  0.00     0.001 A 
HETATM   14  C   UNL     1     -39.338  49.506 -52.651  1.00  0.00     0.000 A 
HETATM   15  C   UNL     1     -39.745  50.121 -53.831  1.00  0.00     0.001 A 
HETATM   16  C   UNL     1     -40.225  51.438 -53.811  1.00  0.00     0.014 A 
ENDBRANCH   9  11
ENDBRANCH   2   5
BRANCH   1  17
HETATM   17  C   UNL     1     -42.986  57.780 -55.617  1.00  0.00     0.114 C 
HETATM   18  C   UNL     1     -42.000  58.941 -55.454  1.00  0.00     0.037 C 
BRANCH  17  19
HETATM   19  C   UNL     1     -43.213  57.423 -57.074  1.00  0.00    -0.036 A 
HETATM   20  C   UNL     1     -43.097  56.085 -57.481  1.00  0.00     0.012 A 
HETATM   21  C   UNL     1     -43.375  55.713 -58.798  1.00  0.00     0.037 A 
HETATM   22  C   UNL     1     -43.780  56.666 -59.729  1.00  0.00     0.068 A 
HETATM   23  C   UNL     1     -43.842  58.009 -59.356  1.00  0.00     0.037 A 
HETATM   24  C   UNL     1     -43.559  58.384 -58.036  1.00  0.00     0.012 A 
BRANCH  22  25
HETATM   25  O   UNL     1     -44.071  56.179 -60.974  1.00  0.00    -0.352 OA
BRANCH  25  26
HETATM   26  C   UNL     1     -45.121  55.213 -61.028  1.00  0.00     0.171 C 
HETATM   27  C   UNL     1     -46.439  55.948 -60.860  1.00  0.00     0.034 C 
ENDBRANCH  25  26
ENDBRANCH  22  25
ENDBRANCH  17  19
ENDBRANCH   1  17
TORSDOF 6
ENDMDL
MODEL 4
REMARK VINA RESULT:      -7.5      4.568      6.971
REMARK  6 active torsions:
REMARK  status: ('A' for Active; 'I' for Inactive)
REMARK    1  A    between atoms: C_2  and  O_3 
REMARK    2  A    between atoms: O_3  and  C_4 
REMARK    3  A    between atoms: C_7  and  C_8 
REMARK    4  A    between atoms: C_8  and  N_9 
REMARK       I    between atoms: N_9  and  C_10 
REMARK    5  A    between atoms: C_10  and  C_11 
REMARK    6  A    between atoms: C_15  and  C_16 
ROOT
HETATM    1  N   UNL     1     -42.660  57.647 -53.886  1.00  0.00    -0.347 N 
HETATM    2  C   UNL     1     -41.446  57.190 -53.420  1.00  0.00     0.272 C 
HETATM    3  O   UNL     1     -40.669  57.876 -52.761  1.00  0.00    -0.266 OA
HETATM    4  H   UNL     1     -43.166  57.007 -54.488  1.00  0.00     0.163 HD
ENDROOT
BRANCH   2   5
HETATM    5  C   UNL     1     -41.136  55.810 -53.817  1.00  0.00     0.146 A 
HETATM    6  N   UNL     1     -40.981  55.435 -55.101  1.00  0.00    -0.169 NA
HETATM    7  N   UNL     1     -40.654  54.132 -55.017  1.00  0.00    -0.277 N 
HETATM    8  H   UNL     1     -40.459  53.638 -55.880  1.00  0.00     0.189 HD
HETATM    9  C   UNL     1     -40.601  53.630 -53.740  1.00  0.00     0.063 A 
HETATM   10  C   UNL     1     -40.919  54.715 -52.943  1.00  0.00     0.071 A 
BRANCH   9  11
HETATM   11  C   UNL     1     -40.245  52.249 -53.397  1.00  0.00    -0.008 A 
HETATM   12  C   UNL     1     -39.840  51.930 -52.090  1.00  0.00     0.014 A 
HETATM   13  C   UNL     1     -39.491  50.623 -51.739  1.00  0.00     0.001 A 
HETATM   14  C   UNL     1     -39.540  49.609 -52.690  1.00  0.00     0.000 A 
HETATM   15  C   UNL     1     -39.941  49.904 -53.990  1.00  0.00     0.001 A 
HETATM   16  C   UNL     1     -40.293  51.213 -54.341  1.00  0.00     0.014 A 
ENDBRANCH   9  11
ENDBRANCH   2   5
BRANCH   1  17
HETATM   17  C   UNL     1     -42.999  59.053 -53.852  1.00  0.00     0.114 C 
HETATM   18  C   UNL     1     -43.719  59.464 -55.141  1.00  0.00     0.037 C 
BRANCH  17  19
HETATM   19  C   UNL     1     -43.801  59.400 -52.614  1.00  0.00    -0.036 A 
HETATM   20  C   UNL     1     -44.792  58.515 -52.164  1.00  0.00     0.012 A 
HETATM   21  C   UNL     1     -45.494  58.768 -50.985  1.00  0.00     0.037 A 
HETATM   22  C   UNL     1     -45.216  59.904 -50.228  1.00  0.00     0.068 A 
HETATM   23  C   UNL     1     -44.276  60.824 -50.692  1.00  0.00     0.037 A 
HETATM   24  C   UNL     1     -43.573  60.574 -51.878  1.00  0.00     0.012 A 
BRANCH  22  25
HETATM   25  O   UNL     1     -45.932  60.023 -49.069  1.00  0.00    -0.352 OA
BRANCH  25  26
HETATM   26  C   UNL     1     -45.611  61.155 -48.259  1.00  0.00     0.171 C 
HETATM   27  C   UNL     1     -45.547  60.690 -46.814  1.00  0.00     0.034 C 
ENDBRANCH  25  26
ENDBRANCH  22  25
ENDBRANCH  17  19
ENDBRANCH   1  17
TORSDOF 6
ENDMDL
MODEL 5
REMARK VINA RESULT:      -7.4      2.132      9.606
REMARK  6 active torsions:
REMARK  status: ('A' for Active; 'I' for Inactive)
REMARK    1  A    between atoms: C_2  and  O_3 
REMARK    2  A    between atoms: O_3  and  C_4 
REMARK    3  A    between atoms: C_7  and  C_8 
REMARK    4  A    between atoms: C_8  and  N_9 
REMARK       I    between atoms: N_9  and  C_10 
REMARK    5  A    between atoms: C_10  and  C_11 
REMARK    6  A    between atoms: C_15  and  C_16 
ROOT
HETATM    1  N   UNL     1     -43.311  55.907 -56.120  1.00  0.00    -0.347 N 
HETATM    2  C   UNL     1     -43.063  56.741 -57.188  1.00  0.00     0.272 C 
HETATM    3  O   UNL     1     -42.179  57.594 -57.192  1.00  0.00    -0.266 OA
HETATM    4  H   UNL     1     -44.123  55.305 -56.215  1.00  0.00     0.163 HD
ENDROOT
BRANCH   2   5
HETATM    5  C   UNL     1     -43.978  56.549 -58.321  1.00  0.00     0.146 A 
HETATM    6  N   UNL     1     -44.004  55.423 -59.058  1.00  0.00    -0.169 NA
HETATM    7  N   UNL     1     -45.005  55.635 -59.932  1.00  0.00    -0.277 N 
HETATM    8  H   UNL     1     -45.229  54.891 -60.583  1.00  0.00     0.189 HD
HETATM    9  C   UNL     1     -45.629  56.853 -59.813  1.00  0.00     0.063 A 
HETATM   10  C   UNL     1     -44.965  57.465 -58.766  1.00  0.00     0.071 A 
BRANCH   9  11
HETATM   11  C   UNL     1     -46.758  57.300 -60.636  1.00  0.00    -0.008 A 
HETATM   12  C   UNL     1     -47.111  58.659 -60.668  1.00  0.00     0.014 A 
HETATM   13  C   UNL     1     -48.186  59.110 -61.440  1.00  0.00     0.001 A 
HETATM   14  C   UNL     1     -48.928  58.208 -62.195  1.00  0.00     0.000 A 
HETATM   15  C   UNL     1     -48.593  56.858 -62.179  1.00  0.00     0.001 A 
HETATM   16  C   UNL     1     -47.515  56.406 -61.407  1.00  0.00     0.014 A 
ENDBRANCH   9  11
ENDBRANCH   2   5
BRANCH   1  17
HETATM   17  C   UNL     1     -42.718  56.145 -54.823  1.00  0.00     0.114 C 
HETATM   18  C   UNL     1     -43.779  56.624 -53.825  1.00  0.00     0.037 C 
BRANCH  17  19
HETATM   19  C   UNL     1     -41.972  54.925 -54.321  1.00  0.00    -0.036 A 
HETATM   20  C   UNL     1     -41.020  54.312 -55.150  1.00  0.00     0.012 A 
HETATM   21  C   UNL     1     -40.260  53.234 -54.690  1.00  0.00     0.037 A 
HETATM   22  C   UNL     1     -40.431  52.754 -53.394  1.00  0.00     0.068 A 
HETATM   23  C   UNL     1     -41.414  53.313 -52.578  1.00  0.00     0.037 A 
HETATM   24  C   UNL     1     -42.180  54.392 -53.040  1.00  0.00     0.012 A 
BRANCH  22  25
HETATM   25  O   UNL     1     -39.599  51.728 -53.037  1.00  0.00    -0.352 OA
BRANCH  25  26
HETATM   26  C   UNL     1     -39.494  51.477 -51.636  1.00  0.00     0.171 C 
HETATM   27  C   UNL     1     -39.528  49.973 -51.428  1.00  0.00     0.034 C 
ENDBRANCH  25  26
ENDBRANCH  22  25
ENDBRANCH  17  19
ENDBRANCH   1  17
TORSDOF 6
ENDMDL
MODEL 6
REMARK VINA RESULT:      -7.4      2.875      8.961
REMARK  6 active torsions:
REMARK  status: ('A' for Active; 'I' for Inactive)
REMARK    1  A    between atoms: C_2  and  O_3 
REMARK    2  A    between atoms: O_3  and  C_4 
REMARK    3  A    between atoms: C_7  and  C_8 
REMARK    4  A    between atoms: C_8  and  N_9 
REMARK       I    between atoms: N_9  and  C_10 
REMARK    5  A    between atoms: C_10  and  C_11 
REMARK    6  A    between atoms: C_15  and  C_16 
ROOT
HETATM    1  N   UNL     1     -41.931  57.298 -53.534  1.00  0.00    -0.347 N 
HETATM    2  C   UNL     1     -41.644  58.359 -54.366  1.00  0.00     0.272 C 
HETATM    3  O   UNL     1     -40.953  59.317 -54.030  1.00  0.00    -0.266 OA
HETATM    4  H   UNL     1     -42.581  56.614 -53.907  1.00  0.00     0.163 HD
ENDROOT
BRANCH   2   5
HETATM    5  C   UNL     1     -42.274  58.267 -55.689  1.00  0.00     0.146 A 
HETATM    6  N   UNL     1     -42.248  59.275 -56.583  1.00  0.00    -0.169 NA
HETATM    7  N   UNL     1     -42.873  58.763 -57.660  1.00  0.00    -0.277 N 
HETATM    8  H   UNL     1     -42.948  59.348 -58.483  1.00  0.00     0.189 HD
HETATM    9  C   UNL     1     -43.320  57.473 -57.510  1.00  0.00     0.063 A 
HETATM   10  C   UNL     1     -42.940  57.136 -56.224  1.00  0.00     0.071 A 
BRANCH   9  11
HETATM   11  C   UNL     1     -44.007  56.700 -58.551  1.00  0.00    -0.008 A 
HETATM   12  C   UNL     1     -45.056  57.282 -59.283  1.00  0.00     0.014 A 
HETATM   13  C   UNL     1     -45.730  56.565 -60.276  1.00  0.00     0.001 A 
HETATM   14  C   UNL     1     -45.367  55.252 -60.555  1.00  0.00     0.000 A 
HETATM   15  C   UNL     1     -44.329  54.658 -59.844  1.00  0.00     0.001 A 
HETATM   16  C   UNL     1     -43.652  55.377 -58.850  1.00  0.00     0.014 A 
ENDBRANCH   9  11
ENDBRANCH   2   5
BRANCH   1  17
HETATM   17  C   UNL     1     -41.652  57.354 -52.116  1.00  0.00     0.114 C 
HETATM   18  C   UNL     1     -42.806  58.029 -51.366  1.00  0.00     0.037 C 
BRANCH  17  19
HETATM   19  C   UNL     1     -41.333  55.981 -51.559  1.00  0.00    -0.036 A 
HETATM   20  C   UNL     1     -41.215  54.892 -52.436  1.00  0.00     0.012 A 
HETATM   21  C   UNL     1     -40.846  53.631 -51.964  1.00  0.00     0.037 A 
HETATM   22  C   UNL     1     -40.582  53.435 -50.611  1.00  0.00     0.068 A 
HETATM   23  C   UNL     1     -40.753  54.491 -49.717  1.00  0.00     0.037 A 
HETATM   24  C   UNL     1     -41.127  55.757 -50.189  1.00  0.00     0.012 A 
BRANCH  22  25
HETATM   25  O   UNL     1     -40.183  52.170 -50.272  1.00  0.00    -0.352 OA
BRANCH  25  26
HETATM   26  C   UNL     1     -39.770  51.342 -51.358  1.00  0.00     0.171 C 
HETATM   27  C   UNL     1     -39.679  49.914 -50.847  1.00  0.00     0.034 C 
ENDBRANCH  25  26
ENDBRANCH  22  25
ENDBRANCH  17  19
ENDBRANCH   1  17
TORSDOF 6
ENDMDL
MODEL 7
REMARK VINA RESULT:      -7.2      2.094      2.836
REMARK  6 active torsions:
REMARK  status: ('A' for Active; 'I' for Inactive)
REMARK    1  A    between atoms: C_2  and  O_3 
REMARK    2  A    between atoms: O_3  and  C_4 
REMARK    3  A    between atoms: C_7  and  C_8 
REMARK    4  A    between atoms: C_8  and  N_9 
REMARK       I    between atoms: N_9  and  C_10 
REMARK    5  A    between atoms: C_10  and  C_11 
REMARK    6  A    between atoms: C_15  and  C_16 
ROOT
HETATM    1  N   UNL     1     -43.821  55.549 -57.968  1.00  0.00    -0.347 N 
HETATM    2  C   UNL     1     -42.908  56.190 -57.158  1.00  0.00     0.272 C 
HETATM    3  O   UNL     1     -42.330  57.227 -57.473  1.00  0.00    -0.266 OA
HETATM    4  H   UNL     1     -44.161  54.657 -57.623  1.00  0.00     0.163 HD
ENDROOT
BRANCH   2   5
HETATM    5  C   UNL     1     -42.651  55.500 -55.887  1.00  0.00     0.146 A 
HETATM    6  N   UNL     1     -43.488  55.569 -54.834  1.00  0.00    -0.169 NA
HETATM    7  N   UNL     1     -42.919  54.762 -53.919  1.00  0.00    -0.277 N 
HETATM    8  H   UNL     1     -43.401  54.636 -53.037  1.00  0.00     0.189 HD
HETATM    9  C   UNL     1     -41.741  54.178 -54.316  1.00  0.00     0.063 A 
HETATM   10  C   UNL     1     -41.550  54.654 -55.600  1.00  0.00     0.071 A 
BRANCH   9  11
HETATM   11  C   UNL     1     -40.954  53.245 -53.502  1.00  0.00    -0.008 A 
HETATM   12  C   UNL     1     -40.282  52.173 -54.112  1.00  0.00     0.014 A 
HETATM   13  C   UNL     1     -39.529  51.267 -53.359  1.00  0.00     0.001 A 
HETATM   14  C   UNL     1     -39.435  51.418 -51.980  1.00  0.00     0.000 A 
HETATM   15  C   UNL     1     -40.090  52.475 -51.356  1.00  0.00     0.001 A 
HETATM   16  C   UNL     1     -40.843  53.384 -52.111  1.00  0.00     0.014 A 
ENDBRANCH   9  11
ENDBRANCH   2   5
BRANCH   1  17
HETATM   17  C   UNL     1     -43.977  55.910 -59.359  1.00  0.00     0.114 C 
HETATM   18  C   UNL     1     -44.489  54.715 -60.171  1.00  0.00     0.037 C 
BRANCH  17  19
HETATM   19  C   UNL     1     -44.861  57.131 -59.520  1.00  0.00    -0.036 A 
HETATM   20  C   UNL     1     -46.132  57.144 -58.925  1.00  0.00     0.012 A 
HETATM   21  C   UNL     1     -46.938  58.282 -58.989  1.00  0.00     0.037 A 
HETATM   22  C   UNL     1     -46.489  59.429 -59.639  1.00  0.00     0.068 A 
HETATM   23  C   UNL     1     -45.255  59.412 -60.287  1.00  0.00     0.037 A 
HETATM   24  C   UNL     1     -44.446  58.270 -60.227  1.00  0.00     0.012 A 
BRANCH  22  25
HETATM   25  O   UNL     1     -47.344  60.496 -59.596  1.00  0.00    -0.352 OA
BRANCH  25  26
HETATM   26  C   UNL     1     -47.684  61.066 -60.860  1.00  0.00     0.171 C 
HETATM   27  C   UNL     1     -48.889  60.315 -61.401  1.00  0.00     0.034 C 
ENDBRANCH  25  26
ENDBRANCH  22  25
ENDBRANCH  17  19
ENDBRANCH   1  17
TORSDOF 6
ENDMDL
MODEL 8
REMARK VINA RESULT:      -7.1     15.201     16.897
REMARK  6 active torsions:
REMARK  status: ('A' for Active; 'I' for Inactive)
REMARK    1  A    between atoms: C_2  and  O_3 
REMARK    2  A    between atoms: O_3  and  C_4 
REMARK    3  A    between atoms: C_7  and  C_8 
REMARK    4  A    between atoms: C_8  and  N_9 
REMARK       I    between atoms: N_9  and  C_10 
REMARK    5  A    between atoms: C_10  and  C_11 
REMARK    6  A    between atoms: C_15  and  C_16 
ROOT
HETATM    1  N   UNL     1     -36.125  41.052 -54.670  1.00  0.00    -0.347 N 
HETATM    2  C   UNL     1     -36.082  41.528 -53.377  1.00  0.00     0.272 C 
HETATM    3  O   UNL     1     -36.423  42.665 -53.061  1.00  0.00    -0.266 OA
HETATM    4  H   UNL     1     -35.736  40.124 -54.807  1.00  0.00     0.163 HD
ENDROOT
BRANCH   2   5
HETATM    5  C   UNL     1     -35.550  40.565 -52.404  1.00  0.00     0.146 A 
HETATM    6  N   UNL     1     -35.801  39.244 -52.469  1.00  0.00    -0.169 NA
HETATM    7  N   UNL     1     -35.090  38.731 -51.448  1.00  0.00    -0.277 N 
HETATM    8  H   UNL     1     -35.107  37.727 -51.318  1.00  0.00     0.189 HD
HETATM    9  C   UNL     1     -34.395  39.655 -50.707  1.00  0.00     0.063 A 
HETATM   10  C   UNL     1     -34.689  40.861 -51.317  1.00  0.00     0.071 A 
BRANCH   9  11
HETATM   11  C   UNL     1     -33.533  39.334 -49.563  1.00  0.00    -0.008 A 
HETATM   12  C   UNL     1     -32.317  40.014 -49.385  1.00  0.00     0.014 A 
HETATM   13  C   UNL     1     -31.476  39.723 -48.307  1.00  0.00     0.001 A 
HETATM   14  C   UNL     1     -31.837  38.746 -47.386  1.00  0.00     0.000 A 
HETATM   15  C   UNL     1     -33.039  38.062 -47.542  1.00  0.00     0.001 A 
HETATM   16  C   UNL     1     -33.882  38.355 -48.622  1.00  0.00     0.014 A 
ENDBRANCH   9  11
ENDBRANCH   2   5
BRANCH   1  17
HETATM   17  C   UNL     1     -36.333  41.937 -55.793  1.00  0.00     0.114 C 
HETATM   18  C   UNL     1     -35.022  42.626 -56.187  1.00  0.00     0.037 C 
BRANCH  17  19
HETATM   19  C   UNL     1     -36.970  41.211 -56.962  1.00  0.00    -0.036 A 
HETATM   20  C   UNL     1     -36.910  41.781 -58.242  1.00  0.00     0.012 A 
HETATM   21  C   UNL     1     -37.418  41.102 -59.351  1.00  0.00     0.037 A 
HETATM   22  C   UNL     1     -37.988  39.840 -59.204  1.00  0.00     0.068 A 
HETATM   23  C   UNL     1     -38.110  39.285 -57.931  1.00  0.00     0.037 A 
HETATM   24  C   UNL     1     -37.604  39.968 -56.816  1.00  0.00     0.012 A 
BRANCH  22  25
HETATM   25  O   UNL     1     -38.408  39.250 -60.365  1.00  0.00    -0.352 OA
BRANCH  25  26
HETATM   26  C   UNL     1     -38.965  37.943 -60.228  1.00  0.00     0.171 C 
HETATM   27  C   UNL     1     -40.435  38.021 -60.602  1.00  0.00     0.034 C 
ENDBRANCH  25  26
ENDBRANCH  22  25
ENDBRANCH  17  19
ENDBRANCH   1  17
TORSDOF 6
ENDMDL
MODEL 9
REMARK VINA RESULT:      -7.1      2.746      4.267
REMARK  6 active torsions:
REMARK  status: ('A' for Active; 'I' for Inactive)
REMARK    1  A    between atoms: C_2  and  O_3 
REMARK    2  A    between atoms: O_3  and  C_4 
REMARK    3  A    between atoms: C_7  and  C_8 
REMARK    4  A    between atoms: C_8  and  N_9 
REMARK       I    between atoms: N_9  and  C_10 
REMARK    5  A    between atoms: C_10  and  C_11 
REMARK    6  A    between atoms: C_15  and  C_16 
ROOT
HETATM    1  N   UNL     1     -43.956  57.145 -57.075  1.00  0.00    -0.347 N 
HETATM    2  C   UNL     1     -43.262  55.961 -57.202  1.00  0.00     0.272 C 
HETATM    3  O   UNL     1     -42.998  55.442 -58.283  1.00  0.00    -0.266 OA
HETATM    4  H   UNL     1     -44.180  57.421 -56.124  1.00  0.00     0.163 HD
ENDROOT
BRANCH   2   5
HETATM    5  C   UNL     1     -42.895  55.345 -55.920  1.00  0.00     0.146 A 
HETATM    6  N   UNL     1     -43.641  55.473 -54.807  1.00  0.00    -0.169 NA
HETATM    7  N   UNL     1     -42.993  54.719 -53.899  1.00  0.00    -0.277 N 
HETATM    8  H   UNL     1     -43.398  54.643 -52.973  1.00  0.00     0.189 HD
HETATM    9  C   UNL     1     -41.849  54.115 -54.359  1.00  0.00     0.063 A 
HETATM   10  C   UNL     1     -41.769  54.518 -55.679  1.00  0.00     0.071 A 
BRANCH   9  11
HETATM   11  C   UNL     1     -40.991  53.231 -53.563  1.00  0.00    -0.008 A 
HETATM   12  C   UNL     1     -40.804  53.479 -52.193  1.00  0.00     0.014 A 
HETATM   13  C   UNL     1     -39.987  52.655 -51.413  1.00  0.00     0.001 A 
HETATM   14  C   UNL     1     -39.342  51.567 -51.990  1.00  0.00     0.000 A 
HETATM   15  C   UNL     1     -39.515  51.302 -53.345  1.00  0.00     0.001 A 
HETATM   16  C   UNL     1     -40.335  52.127 -54.126  1.00  0.00     0.014 A 
ENDBRANCH   9  11
ENDBRANCH   2   5
BRANCH   1  17
HETATM   17  C   UNL     1     -44.651  57.736 -58.197  1.00  0.00     0.114 C 
HETATM   18  C   UNL     1     -45.985  58.341 -57.747  1.00  0.00     0.037 C 
BRANCH  17  19
HETATM   19  C   UNL     1     -43.780  58.745 -58.920  1.00  0.00    -0.036 A 
HETATM   20  C   UNL     1     -43.652  60.041 -58.400  1.00  0.00     0.012 A 
HETATM   21  C   UNL     1     -42.798  60.970 -58.998  1.00  0.00     0.037 A 
HETATM   22  C   UNL     1     -42.051  60.620 -60.120  1.00  0.00     0.068 A 
HETATM   23  C   UNL     1     -42.212  59.355 -60.685  1.00  0.00     0.037 A 
HETATM   24  C   UNL     1     -43.072  58.423 -60.088  1.00  0.00     0.012 A 
BRANCH  22  25
HETATM   25  O   UNL     1     -41.213  61.594 -60.591  1.00  0.00    -0.352 OA
BRANCH  25  26
HETATM   26  C   UNL     1     -41.023  62.714 -59.726  1.00  0.00     0.171 C 
HETATM   27  C   UNL     1     -39.541  62.813 -59.411  1.00  0.00     0.034 C 
ENDBRANCH  25  26
ENDBRANCH  22  25
ENDBRANCH  17  19
ENDBRANCH   1  17
TORSDOF 6
ENDMDL
MODEL 10
REMARK VINA RESULT:      -7.1      3.239      9.127
REMARK  6 active torsions:
REMARK  status: ('A' for Active; 'I' for Inactive)
REMARK    1  A    between atoms: C_2  and  O_3 
REMARK    2  A    between atoms: O_3  and  C_4 
REMARK    3  A    between atoms: C_7  and  C_8 
REMARK    4  A    between atoms: C_8  and  N_9 
REMARK       I    between atoms: N_9  and  C_10 
REMARK    5  A    between atoms: C_10  and  C_11 
REMARK    6  A    between atoms: C_15  and  C_16 
ROOT
HETATM    1  N   UNL     1     -43.292  56.200 -52.097  1.00  0.00    -0.347 N 
HETATM    2  C   UNL     1     -44.276  57.143 -51.895  1.00  0.00     0.272 C 
HETATM    3  O   UNL     1     -44.742  57.412 -50.791  1.00  0.00    -0.266 OA
HETATM    4  H   UNL     1     -43.056  56.016 -53.067  1.00  0.00     0.163 HD
ENDROOT
BRANCH   2   5
HETATM    5  C   UNL     1     -44.756  57.779 -53.129  1.00  0.00     0.146 A 
HETATM    6  N   UNL     1     -45.204  59.049 -53.171  1.00  0.00    -0.169 NA
HETATM    7  N   UNL     1     -45.481  59.248 -54.473  1.00  0.00    -0.277 N 
HETATM    8  H   UNL     1     -45.813  60.164 -54.750  1.00  0.00     0.189 HD
HETATM    9  C   UNL     1     -45.250  58.164 -55.286  1.00  0.00     0.063 A 
HETATM   10  C   UNL     1     -44.780  57.194 -54.420  1.00  0.00     0.071 A 
BRANCH   9  11
HETATM   11  C   UNL     1     -45.455  58.149 -56.738  1.00  0.00    -0.008 A 
HETATM   12  C   UNL     1     -46.746  58.312 -57.268  1.00  0.00     0.014 A 
HETATM   13  C   UNL     1     -46.969  58.296 -58.648  1.00  0.00     0.001 A 
HETATM   14  C   UNL     1     -45.904  58.116 -59.524  1.00  0.00     0.000 A 
HETATM   15  C   UNL     1     -44.617  57.955 -59.020  1.00  0.00     0.001 A 
HETATM   16  C   UNL     1     -44.393  57.973 -57.637  1.00  0.00     0.014 A 
ENDBRANCH   9  11
ENDBRANCH   2   5
BRANCH   1  17
HETATM   17  C   UNL     1     -42.913  55.271 -51.057  1.00  0.00     0.114 C 
HETATM   18  C   UNL     1     -44.145  54.543 -50.509  1.00  0.00     0.037 C 
BRANCH  17  19
HETATM   19  C   UNL     1     -41.846  54.306 -51.536  1.00  0.00    -0.036 A 
HETATM   20  C   UNL     1     -41.213  53.464 -50.609  1.00  0.00     0.012 A 
HETATM   21  C   UNL     1     -40.282  52.512 -51.030  1.00  0.00     0.037 A 
HETATM   22  C   UNL     1     -39.972  52.377 -52.381  1.00  0.00     0.068 A 
HETATM   23  C   UNL     1     -40.547  53.246 -53.307  1.00  0.00     0.037 A 
HETATM   24  C   UNL     1     -41.478  54.205 -52.887  1.00  0.00     0.012 A 
BRANCH  22  25
HETATM   25  O   UNL     1     -39.084  51.380 -52.679  1.00  0.00    -0.352 OA
BRANCH  25  26
HETATM   26  C   UNL     1     -39.655  50.087 -52.884  1.00  0.00     0.171 C 
HETATM   27  C   UNL     1     -39.836  49.890 -54.379  1.00  0.00     0.034 C 
ENDBRANCH  25  26
ENDBRANCH  22  25
ENDBRANCH  17  19
ENDBRANCH   1  17
TORSDOF 6
ENDMDL
