MODEL 1
REMARK VINA RESULT:      -8.6      0.000      0.000
REMARK  6 active torsions:
REMARK  status: ('A' for Active; 'I' for Inactive)
REMARK    1  A    between atoms: O_2  and  C_3 
REMARK    2  A    between atoms: C_6  and  C_7 
REMARK    3  A    between atoms: C_12  and  C_13 
REMARK       I    between atoms: C_13  and  N_14 
REMARK    4  A    between atoms: N_14  and  C_15 
REMARK    5  A    between atoms: C_15  and  C_16 
REMARK    6  A    between atoms: C_24  and  C_25 
ROOT
HETATM    1  C   UNL     1     -44.900  58.911 -52.244  1.00  0.00     0.118 C 
HETATM    2  N   UNL     1     -44.878  57.508 -51.845  1.00  0.00    -0.366 N 
HETATM    3  C   UNL     1     -43.778  56.902 -51.354  1.00  0.00     0.123 A 
HETATM    4  N   UNL     1     -42.597  57.571 -51.197  1.00  0.00    -0.240 N 
HETATM    5  N   UNL     1     -41.617  56.831 -50.647  1.00  0.00    -0.165 NA
HETATM    6  C   UNL     1     -42.185  55.612 -50.501  1.00  0.00     0.148 A 
HETATM    7  C   UNL     1     -43.543  55.622 -50.927  1.00  0.00     0.088 A 
HETATM    8  C   UNL     1     -42.402  58.964 -51.541  1.00  0.00     0.221 C 
HETATM    9  C   UNL     1     -43.755  59.697 -51.577  1.00  0.00     0.066 C 
HETATM   10  H   UNL     1     -45.731  56.984 -52.038  1.00  0.00     0.161 HD
ENDROOT
BRANCH   6  11
HETATM   11  C   UNL     1     -41.441  54.458 -49.971  1.00  0.00     0.272 C 
HETATM   12  N   UNL     1     -40.749  53.771 -50.939  1.00  0.00    -0.351 N 
HETATM   13  H   UNL     1     -40.788  54.161 -51.876  1.00  0.00     0.163 HD
HETATM   14  O   UNL     1     -41.459  54.144 -48.785  1.00  0.00    -0.266 OA
BRANCH  12  15
HETATM   15  C   UNL     1     -39.964  52.597 -50.669  1.00  0.00     0.161 C 
BRANCH  15  16
HETATM   16  C   UNL     1     -39.898  51.701 -51.877  1.00  0.00    -0.041 A 
HETATM   17  C   UNL     1     -40.187  52.211 -53.151  1.00  0.00     0.009 A 
HETATM   18  C   UNL     1     -40.132  51.385 -54.274  1.00  0.00     0.001 A 
HETATM   19  C   UNL     1     -39.796  50.039 -54.134  1.00  0.00     0.000 A 
HETATM   20  C   UNL     1     -39.521  49.518 -52.871  1.00  0.00     0.001 A 
HETATM   21  C   UNL     1     -39.575  50.343 -51.747  1.00  0.00     0.009 A 
ENDBRANCH  15  16
ENDBRANCH  12  15
ENDBRANCH   6  11
BRANCH   8  22
HETATM   22  C   UNL     1     -41.595  59.075 -52.815  1.00  0.00     0.409 C 
HETATM   23  F   UNL     1     -41.826  58.088 -53.700  1.00  0.00    -0.169 F 
HETATM   24  F   UNL     1     -41.867  60.249 -53.441  1.00  0.00    -0.169 F 
HETATM   25  F   UNL     1     -40.264  59.084 -52.564  1.00  0.00    -0.169 F 
ENDBRANCH   8  22
BRANCH   1  26
HETATM   26  C   UNL     1     -45.000  59.095 -53.747  1.00  0.00    -0.035 A 
HETATM   27  C   UNL     1     -45.007  57.959 -54.575  1.00  0.00     0.012 A 
HETATM   28  C   UNL     1     -45.102  58.084 -55.964  1.00  0.00     0.037 A 
HETATM   29  C   UNL     1     -45.203  59.340 -56.560  1.00  0.00     0.068 A 
HETATM   30  C   UNL     1     -45.176  60.476 -55.755  1.00  0.00     0.037 A 
HETATM   31  C   UNL     1     -45.068  60.353 -54.364  1.00  0.00     0.012 A 
BRANCH  29  32
HETATM   32  O   UNL     1     -45.311  59.323 -57.923  1.00  0.00    -0.356 OA
HETATM   33  C   UNL     1     -45.065  58.076 -58.563  1.00  0.00     0.210 C 
ENDBRANCH  29  32
ENDBRANCH   1  26
TORSDOF 6
ENDMDL
MODEL 2
REMARK VINA RESULT:      -8.1      1.711      2.450
REMARK  6 active torsions:
REMARK  status: ('A' for Active; 'I' for Inactive)
REMARK    1  A    between atoms: O_2  and  C_3 
REMARK    2  A    between atoms: C_6  and  C_7 
REMARK    3  A    between atoms: C_12  and  C_13 
REMARK       I    between atoms: C_13  and  N_14 
REMARK    4  A    between atoms: N_14  and  C_15 
REMARK    5  A    between atoms: C_15  and  C_16 
REMARK    6  A    between atoms: C_24  and  C_25 
ROOT
HETATM    1  C   UNL     1     -45.117  57.759 -55.278  1.00  0.00     0.118 C 
HETATM    2  N   UNL     1     -44.717  56.471 -54.724  1.00  0.00    -0.366 N 
HETATM    3  C   UNL     1     -43.826  56.350 -53.719  1.00  0.00     0.123 A 
HETATM    4  N   UNL     1     -43.231  57.440 -53.147  1.00  0.00    -0.240 N 
HETATM    5  N   UNL     1     -42.409  57.143 -52.125  1.00  0.00    -0.165 NA
HETATM    6  C   UNL     1     -42.434  55.791 -52.081  1.00  0.00     0.148 A 
HETATM    7  C   UNL     1     -43.318  55.260 -53.061  1.00  0.00     0.088 A 
HETATM    8  C   UNL     1     -43.481  58.807 -53.557  1.00  0.00     0.221 C 
HETATM    9  C   UNL     1     -44.832  58.904 -54.288  1.00  0.00     0.066 C 
HETATM   10  H   UNL     1     -45.092  55.652 -55.201  1.00  0.00     0.161 HD
ENDROOT
BRANCH   6  11
HETATM   11  C   UNL     1     -41.622  55.022 -51.124  1.00  0.00     0.272 C 
HETATM   12  N   UNL     1     -40.795  54.109 -51.730  1.00  0.00    -0.351 N 
HETATM   13  H   UNL     1     -40.800  54.107 -52.745  1.00  0.00     0.163 HD
HETATM   14  O   UNL     1     -41.700  55.181 -49.910  1.00  0.00    -0.266 OA
BRANCH  12  15
HETATM   15  C   UNL     1     -39.920  53.227 -51.004  1.00  0.00     0.161 C 
BRANCH  15  16
HETATM   16  C   UNL     1     -39.792  51.899 -51.700  1.00  0.00    -0.041 A 
HETATM   17  C   UNL     1     -39.814  51.829 -53.100  1.00  0.00     0.009 A 
HETATM   18  C   UNL     1     -39.700  50.600 -53.750  1.00  0.00     0.001 A 
HETATM   19  C   UNL     1     -39.573  49.427 -53.008  1.00  0.00     0.000 A 
HETATM   20  C   UNL     1     -39.564  49.482 -51.615  1.00  0.00     0.001 A 
HETATM   21  C   UNL     1     -39.677  50.711 -50.963  1.00  0.00     0.009 A 
ENDBRANCH  15  16
ENDBRANCH  12  15
ENDBRANCH   6  11
BRANCH   8  22
HETATM   22  C   UNL     1     -42.303  59.335 -54.343  1.00  0.00     0.409 C 
HETATM   23  F   UNL     1     -41.364  59.937 -53.591  1.00  0.00    -0.169 F 
HETATM   24  F   UNL     1     -41.695  58.322 -55.013  1.00  0.00    -0.169 F 
HETATM   25  F   UNL     1     -42.692  60.226 -55.287  1.00  0.00    -0.169 F 
ENDBRANCH   8  22
BRANCH   1  26
HETATM   26  C   UNL     1     -44.581  57.990 -56.680  1.00  0.00    -0.035 A 
HETATM   27  C   UNL     1     -43.644  57.086 -57.210  1.00  0.00     0.012 A 
HETATM   28  C   UNL     1     -43.129  57.259 -58.498  1.00  0.00     0.037 A 
HETATM   29  C   UNL     1     -43.542  58.328 -59.292  1.00  0.00     0.068 A 
HETATM   30  C   UNL     1     -44.454  59.244 -58.773  1.00  0.00     0.037 A 
HETATM   31  C   UNL     1     -44.961  59.079 -57.478  1.00  0.00     0.012 A 
BRANCH  29  32
HETATM   32  O   UNL     1     -42.980  58.371 -60.537  1.00  0.00    -0.356 OA
HETATM   33  C   UNL     1     -42.075  59.441 -60.787  1.00  0.00     0.210 C 
ENDBRANCH  29  32
ENDBRANCH   1  26
TORSDOF 6
ENDMDL
MODEL 3
REMARK VINA RESULT:      -8.1      2.728      4.068
REMARK  6 active torsions:
REMARK  status: ('A' for Active; 'I' for Inactive)
REMARK    1  A    between atoms: O_2  and  C_3 
REMARK    2  A    between atoms: C_6  and  C_7 
REMARK    3  A    between atoms: C_12  and  C_13 
REMARK       I    between atoms: C_13  and  N_14 
REMARK    4  A    between atoms: N_14  and  C_15 
REMARK    5  A    between atoms: C_15  and  C_16 
REMARK    6  A    between atoms: C_24  and  C_25 
ROOT
HETATM    1  C   UNL     1     -42.195  60.387 -51.958  1.00  0.00     0.118 C 
HETATM    2  N   UNL     1     -41.587  59.543 -50.936  1.00  0.00    -0.366 N 
HETATM    3  C   UNL     1     -41.624  58.196 -50.980  1.00  0.00     0.123 A 
HETATM    4  N   UNL     1     -42.243  57.525 -51.997  1.00  0.00    -0.240 N 
HETATM    5  N   UNL     1     -42.141  56.186 -51.913  1.00  0.00    -0.165 NA
HETATM    6  C   UNL     1     -41.475  55.992 -50.750  1.00  0.00     0.148 A 
HETATM    7  C   UNL     1     -41.128  57.231 -50.143  1.00  0.00     0.088 A 
HETATM    8  C   UNL     1     -42.916  58.172 -53.104  1.00  0.00     0.221 C 
HETATM    9  C   UNL     1     -42.396  59.611 -53.274  1.00  0.00     0.066 C 
HETATM   10  H   UNL     1     -41.198  60.037 -50.133  1.00  0.00     0.161 HD
ENDROOT
BRANCH   6  11
HETATM   11  C   UNL     1     -41.184  54.648 -50.229  1.00  0.00     0.272 C 
HETATM   12  N   UNL     1     -40.356  53.919 -51.047  1.00  0.00    -0.351 N 
HETATM   13  H   UNL     1     -40.007  54.400 -51.871  1.00  0.00     0.163 HD
HETATM   14  O   UNL     1     -41.653  54.228 -49.176  1.00  0.00    -0.266 OA
BRANCH  12  15
HETATM   15  C   UNL     1     -39.944  52.571 -50.762  1.00  0.00     0.161 C 
BRANCH  15  16
HETATM   16  C   UNL     1     -39.935  51.732 -52.011  1.00  0.00    -0.041 A 
HETATM   17  C   UNL     1     -39.594  50.373 -51.947  1.00  0.00     0.009 A 
HETATM   18  C   UNL     1     -39.581  49.591 -53.103  1.00  0.00     0.001 A 
HETATM   19  C   UNL     1     -39.898  50.161 -54.335  1.00  0.00     0.000 A 
HETATM   20  C   UNL     1     -40.225  51.514 -54.413  1.00  0.00     0.001 A 
HETATM   21  C   UNL     1     -40.240  52.297 -53.258  1.00  0.00     0.009 A 
ENDBRANCH  15  16
ENDBRANCH  12  15
ENDBRANCH   6  11
BRANCH   8  22
HETATM   22  C   UNL     1     -44.414  58.064 -52.934  1.00  0.00     0.409 C 
HETATM   23  F   UNL     1     -45.105  59.080 -53.480  1.00  0.00    -0.169 F 
HETATM   24  F   UNL     1     -44.868  56.916 -53.501  1.00  0.00    -0.169 F 
HETATM   25  F   UNL     1     -44.764  57.999 -51.626  1.00  0.00    -0.169 F 
ENDBRANCH   8  22
BRANCH   1  26
HETATM   26  C   UNL     1     -43.430  61.118 -51.462  1.00  0.00    -0.035 A 
HETATM   27  C   UNL     1     -44.076  62.026 -52.318  1.00  0.00     0.012 A 
HETATM   28  C   UNL     1     -45.218  62.716 -51.903  1.00  0.00     0.037 A 
HETATM   29  C   UNL     1     -45.749  62.512 -50.630  1.00  0.00     0.068 A 
HETATM   30  C   UNL     1     -45.107  61.632 -49.762  1.00  0.00     0.037 A 
HETATM   31  C   UNL     1     -43.956  60.949 -50.173  1.00  0.00     0.012 A 
BRANCH  29  32
HETATM   32  O   UNL     1     -46.879  63.231 -50.355  1.00  0.00    -0.356 OA
HETATM   33  C   UNL     1     -47.276  63.288 -48.989  1.00  0.00     0.210 C 
ENDBRANCH  29  32
ENDBRANCH   1  26
TORSDOF 6
ENDMDL
MODEL 4
REMARK VINA RESULT:      -8.1      3.466      8.461
REMARK  6 active torsions:
REMARK  status: ('A' for Active; 'I' for Inactive)
REMARK    1  A    between atoms: O_2  and  C_3 
REMARK    2  A    between atoms: C_6  and  C_7 
REMARK    3  A    between atoms: C_12  and  C_13 
REMARK       I    between atoms: C_13  and  N_14 
REMARK    4  A    between atoms: N_14  and  C_15 
REMARK    5  A    between atoms: C_15  and  C_16 
REMARK    6  A    between atoms: C_24  and  C_25 
ROOT
HETATM    1  C   UNL     1     -43.469  55.478 -53.381  1.00  0.00     0.118 C 
HETATM    2  N   UNL     1     -44.229  56.181 -52.353  1.00  0.00    -0.366 N 
HETATM    3  C   UNL     1     -44.090  57.500 -52.111  1.00  0.00     0.123 A 
HETATM    4  N   UNL     1     -43.216  58.275 -52.821  1.00  0.00    -0.240 N 
HETATM    5  N   UNL     1     -43.241  59.577 -52.486  1.00  0.00    -0.165 NA
HETATM    6  C   UNL     1     -44.134  59.625 -51.470  1.00  0.00     0.148 A 
HETATM    7  C   UNL     1     -44.692  58.342 -51.213  1.00  0.00     0.088 A 
HETATM    8  C   UNL     1     -42.360  57.772 -53.876  1.00  0.00     0.221 C 
HETATM    9  C   UNL     1     -42.927  56.457 -54.440  1.00  0.00     0.066 C 
HETATM   10  H   UNL     1     -44.819  55.593 -51.765  1.00  0.00     0.161 HD
ENDROOT
BRANCH   6  11
HETATM   11  C   UNL     1     -44.440  60.874 -50.754  1.00  0.00     0.272 C 
HETATM   12  N   UNL     1     -45.696  60.882 -50.197  1.00  0.00    -0.351 N 
HETATM   13  H   UNL     1     -46.233  60.026 -50.296  1.00  0.00     0.163 HD
HETATM   14  O   UNL     1     -43.651  61.811 -50.685  1.00  0.00    -0.266 OA
BRANCH  12  15
HETATM   15  C   UNL     1     -46.231  61.999 -49.466  1.00  0.00     0.161 C 
BRANCH  15  16
HETATM   16  C   UNL     1     -45.808  61.953 -48.022  1.00  0.00    -0.041 A 
HETATM   17  C   UNL     1     -45.471  63.134 -47.346  1.00  0.00     0.009 A 
HETATM   18  C   UNL     1     -45.074  63.097 -46.009  1.00  0.00     0.001 A 
HETATM   19  C   UNL     1     -45.000  61.878 -45.336  1.00  0.00     0.000 A 
HETATM   20  C   UNL     1     -45.320  60.696 -46.002  1.00  0.00     0.001 A 
HETATM   21  C   UNL     1     -45.718  60.731 -47.339  1.00  0.00     0.009 A 
ENDBRANCH  15  16
ENDBRANCH  12  15
ENDBRANCH   6  11
BRANCH   8  22
HETATM   22  C   UNL     1     -40.933  57.680 -53.384  1.00  0.00     0.409 C 
HETATM   23  F   UNL     1     -40.218  58.806 -53.553  1.00  0.00    -0.169 F 
HETATM   24  F   UNL     1     -40.912  57.383 -52.059  1.00  0.00    -0.169 F 
HETATM   25  F   UNL     1     -40.257  56.680 -54.001  1.00  0.00    -0.169 F 
ENDBRANCH   8  22
BRANCH   1  26
HETATM   26  C   UNL     1     -42.428  54.535 -52.803  1.00  0.00    -0.035 A 
HETATM   27  C   UNL     1     -41.673  53.735 -53.677  1.00  0.00     0.012 A 
HETATM   28  C   UNL     1     -40.701  52.857 -53.187  1.00  0.00     0.037 A 
HETATM   29  C   UNL     1     -40.454  52.761 -51.819  1.00  0.00     0.068 A 
HETATM   30  C   UNL     1     -41.210  53.531 -50.939  1.00  0.00     0.037 A 
HETATM   31  C   UNL     1     -42.191  54.402 -51.427  1.00  0.00     0.012 A 
BRANCH  29  32
HETATM   32  O   UNL     1     -39.466  51.881 -51.472  1.00  0.00    -0.356 OA
HETATM   33  C   UNL     1     -39.458  50.635 -52.160  1.00  0.00     0.210 C 
ENDBRANCH  29  32
ENDBRANCH   1  26
TORSDOF 6
ENDMDL
MODEL 5
REMARK VINA RESULT:      -7.9      2.373      3.054
REMARK  6 active torsions:
REMARK  status: ('A' for Active; 'I' for Inactive)
REMARK    1  A    between atoms: O_2  and  C_3 
REMARK    2  A    between atoms: C_6  and  C_7 
REMARK    3  A    between atoms: C_12  and  C_13 
REMARK       I    between atoms: C_13  and  N_14 
REMARK    4  A    between atoms: N_14  and  C_15 
REMARK    5  A    between atoms: C_15  and  C_16 
REMARK    6  A    between atoms: C_24  and  C_25 
ROOT
HETATM    1  C   UNL     1     -44.683  58.015 -56.089  1.00  0.00     0.118 C 
HETATM    2  N   UNL     1     -44.091  56.705 -55.842  1.00  0.00    -0.366 N 
HETATM    3  C   UNL     1     -43.624  56.327 -54.635  1.00  0.00     0.123 A 
HETATM    4  N   UNL     1     -43.675  57.157 -53.550  1.00  0.00    -0.240 N 
HETATM    5  N   UNL     1     -43.215  56.604 -52.414  1.00  0.00    -0.165 NA
HETATM    6  C   UNL     1     -42.793  55.379 -52.807  1.00  0.00     0.148 A 
HETATM    7  C   UNL     1     -43.042  55.168 -54.192  1.00  0.00     0.088 A 
HETATM    8  C   UNL     1     -44.213  58.502 -53.583  1.00  0.00     0.221 C 
HETATM    9  C   UNL     1     -45.169  58.662 -54.778  1.00  0.00     0.066 C 
HETATM   10  H   UNL     1     -43.974  56.114 -56.665  1.00  0.00     0.161 HD
ENDROOT
BRANCH   6  11
HETATM   11  C   UNL     1     -42.159  54.432 -51.876  1.00  0.00     0.272 C 
HETATM   12  N   UNL     1     -40.846  54.170 -52.184  1.00  0.00    -0.351 N 
HETATM   13  H   UNL     1     -40.460  54.688 -52.967  1.00  0.00     0.163 HD
HETATM   14  O   UNL     1     -42.760  53.924 -50.934  1.00  0.00    -0.266 OA
BRANCH  12  15
HETATM   15  C   UNL     1     -40.022  53.262 -51.432  1.00  0.00     0.161 C 
BRANCH  15  16
HETATM   16  C   UNL     1     -39.879  51.945 -52.146  1.00  0.00    -0.041 A 
HETATM   17  C   UNL     1     -39.628  50.771 -51.421  1.00  0.00     0.009 A 
HETATM   18  C   UNL     1     -39.490  49.548 -52.078  1.00  0.00     0.001 A 
HETATM   19  C   UNL     1     -39.592  49.486 -53.466  1.00  0.00     0.000 A 
HETATM   20  C   UNL     1     -39.827  50.648 -54.200  1.00  0.00     0.001 A 
HETATM   21  C   UNL     1     -39.966  51.873 -53.544  1.00  0.00     0.009 A 
ENDBRANCH  15  16
ENDBRANCH  12  15
ENDBRANCH   6  11
BRANCH   8  22
HETATM   22  C   UNL     1     -43.088  59.511 -53.541  1.00  0.00     0.409 C 
HETATM   23  F   UNL     1     -43.388  60.693 -54.106  1.00  0.00    -0.169 F 
HETATM   24  F   UNL     1     -42.729  59.758 -52.255  1.00  0.00    -0.169 F 
HETATM   25  F   UNL     1     -41.975  59.043 -54.156  1.00  0.00    -0.169 F 
ENDBRANCH   8  22
BRANCH   1  26
HETATM   26  C   UNL     1     -43.802  58.908 -56.945  1.00  0.00    -0.035 A 
HETATM   27  C   UNL     1     -42.568  58.414 -57.401  1.00  0.00     0.012 A 
HETATM   28  C   UNL     1     -41.729  59.202 -58.195  1.00  0.00     0.037 A 
HETATM   29  C   UNL     1     -42.103  60.494 -58.561  1.00  0.00     0.068 A 
HETATM   30  C   UNL     1     -43.313  61.005 -58.099  1.00  0.00     0.037 A 
HETATM   31  C   UNL     1     -44.149  60.222 -57.294  1.00  0.00     0.012 A 
BRANCH  29  32
HETATM   32  O   UNL     1     -41.205  61.150 -59.356  1.00  0.00    -0.356 OA
HETATM   33  C   UNL     1     -40.486  62.219 -58.750  1.00  0.00     0.210 C 
ENDBRANCH  29  32
ENDBRANCH   1  26
TORSDOF 6
ENDMDL
MODEL 6
REMARK VINA RESULT:      -7.9      2.801      3.540
REMARK  6 active torsions:
REMARK  status: ('A' for Active; 'I' for Inactive)
REMARK    1  A    between atoms: O_2  and  C_3 
REMARK    2  A    between atoms: C_6  and  C_7 
REMARK    3  A    between atoms: C_12  and  C_13 
REMARK       I    between atoms: C_13  and  N_14 
REMARK    4  A    between atoms: N_14  and  C_15 
REMARK    5  A    between atoms: C_15  and  C_16 
REMARK    6  A    between atoms: C_24  and  C_25 
ROOT
HETATM    1  C   UNL     1     -43.101  59.625 -50.797  1.00  0.00     0.118 C 
HETATM    2  N   UNL     1     -43.369  58.200 -50.950  1.00  0.00    -0.366 N 
HETATM    3  C   UNL     1     -42.814  57.449 -51.923  1.00  0.00     0.123 A 
HETATM    4  N   UNL     1     -41.953  57.981 -52.842  1.00  0.00    -0.240 N 
HETATM    5  N   UNL     1     -41.452  57.083 -53.709  1.00  0.00    -0.165 NA
HETATM    6  C   UNL     1     -42.071  55.931 -53.363  1.00  0.00     0.148 A 
HETATM    7  C   UNL     1     -42.926  56.121 -52.242  1.00  0.00     0.088 A 
HETATM    8  C   UNL     1     -41.563  59.376 -52.874  1.00  0.00     0.221 C 
HETATM    9  C   UNL     1     -41.785  60.022 -51.494  1.00  0.00     0.066 C 
HETATM   10  H   UNL     1     -44.074  57.816 -50.321  1.00  0.00     0.161 HD
ENDROOT
BRANCH   6  11
HETATM   11  C   UNL     1     -41.853  54.673 -54.096  1.00  0.00     0.272 C 
HETATM   12  N   UNL     1     -40.601  54.143 -53.898  1.00  0.00    -0.351 N 
HETATM   13  H   UNL     1     -40.005  54.640 -53.243  1.00  0.00     0.163 HD
HETATM   14  O   UNL     1     -42.706  54.171 -54.820  1.00  0.00    -0.266 OA
BRANCH  12  15
HETATM   15  C   UNL     1     -40.146  52.930 -54.523  1.00  0.00     0.161 C 
BRANCH  15  16
HETATM   16  C   UNL     1     -39.955  51.837 -53.506  1.00  0.00    -0.041 A 
HETATM   17  C   UNL     1     -39.897  52.145 -52.139  1.00  0.00     0.009 A 
HETATM   18  C   UNL     1     -39.716  51.137 -51.193  1.00  0.00     0.001 A 
HETATM   19  C   UNL     1     -39.581  49.811 -51.603  1.00  0.00     0.000 A 
HETATM   20  C   UNL     1     -39.623  49.494 -52.959  1.00  0.00     0.001 A 
HETATM   21  C   UNL     1     -39.805  50.502 -53.908  1.00  0.00     0.009 A 
ENDBRANCH  15  16
ENDBRANCH  12  15
ENDBRANCH   6  11
BRANCH   8  22
HETATM   22  C   UNL     1     -42.258  60.082 -54.015  1.00  0.00     0.409 C 
HETATM   23  F   UNL     1     -41.606  60.003 -55.190  1.00  0.00    -0.169 F 
HETATM   24  F   UNL     1     -43.496  59.559 -54.205  1.00  0.00    -0.169 F 
HETATM   25  F   UNL     1     -42.444  61.397 -53.749  1.00  0.00    -0.169 F 
ENDBRANCH   8  22
BRANCH   1  26
HETATM   26  C   UNL     1     -44.293  60.492 -51.160  1.00  0.00    -0.035 A 
HETATM   27  C   UNL     1     -45.453  59.880 -51.666  1.00  0.00     0.012 A 
HETATM   28  C   UNL     1     -46.575  60.641 -52.008  1.00  0.00     0.037 A 
HETATM   29  C   UNL     1     -46.572  62.025 -51.846  1.00  0.00     0.068 A 
HETATM   30  C   UNL     1     -45.422  62.649 -51.367  1.00  0.00     0.037 A 
HETATM   31  C   UNL     1     -44.293  61.889 -51.036  1.00  0.00     0.012 A 
BRANCH  29  32
HETATM   32  O   UNL     1     -47.737  62.649 -52.198  1.00  0.00    -0.356 OA
HETATM   33  C   UNL     1     -48.074  62.628 -53.580  1.00  0.00     0.210 C 
ENDBRANCH  29  32
ENDBRANCH   1  26
TORSDOF 6
ENDMDL
MODEL 7
REMARK VINA RESULT:      -7.8      4.055      8.805
REMARK  6 active torsions:
REMARK  status: ('A' for Active; 'I' for Inactive)
REMARK    1  A    between atoms: O_2  and  C_3 
REMARK    2  A    between atoms: C_6  and  C_7 
REMARK    3  A    between atoms: C_12  and  C_13 
REMARK       I    between atoms: C_13  and  N_14 
REMARK    4  A    between atoms: N_14  and  C_15 
REMARK    5  A    between atoms: C_15  and  C_16 
REMARK    6  A    between atoms: C_24  and  C_25 
ROOT
HETATM    1  C   UNL     1     -43.634  56.566 -52.731  1.00  0.00     0.118 C 
HETATM    2  N   UNL     1     -44.690  57.091 -51.873  1.00  0.00    -0.366 N 
HETATM    3  C   UNL     1     -44.695  58.355 -51.405  1.00  0.00     0.123 A 
HETATM    4  N   UNL     1     -43.698  59.240 -51.709  1.00  0.00    -0.240 N 
HETATM    5  N   UNL     1     -43.886  60.472 -51.204  1.00  0.00    -0.165 NA
HETATM    6  C   UNL     1     -45.031  60.351 -50.492  1.00  0.00     0.148 A 
HETATM    7  C   UNL     1     -45.569  59.039 -50.602  1.00  0.00     0.088 A 
HETATM    8  C   UNL     1     -42.553  58.919 -52.536  1.00  0.00     0.221 C 
HETATM    9  C   UNL     1     -42.868  57.706 -53.430  1.00  0.00     0.066 C 
HETATM   10  H   UNL     1     -45.390  56.412 -51.574  1.00  0.00     0.161 HD
ENDROOT
BRANCH   6  11
HETATM   11  C   UNL     1     -45.593  61.468 -49.716  1.00  0.00     0.272 C 
HETATM   12  N   UNL     1     -45.811  61.153 -48.397  1.00  0.00    -0.351 N 
HETATM   13  H   UNL     1     -45.516  60.226 -48.106  1.00  0.00     0.163 HD
HETATM   14  O   UNL     1     -45.851  62.559 -50.215  1.00  0.00    -0.266 OA
BRANCH  12  15
HETATM   15  C   UNL     1     -46.372  62.073 -47.444  1.00  0.00     0.161 C 
BRANCH  15  16
HETATM   16  C   UNL     1     -45.560  62.102 -46.177  1.00  0.00    -0.041 A 
HETATM   17  C   UNL     1     -44.895  60.948 -45.738  1.00  0.00     0.009 A 
HETATM   18  C   UNL     1     -44.144  60.968 -44.563  1.00  0.00     0.001 A 
HETATM   19  C   UNL     1     -44.057  62.137 -43.809  1.00  0.00     0.000 A 
HETATM   20  C   UNL     1     -44.726  63.286 -44.228  1.00  0.00     0.001 A 
HETATM   21  C   UNL     1     -45.477  63.268 -45.404  1.00  0.00     0.009 A 
ENDBRANCH  15  16
ENDBRANCH  12  15
ENDBRANCH   6  11
BRANCH   8  22
HETATM   22  C   UNL     1     -41.321  58.760 -51.676  1.00  0.00     0.409 C 
HETATM   23  F   UNL     1     -41.560  58.222 -50.466  1.00  0.00    -0.169 F 
HETATM   24  F   UNL     1     -40.414  57.964 -52.299  1.00  0.00    -0.169 F 
HETATM   25  F   UNL     1     -40.699  59.946 -51.470  1.00  0.00    -0.169 F 
ENDBRANCH   8  22
BRANCH   1  26
HETATM   26  C   UNL     1     -42.751  55.551 -52.027  1.00  0.00    -0.035 A 
HETATM   27  C   UNL     1     -42.984  55.269 -50.671  1.00  0.00     0.012 A 
HETATM   28  C   UNL     1     -42.197  54.337 -49.986  1.00  0.00     0.037 A 
HETATM   29  C   UNL     1     -41.168  53.660 -50.638  1.00  0.00     0.068 A 
HETATM   30  C   UNL     1     -40.911  53.945 -51.976  1.00  0.00     0.037 A 
HETATM   31  C   UNL     1     -41.690  54.886 -52.660  1.00  0.00     0.012 A 
BRANCH  29  32
HETATM   32  O   UNL     1     -40.488  52.762 -49.862  1.00  0.00    -0.356 OA
HETATM   33  C   UNL     1     -40.243  51.484 -50.440  1.00  0.00     0.210 C 
ENDBRANCH  29  32
ENDBRANCH   1  26
TORSDOF 6
ENDMDL
MODEL 8
REMARK VINA RESULT:      -7.7      3.528      8.597
REMARK  6 active torsions:
REMARK  status: ('A' for Active; 'I' for Inactive)
REMARK    1  A    between atoms: O_2  and  C_3 
REMARK    2  A    between atoms: C_6  and  C_7 
REMARK    3  A    between atoms: C_12  and  C_13 
REMARK       I    between atoms: C_13  and  N_14 
REMARK    4  A    between atoms: N_14  and  C_15 
REMARK    5  A    between atoms: C_15  and  C_16 
REMARK    6  A    between atoms: C_24  and  C_25 
ROOT
HETATM    1  C   UNL     1     -43.304  55.962 -54.291  1.00  0.00     0.118 C 
HETATM    2  N   UNL     1     -44.308  56.182 -53.257  1.00  0.00    -0.366 N 
HETATM    3  C   UNL     1     -44.344  57.293 -52.494  1.00  0.00     0.123 A 
HETATM    4  N   UNL     1     -43.429  58.298 -52.640  1.00  0.00    -0.240 N 
HETATM    5  N   UNL     1     -43.640  59.355 -51.836  1.00  0.00    -0.165 NA
HETATM    6  C   UNL     1     -44.710  58.979 -51.096  1.00  0.00     0.148 A 
HETATM    7  C   UNL     1     -45.181  57.696 -51.487  1.00  0.00     0.088 A 
HETATM    8  C   UNL     1     -42.345  58.273 -53.601  1.00  0.00     0.221 C 
HETATM    9  C   UNL     1     -42.667  57.291 -54.741  1.00  0.00     0.066 C 
HETATM   10  H   UNL     1     -44.941  55.401 -53.086  1.00  0.00     0.161 HD
ENDROOT
BRANCH   6  11
HETATM   11  C   UNL     1     -45.263  59.830 -50.031  1.00  0.00     0.272 C 
HETATM   12  N   UNL     1     -44.802  61.123 -50.078  1.00  0.00    -0.351 N 
HETATM   13  H   UNL     1     -44.189  61.350 -50.855  1.00  0.00     0.163 HD
HETATM   14  O   UNL     1     -46.044  59.409 -49.183  1.00  0.00    -0.266 OA
BRANCH  12  15
HETATM   15  C   UNL     1     -45.184  62.137 -49.132  1.00  0.00     0.161 C 
BRANCH  15  16
HETATM   16  C   UNL     1     -46.495  62.769 -49.516  1.00  0.00    -0.041 A 
HETATM   17  C   UNL     1     -47.414  63.148 -48.527  1.00  0.00     0.009 A 
HETATM   18  C   UNL     1     -48.632  63.731 -48.878  1.00  0.00     0.001 A 
HETATM   19  C   UNL     1     -48.948  63.933 -50.221  1.00  0.00     0.000 A 
HETATM   20  C   UNL     1     -48.048  63.547 -51.213  1.00  0.00     0.001 A 
HETATM   21  C   UNL     1     -46.829  62.965 -50.864  1.00  0.00     0.009 A 
ENDBRANCH  15  16
ENDBRANCH  12  15
ENDBRANCH   6  11
BRANCH   8  22
HETATM   22  C   UNL     1     -41.035  58.006 -52.896  1.00  0.00     0.409 C 
HETATM   23  F   UNL     1     -40.162  57.275 -53.614  1.00  0.00    -0.169 F 
HETATM   24  F   UNL     1     -40.421  59.177 -52.587  1.00  0.00    -0.169 F 
HETATM   25  F   UNL     1     -41.223  57.361 -51.719  1.00  0.00    -0.169 F 
ENDBRANCH   8  22
BRANCH   1  26
HETATM   26  C   UNL     1     -42.307  54.877 -53.924  1.00  0.00    -0.035 A 
HETATM   27  C   UNL     1     -41.460  54.363 -54.921  1.00  0.00     0.012 A 
HETATM   28  C   UNL     1     -40.525  53.367 -54.624  1.00  0.00     0.037 A 
HETATM   29  C   UNL     1     -40.404  52.868 -53.328  1.00  0.00     0.068 A 
HETATM   30  C   UNL     1     -41.252  53.351 -52.335  1.00  0.00     0.037 A 
HETATM   31  C   UNL     1     -42.197  54.340 -52.633  1.00  0.00     0.012 A 
BRANCH  29  32
HETATM   32  O   UNL     1     -39.439  51.913 -53.167  1.00  0.00    -0.356 OA
HETATM   33  C   UNL     1     -39.611  50.707 -53.903  1.00  0.00     0.210 C 
ENDBRANCH  29  32
ENDBRANCH   1  26
TORSDOF 6
ENDMDL
MODEL 9
REMARK VINA RESULT:      -7.5      3.132      4.717
REMARK  6 active torsions:
REMARK  status: ('A' for Active; 'I' for Inactive)
REMARK    1  A    between atoms: O_2  and  C_3 
REMARK    2  A    between atoms: C_6  and  C_7 
REMARK    3  A    between atoms: C_12  and  C_13 
REMARK       I    between atoms: C_13  and  N_14 
REMARK    4  A    between atoms: N_14  and  C_15 
REMARK    5  A    between atoms: C_15  and  C_16 
REMARK    6  A    between atoms: C_24  and  C_25 
ROOT
HETATM    1  C   UNL     1     -42.243  60.164 -52.113  1.00  0.00     0.118 C 
HETATM    2  N   UNL     1     -41.786  58.800 -51.872  1.00  0.00    -0.366 N 
HETATM    3  C   UNL     1     -41.924  57.810 -52.777  1.00  0.00     0.123 A 
HETATM    4  N   UNL     1     -42.509  58.022 -53.994  1.00  0.00    -0.240 N 
HETATM    5  N   UNL     1     -42.519  56.941 -54.794  1.00  0.00    -0.165 NA
HETATM    6  C   UNL     1     -41.965  55.974 -54.026  1.00  0.00     0.148 A 
HETATM    7  C   UNL     1     -41.573  56.485 -52.758  1.00  0.00     0.088 A 
HETATM    8  C   UNL     1     -43.039  59.299 -54.427  1.00  0.00     0.221 C 
HETATM    9  C   UNL     1     -42.397  60.442 -53.620  1.00  0.00     0.066 C 
HETATM   10  H   UNL     1     -41.425  58.616 -50.936  1.00  0.00     0.161 HD
ENDROOT
BRANCH   6  11
HETATM   11  C   UNL     1     -41.821  54.587 -54.495  1.00  0.00     0.272 C 
HETATM   12  N   UNL     1     -40.579  54.058 -54.244  1.00  0.00    -0.351 N 
HETATM   13  H   UNL     1     -39.937  54.653 -53.729  1.00  0.00     0.163 HD
HETATM   14  O   UNL     1     -42.724  53.982 -55.065  1.00  0.00    -0.266 OA
BRANCH  12  15
HETATM   15  C   UNL     1     -40.191  52.726 -54.626  1.00  0.00     0.161 C 
BRANCH  15  16
HETATM   16  C   UNL     1     -39.990  51.854 -53.416  1.00  0.00    -0.041 A 
HETATM   17  C   UNL     1     -39.752  50.480 -53.568  1.00  0.00     0.009 A 
HETATM   18  C   UNL     1     -39.568  49.666 -52.450  1.00  0.00     0.001 A 
HETATM   19  C   UNL     1     -39.632  50.213 -51.169  1.00  0.00     0.000 A 
HETATM   20  C   UNL     1     -39.882  51.575 -51.006  1.00  0.00     0.001 A 
HETATM   21  C   UNL     1     -40.065  52.391 -52.123  1.00  0.00     0.009 A 
ENDBRANCH  15  16
ENDBRANCH  12  15
ENDBRANCH   6  11
BRANCH   8  22
HETATM   22  C   UNL     1     -44.550  59.273 -54.384  1.00  0.00     0.409 C 
HETATM   23  F   UNL     1     -45.061  58.369 -53.529  1.00  0.00    -0.169 F 
HETATM   24  F   UNL     1     -45.029  60.490 -54.016  1.00  0.00    -0.169 F 
HETATM   25  F   UNL     1     -45.080  59.016 -55.604  1.00  0.00    -0.169 F 
ENDBRANCH   8  22
BRANCH   1  26
HETATM   26  C   UNL     1     -43.453  60.536 -51.275  1.00  0.00    -0.035 A 
HETATM   27  C   UNL     1     -43.660  61.885 -50.937  1.00  0.00     0.012 A 
HETATM   28  C   UNL     1     -44.764  62.272 -50.171  1.00  0.00     0.037 A 
HETATM   29  C   UNL     1     -45.692  61.328 -49.733  1.00  0.00     0.068 A 
HETATM   30  C   UNL     1     -45.488  59.985 -50.041  1.00  0.00     0.037 A 
HETATM   31  C   UNL     1     -44.376  59.595 -50.798  1.00  0.00     0.012 A 
BRANCH  29  32
HETATM   32  O   UNL     1     -46.735  61.838 -49.012  1.00  0.00    -0.356 OA
HETATM   33  C   UNL     1     -46.400  62.520 -47.808  1.00  0.00     0.210 C 
ENDBRANCH  29  32
ENDBRANCH   1  26
TORSDOF 6
ENDMDL
MODEL 10
REMARK VINA RESULT:      -7.4      2.455      7.767
REMARK  6 active torsions:
REMARK  status: ('A' for Active; 'I' for Inactive)
REMARK    1  A    between atoms: O_2  and  C_3 
REMARK    2  A    between atoms: C_6  and  C_7 
REMARK    3  A    between atoms: C_12  and  C_13 
REMARK       I    between atoms: C_13  and  N_14 
REMARK    4  A    between atoms: N_14  and  C_15 
REMARK    5  A    between atoms: C_15  and  C_16 
REMARK    6  A    between atoms: C_24  and  C_25 
ROOT
HETATM    1  C   UNL     1     -40.941  57.606 -51.660  1.00  0.00     0.118 C 
HETATM    2  N   UNL     1     -40.917  57.808 -53.104  1.00  0.00    -0.366 N 
HETATM    3  C   UNL     1     -41.996  58.207 -53.807  1.00  0.00     0.123 A 
HETATM    4  N   UNL     1     -43.198  58.452 -53.205  1.00  0.00    -0.240 N 
HETATM    5  N   UNL     1     -44.153  58.892 -54.044  1.00  0.00    -0.165 NA
HETATM    6  C   UNL     1     -43.545  58.869 -55.253  1.00  0.00     0.148 A 
HETATM    7  C   UNL     1     -42.190  58.453 -55.141  1.00  0.00     0.088 A 
HETATM    8  C   UNL     1     -43.438  58.302 -51.784  1.00  0.00     0.221 C 
HETATM    9  C   UNL     1     -42.110  58.371 -51.010  1.00  0.00     0.066 C 
HETATM   10  H   UNL     1     -40.048  57.546 -53.569  1.00  0.00     0.161 HD
ENDROOT
BRANCH   6  11
HETATM   11  C   UNL     1     -44.252  59.233 -56.492  1.00  0.00     0.272 C 
HETATM   12  N   UNL     1     -45.075  58.236 -56.956  1.00  0.00    -0.351 N 
HETATM   13  H   UNL     1     -45.140  57.405 -56.376  1.00  0.00     0.163 HD
HETATM   14  O   UNL     1     -44.097  60.314 -57.051  1.00  0.00    -0.266 OA
BRANCH  12  15
HETATM   15  C   UNL     1     -45.854  58.348 -58.160  1.00  0.00     0.161 C 
BRANCH  15  16
HETATM   16  C   UNL     1     -45.543  57.224 -59.112  1.00  0.00    -0.041 A 
HETATM   17  C   UNL     1     -46.517  56.772 -60.014  1.00  0.00     0.009 A 
HETATM   18  C   UNL     1     -46.235  55.729 -60.896  1.00  0.00     0.001 A 
HETATM   19  C   UNL     1     -44.982  55.120 -60.879  1.00  0.00     0.000 A 
HETATM   20  C   UNL     1     -44.010  55.551 -59.978  1.00  0.00     0.001 A 
HETATM   21  C   UNL     1     -44.290  56.596 -59.095  1.00  0.00     0.009 A 
ENDBRANCH  15  16
ENDBRANCH  12  15
ENDBRANCH   6  11
BRANCH   8  22
HETATM   22  C   UNL     1     -44.250  57.054 -51.525  1.00  0.00     0.409 C 
HETATM   23  F   UNL     1     -43.898  56.390 -50.409  1.00  0.00    -0.169 F 
HETATM   24  F   UNL     1     -45.566  57.366 -51.410  1.00  0.00    -0.169 F 
HETATM   25  F   UNL     1     -44.162  56.178 -52.555  1.00  0.00    -0.169 F 
ENDBRANCH   8  22
BRANCH   1  26
HETATM   26  C   UNL     1     -40.849  56.143 -51.267  1.00  0.00    -0.035 A 
HETATM   27  C   UNL     1     -40.946  55.160 -52.267  1.00  0.00     0.012 A 
HETATM   28  C   UNL     1     -40.862  53.801 -51.949  1.00  0.00     0.037 A 
HETATM   29  C   UNL     1     -40.670  53.390 -50.631  1.00  0.00     0.068 A 
HETATM   30  C   UNL     1     -40.594  54.351 -49.626  1.00  0.00     0.037 A 
HETATM   31  C   UNL     1     -40.690  55.712 -49.942  1.00  0.00     0.012 A 
BRANCH  29  32
HETATM   32  O   UNL     1     -40.584  52.036 -50.457  1.00  0.00    -0.356 OA
HETATM   33  C   UNL     1     -39.738  51.334 -51.361  1.00  0.00     0.210 C 
ENDBRANCH  29  32
ENDBRANCH   1  26
TORSDOF 6
ENDMDL
