MODEL 1
REMARK VINA RESULT:      -8.5      0.000      0.000
REMARK  6 active torsions:
REMARK  status: ('A' for Active; 'I' for Inactive)
REMARK    1  A    between atoms: N_6  and  C_8 
REMARK    2  A    between atoms: C_8  and  C_9 
REMARK    3  A    between atoms: C_9  and  C_10 
REMARK    4  A    between atoms: C_10  and  N_11 
REMARK       I    between atoms: N_11  and  C_12 
REMARK       I    between atoms: C_12  and  N_13 
REMARK    5  A    between atoms: N_13  and  N_14 
REMARK       I    between atoms: N_14  and  C_15 
REMARK    6  A    between atoms: C_15  and  C_16 
ROOT
HETATM    1  N   UNL     1     -44.046  55.788 -52.271  1.00  0.00    -0.342 N 
HETATM    2  C   UNL     1     -43.718  56.395 -53.455  1.00  0.00     0.334 C 
HETATM    3  N   UNL     1     -44.337  55.822 -54.535  1.00  0.00    -0.249 N 
HETATM    4  O   UNL     1     -42.873  57.288 -53.525  1.00  0.00    -0.246 OA
HETATM    5  H   UNL     1     -44.812  55.124 -52.279  1.00  0.00     0.164 HD
HETATM    6  H   UNL     1     -45.240  55.359 -54.423  1.00  0.00     0.192 HD
ENDROOT
BRANCH   1   7
HETATM    7  C   UNL     1     -43.567  56.264 -50.993  1.00  0.00     0.126 C 
BRANCH   7   8
HETATM    8  C   UNL     1     -42.474  55.385 -50.383  1.00  0.00     0.047 C 
BRANCH   8   9
HETATM    9  C   UNL     1     -41.047  55.594 -50.895  1.00  0.00     0.237 C 
BRANCH   9  10
HETATM   10  N   UNL     1     -40.475  54.406 -51.619  1.00  0.00    -0.067 N 
HETATM   11  C   UNL     1     -40.490  53.126 -50.826  1.00  0.00     0.274 C 
HETATM   12  C   UNL     1     -40.116  51.899 -51.612  1.00  0.00    -0.026 A 
HETATM   13  C   UNL     1     -40.061  51.915 -53.018  1.00  0.00    -0.049 A 
HETATM   14  C   UNL     1     -39.865  50.699 -50.928  1.00  0.00     0.009 A 
HETATM   15  C   UNL     1     -39.718  50.747 -53.711  1.00  0.00     0.007 A 
HETATM   16  C   UNL     1     -40.316  53.188 -53.781  1.00  0.00     0.067 C 
HETATM   17  C   UNL     1     -39.464  49.563 -53.018  1.00  0.00     0.001 A 
HETATM   18  C   UNL     1     -39.541  49.538 -51.629  1.00  0.00     0.001 A 
HETATM   19  C   UNL     1     -41.124  54.200 -52.971  1.00  0.00     0.240 C 
HETATM   20  H   UNL     1     -39.489  54.649 -51.849  1.00  0.00     0.280 HD
ENDBRANCH   9  10
ENDBRANCH   8   9
ENDBRANCH   7   8
ENDBRANCH   1   7
BRANCH   3  21
HETATM   21  N   UNL     1     -44.151  56.392 -55.802  1.00  0.00    -0.261 N 
HETATM   22  C   UNL     1     -43.137  55.895 -56.604  1.00  0.00     0.277 C 
HETATM   23  O   UNL     1     -42.460  54.940 -56.218  1.00  0.00    -0.265 OA
HETATM   24  H   UNL     1     -44.766  57.143 -56.100  1.00  0.00     0.190 HD
BRANCH  22  25
HETATM   25  C   UNL     1     -42.933  56.562 -57.879  1.00  0.00     0.075 A 
HETATM   26  S   UNL     1     -42.567  58.236 -57.993  1.00  0.00    -0.077 SA
HETATM   27  C   UNL     1     -42.466  58.161 -59.681  1.00  0.00     0.052 A 
HETATM   28 BR   UNL     1     -42.058  59.645 -60.747  1.00  0.00    -0.043 Br
HETATM   29  C   UNL     1     -42.710  56.909 -60.184  1.00  0.00     0.028 A 
HETATM   30  C   UNL     1     -42.982  55.980 -59.136  1.00  0.00     0.026 A 
ENDBRANCH  22  25
ENDBRANCH   3  21
TORSDOF 6
ENDMDL
MODEL 2
REMARK VINA RESULT:      -8.2      6.420      8.674
REMARK  6 active torsions:
REMARK  status: ('A' for Active; 'I' for Inactive)
REMARK    1  A    between atoms: N_6  and  C_8 
REMARK    2  A    between atoms: C_8  and  C_9 
REMARK    3  A    between atoms: C_9  and  C_10 
REMARK    4  A    between atoms: C_10  and  N_11 
REMARK       I    between atoms: N_11  and  C_12 
REMARK       I    between atoms: C_12  and  N_13 
REMARK    5  A    between atoms: N_13  and  N_14 
REMARK       I    between atoms: N_14  and  C_15 
REMARK    6  A    between atoms: C_15  and  C_16 
ROOT
HETATM    1  N   UNL     1     -45.305  58.804 -51.418  1.00  0.00    -0.342 N 
HETATM    2  C   UNL     1     -44.862  59.750 -50.533  1.00  0.00     0.334 C 
HETATM    3  N   UNL     1     -45.510  59.693 -49.327  1.00  0.00    -0.249 N 
HETATM    4  O   UNL     1     -44.044  60.615 -50.847  1.00  0.00    -0.246 OA
HETATM    5  H   UNL     1     -45.910  58.072 -51.063  1.00  0.00     0.164 HD
HETATM    6  H   UNL     1     -45.894  58.808 -48.991  1.00  0.00     0.192 HD
ENDROOT
BRANCH   1   7
HETATM    7  C   UNL     1     -44.720  58.630 -52.729  1.00  0.00     0.126 C 
BRANCH   7   8
HETATM    8  C   UNL     1     -44.195  57.216 -52.981  1.00  0.00     0.047 C 
BRANCH   8   9
HETATM    9  C   UNL     1     -43.009  56.752 -52.130  1.00  0.00     0.237 C 
BRANCH   9  10
HETATM   10  N   UNL     1     -42.191  55.660 -52.764  1.00  0.00    -0.067 N 
HETATM   11  C   UNL     1     -41.504  54.747 -51.784  1.00  0.00     0.274 C 
HETATM   12  C   UNL     1     -40.859  53.536 -52.402  1.00  0.00    -0.026 A 
HETATM   13  C   UNL     1     -41.142  53.148 -53.725  1.00  0.00    -0.049 A 
HETATM   14  C   UNL     1     -39.995  52.749 -51.625  1.00  0.00     0.009 A 
HETATM   15  C   UNL     1     -40.527  52.009 -54.259  1.00  0.00     0.007 A 
HETATM   16  C   UNL     1     -42.058  53.976 -54.588  1.00  0.00     0.067 C 
HETATM   17  C   UNL     1     -39.664  51.240 -53.478  1.00  0.00     0.001 A 
HETATM   18  C   UNL     1     -39.402  51.608 -52.162  1.00  0.00     0.001 A 
HETATM   19  C   UNL     1     -42.994  54.858 -53.764  1.00  0.00     0.240 C 
HETATM   20  H   UNL     1     -41.469  56.135 -53.345  1.00  0.00     0.280 HD
ENDBRANCH   9  10
ENDBRANCH   8   9
ENDBRANCH   7   8
ENDBRANCH   1   7
BRANCH   3  21
HETATM   21  N   UNL     1     -45.104  60.556 -48.299  1.00  0.00    -0.261 N 
HETATM   22  C   UNL     1     -45.733  60.456 -47.068  1.00  0.00     0.277 C 
HETATM   23  O   UNL     1     -46.590  59.589 -46.885  1.00  0.00    -0.265 OA
HETATM   24  H   UNL     1     -44.358  61.221 -48.480  1.00  0.00     0.190 HD
BRANCH  22  25
HETATM   25  C   UNL     1     -45.331  61.417 -46.055  1.00  0.00     0.075 A 
HETATM   26  S   UNL     1     -44.324  60.988 -44.731  1.00  0.00    -0.077 SA
HETATM   27  C   UNL     1     -44.331  62.572 -44.135  1.00  0.00     0.052 A 
HETATM   28 BR   UNL     1     -43.403  63.088 -42.593  1.00  0.00    -0.043 Br
HETATM   29  C   UNL     1     -45.080  63.435 -44.894  1.00  0.00     0.028 A 
HETATM   30  C   UNL     1     -45.662  62.761 -46.010  1.00  0.00     0.026 A 
ENDBRANCH  22  25
ENDBRANCH   3  21
TORSDOF 6
ENDMDL
MODEL 3
REMARK VINA RESULT:      -7.9      2.375      3.005
REMARK  6 active torsions:
REMARK  status: ('A' for Active; 'I' for Inactive)
REMARK    1  A    between atoms: N_6  and  C_8 
REMARK    2  A    between atoms: C_8  and  C_9 
REMARK    3  A    between atoms: C_9  and  C_10 
REMARK    4  A    between atoms: C_10  and  N_11 
REMARK       I    between atoms: N_11  and  C_12 
REMARK       I    between atoms: C_12  and  N_13 
REMARK    5  A    between atoms: N_13  and  N_14 
REMARK       I    between atoms: N_14  and  C_15 
REMARK    6  A    between atoms: C_15  and  C_16 
ROOT
HETATM    1  N   UNL     1     -41.355  59.137 -53.378  1.00  0.00    -0.342 N 
HETATM    2  C   UNL     1     -42.287  58.440 -54.099  1.00  0.00     0.334 C 
HETATM    3  N   UNL     1     -42.059  58.488 -55.450  1.00  0.00    -0.249 N 
HETATM    4  O   UNL     1     -43.274  57.923 -53.574  1.00  0.00    -0.246 OA
HETATM    5  H   UNL     1     -40.525  59.457 -53.866  1.00  0.00     0.164 HD
HETATM    6  H   UNL     1     -41.110  58.605 -55.807  1.00  0.00     0.192 HD
ENDROOT
BRANCH   1   7
HETATM    7  C   UNL     1     -41.352  59.170 -51.933  1.00  0.00     0.126 C 
BRANCH   7   8
HETATM    8  C   UNL     1     -40.735  57.925 -51.294  1.00  0.00     0.047 C 
BRANCH   8   9
HETATM    9  C   UNL     1     -41.697  56.930 -50.638  1.00  0.00     0.237 C 
BRANCH   9  10
HETATM   10  N   UNL     1     -41.387  55.489 -50.941  1.00  0.00    -0.067 N 
HETATM   11  C   UNL     1     -41.153  55.195 -52.399  1.00  0.00     0.274 C 
HETATM   12  C   UNL     1     -40.642  53.808 -52.683  1.00  0.00    -0.026 A 
HETATM   13  C   UNL     1     -40.143  52.985 -51.657  1.00  0.00    -0.049 A 
HETATM   14  C   UNL     1     -40.615  53.347 -54.008  1.00  0.00     0.009 A 
HETATM   15  C   UNL     1     -39.668  51.704 -51.967  1.00  0.00     0.007 A 
HETATM   16  C   UNL     1     -40.166  53.446 -50.223  1.00  0.00     0.067 C 
HETATM   17  C   UNL     1     -39.654  51.256 -53.287  1.00  0.00     0.001 A 
HETATM   18  C   UNL     1     -40.124  52.077 -54.307  1.00  0.00     0.001 A 
HETATM   19  C   UNL     1     -40.241  54.967 -50.103  1.00  0.00     0.240 C 
HETATM   20  H   UNL     1     -42.208  54.939 -50.614  1.00  0.00     0.280 HD
ENDBRANCH   9  10
ENDBRANCH   8   9
ENDBRANCH   7   8
ENDBRANCH   1   7
BRANCH   3  21
HETATM   21  N   UNL     1     -42.895  57.754 -56.304  1.00  0.00    -0.261 N 
HETATM   22  C   UNL     1     -42.687  57.849 -57.670  1.00  0.00     0.277 C 
HETATM   23  O   UNL     1     -41.752  58.526 -58.103  1.00  0.00    -0.265 OA
HETATM   24  H   UNL     1     -43.620  57.169 -55.899  1.00  0.00     0.190 HD
BRANCH  22  25
HETATM   25  C   UNL     1     -43.620  57.128 -58.519  1.00  0.00     0.075 A 
HETATM   26  S   UNL     1     -45.140  57.785 -58.979  1.00  0.00    -0.077 SA
HETATM   27  C   UNL     1     -45.514  56.421 -59.909  1.00  0.00     0.052 A 
HETATM   28 BR   UNL     1     -47.111  56.249 -60.872  1.00  0.00    -0.043 Br
HETATM   29  C   UNL     1     -44.535  55.461 -59.886  1.00  0.00     0.028 A 
HETATM   30  C   UNL     1     -43.434  55.874 -59.076  1.00  0.00     0.026 A 
ENDBRANCH  22  25
ENDBRANCH   3  21
TORSDOF 6
ENDMDL
MODEL 4
REMARK VINA RESULT:      -7.8      1.947      2.615
REMARK  6 active torsions:
REMARK  status: ('A' for Active; 'I' for Inactive)
REMARK    1  A    between atoms: N_6  and  C_8 
REMARK    2  A    between atoms: C_8  and  C_9 
REMARK    3  A    between atoms: C_9  and  C_10 
REMARK    4  A    between atoms: C_10  and  N_11 
REMARK       I    between atoms: N_11  and  C_12 
REMARK       I    between atoms: C_12  and  N_13 
REMARK    5  A    between atoms: N_13  and  N_14 
REMARK       I    between atoms: N_14  and  C_15 
REMARK    6  A    between atoms: C_15  and  C_16 
ROOT
HETATM    1  N   UNL     1     -41.916  57.971 -52.733  1.00  0.00    -0.342 N 
HETATM    2  C   UNL     1     -41.635  58.652 -53.887  1.00  0.00     0.334 C 
HETATM    3  N   UNL     1     -42.303  58.152 -54.975  1.00  0.00    -0.249 N 
HETATM    4  O   UNL     1     -40.789  59.546 -53.936  1.00  0.00    -0.246 OA
HETATM    5  H   UNL     1     -42.685  57.311 -52.750  1.00  0.00     0.164 HD
HETATM    6  H   UNL     1     -43.203  57.685 -54.855  1.00  0.00     0.192 HD
ENDROOT
BRANCH   1   7
HETATM    7  C   UNL     1     -41.381  58.362 -51.448  1.00  0.00     0.126 C 
BRANCH   7   8
HETATM    8  C   UNL     1     -41.297  57.211 -50.444  1.00  0.00     0.047 C 
BRANCH   8   9
HETATM    9  C   UNL     1     -42.347  56.104 -50.566  1.00  0.00     0.237 C 
BRANCH   9  10
HETATM   10  N   UNL     1     -41.777  54.753 -50.901  1.00  0.00    -0.067 N 
HETATM   11  C   UNL     1     -41.708  54.454 -52.375  1.00  0.00     0.274 C 
HETATM   12  C   UNL     1     -40.953  53.200 -52.724  1.00  0.00    -0.026 A 
HETATM   13  C   UNL     1     -40.135  52.549 -51.783  1.00  0.00    -0.049 A 
HETATM   14  C   UNL     1     -41.027  52.699 -54.033  1.00  0.00     0.009 A 
HETATM   15  C   UNL     1     -39.441  51.390 -52.153  1.00  0.00     0.007 A 
HETATM   16  C   UNL     1     -40.040  53.056 -50.368  1.00  0.00     0.067 C 
HETATM   17  C   UNL     1     -39.530  50.898 -53.455  1.00  0.00     0.001 A 
HETATM   18  C   UNL     1     -40.319  51.554 -54.395  1.00  0.00     0.001 A 
HETATM   19  C   UNL     1     -40.430  54.529 -50.250  1.00  0.00     0.240 C 
HETATM   20  H   UNL     1     -42.397  54.052 -50.444  1.00  0.00     0.280 HD
ENDBRANCH   9  10
ENDBRANCH   8   9
ENDBRANCH   7   8
ENDBRANCH   1   7
BRANCH   3  21
HETATM   21  N   UNL     1     -42.167  58.802 -56.209  1.00  0.00    -0.261 N 
HETATM   22  C   UNL     1     -42.473  58.097 -57.362  1.00  0.00     0.277 C 
HETATM   23  O   UNL     1     -42.903  56.945 -57.281  1.00  0.00    -0.265 OA
HETATM   24  H   UNL     1     -41.858  59.770 -56.225  1.00  0.00     0.190 HD
BRANCH  22  25
HETATM   25  C   UNL     1     -42.250  58.786 -58.622  1.00  0.00     0.075 A 
HETATM   26  S   UNL     1     -42.058  60.491 -58.715  1.00  0.00    -0.077 SA
HETATM   27  C   UNL     1     -41.827  60.433 -60.391  1.00  0.00     0.052 A 
HETATM   28 BR   UNL     1     -41.503  61.956 -61.431  1.00  0.00    -0.043 Br
HETATM   29  C   UNL     1     -41.898  59.164 -60.906  1.00  0.00     0.028 A 
HETATM   30  C   UNL     1     -42.145  58.207 -59.876  1.00  0.00     0.026 A 
ENDBRANCH  22  25
ENDBRANCH   3  21
TORSDOF 6
ENDMDL
MODEL 5
REMARK VINA RESULT:      -7.7      5.913      7.831
REMARK  6 active torsions:
REMARK  status: ('A' for Active; 'I' for Inactive)
REMARK    1  A    between atoms: N_6  and  C_8 
REMARK    2  A    between atoms: C_8  and  C_9 
REMARK    3  A    between atoms: C_9  and  C_10 
REMARK    4  A    between atoms: C_10  and  N_11 
REMARK       I    between atoms: N_11  and  C_12 
REMARK       I    between atoms: C_12  and  N_13 
REMARK    5  A    between atoms: N_13  and  N_14 
REMARK       I    between atoms: N_14  and  C_15 
REMARK    6  A    between atoms: C_15  and  C_16 
ROOT
HETATM    1  N   UNL     1     -43.142  58.409 -51.990  1.00  0.00    -0.342 N 
HETATM    2  C   UNL     1     -43.180  59.558 -51.246  1.00  0.00     0.334 C 
HETATM    3  N   UNL     1     -44.270  59.617 -50.416  1.00  0.00    -0.249 N 
HETATM    4  O   UNL     1     -42.369  60.471 -51.402  1.00  0.00    -0.246 OA
HETATM    5  H   UNL     1     -43.787  57.666 -51.744  1.00  0.00     0.164 HD
HETATM    6  H   UNL     1     -44.695  58.757 -50.065  1.00  0.00     0.192 HD
ENDROOT
BRANCH   1   7
HETATM    7  C   UNL     1     -42.050  58.096 -52.884  1.00  0.00     0.126 C 
BRANCH   7   8
HETATM    8  C   UNL     1     -40.952  57.250 -52.237  1.00  0.00     0.047 C 
BRANCH   8   9
HETATM    9  C   UNL     1     -41.372  55.902 -51.645  1.00  0.00     0.237 C 
BRANCH   9  10
HETATM   10  N   UNL     1     -40.846  54.711 -52.398  1.00  0.00    -0.067 N 
HETATM   11  C   UNL     1     -40.540  53.514 -51.538  1.00  0.00     0.274 C 
HETATM   12  C   UNL     1     -40.213  52.260 -52.304  1.00  0.00    -0.026 A 
HETATM   13  C   UNL     1     -40.474  52.153 -53.683  1.00  0.00    -0.049 A 
HETATM   14  C   UNL     1     -39.685  51.157 -51.617  1.00  0.00     0.009 A 
HETATM   15  C   UNL     1     -40.163  50.964 -54.355  1.00  0.00     0.007 A 
HETATM   16  C   UNL     1     -41.032  53.322 -54.452  1.00  0.00     0.067 C 
HETATM   17  C   UNL     1     -39.631  49.878 -53.661  1.00  0.00     0.001 A 
HETATM   18  C   UNL     1     -39.395  49.973 -52.293  1.00  0.00     0.001 A 
HETATM   19  C   UNL     1     -41.749  54.323 -53.548  1.00  0.00     0.240 C 
HETATM   20  H   UNL     1     -39.968  55.024 -52.864  1.00  0.00     0.280 HD
ENDBRANCH   9  10
ENDBRANCH   8   9
ENDBRANCH   7   8
ENDBRANCH   1   7
BRANCH   3  21
HETATM   21  N   UNL     1     -44.395  60.705 -49.541  1.00  0.00    -0.261 N 
HETATM   22  C   UNL     1     -45.369  60.650 -48.557  1.00  0.00     0.277 C 
HETATM   23  O   UNL     1     -46.063  59.638 -48.437  1.00  0.00    -0.265 OA
HETATM   24  H   UNL     1     -43.766  61.496 -49.645  1.00  0.00     0.190 HD
BRANCH  22  25
HETATM   25  C   UNL     1     -45.511  61.828 -47.719  1.00  0.00     0.075 A 
HETATM   26  S   UNL     1     -46.610  61.890 -46.400  1.00  0.00    -0.077 SA
HETATM   27  C   UNL     1     -46.131  63.463 -45.998  1.00  0.00     0.052 A 
HETATM   28 BR   UNL     1     -46.851  64.413 -44.553  1.00  0.00    -0.043 Br
HETATM   29  C   UNL     1     -45.167  63.968 -46.832  1.00  0.00     0.028 A 
HETATM   30  C   UNL     1     -44.807  63.016 -47.833  1.00  0.00     0.026 A 
ENDBRANCH  22  25
ENDBRANCH   3  21
TORSDOF 6
ENDMDL
MODEL 6
REMARK VINA RESULT:      -7.5      4.758      6.688
REMARK  6 active torsions:
REMARK  status: ('A' for Active; 'I' for Inactive)
REMARK    1  A    between atoms: N_6  and  C_8 
REMARK    2  A    between atoms: C_8  and  C_9 
REMARK    3  A    between atoms: C_9  and  C_10 
REMARK    4  A    between atoms: C_10  and  N_11 
REMARK       I    between atoms: N_11  and  C_12 
REMARK       I    between atoms: C_12  and  N_13 
REMARK    5  A    between atoms: N_13  and  N_14 
REMARK       I    between atoms: N_14  and  C_15 
REMARK    6  A    between atoms: C_15  and  C_16 
ROOT
HETATM    1  N   UNL     1     -43.941  56.284 -53.082  1.00  0.00    -0.342 N 
HETATM    2  C   UNL     1     -43.957  57.563 -52.593  1.00  0.00     0.334 C 
HETATM    3  N   UNL     1     -44.044  57.607 -51.226  1.00  0.00    -0.249 N 
HETATM    4  O   UNL     1     -43.995  58.549 -53.329  1.00  0.00    -0.246 OA
HETATM    5  H   UNL     1     -43.820  55.527 -52.418  1.00  0.00     0.164 HD
HETATM    6  H   UNL     1     -43.672  56.841 -50.662  1.00  0.00     0.192 HD
ENDROOT
BRANCH   1   7
HETATM    7  C   UNL     1     -43.785  55.990 -54.489  1.00  0.00     0.126 C 
BRANCH   7   8
HETATM    8  C   UNL     1     -42.360  56.199 -55.003  1.00  0.00     0.047 C 
BRANCH   8   9
HETATM    9  C   UNL     1     -41.578  54.948 -55.414  1.00  0.00     0.237 C 
BRANCH   9  10
HETATM   10  N   UNL     1     -41.360  53.967 -54.294  1.00  0.00    -0.067 N 
HETATM   11  C   UNL     1     -40.702  52.680 -54.713  1.00  0.00     0.274 C 
HETATM   12  C   UNL     1     -40.294  51.786 -53.573  1.00  0.00    -0.026 A 
HETATM   13  C   UNL     1     -40.256  52.257 -52.247  1.00  0.00    -0.049 A 
HETATM   14  C   UNL     1     -39.893  50.469 -53.845  1.00  0.00     0.009 A 
HETATM   15  C   UNL     1     -39.861  51.395 -51.217  1.00  0.00     0.007 A 
HETATM   16  C   UNL     1     -40.688  53.663 -51.920  1.00  0.00     0.067 C 
HETATM   17  C   UNL     1     -39.473  50.086 -51.501  1.00  0.00     0.001 A 
HETATM   18  C   UNL     1     -39.485  49.625 -52.814  1.00  0.00     0.001 A 
HETATM   19  C   UNL     1     -40.618  54.590 -53.132  1.00  0.00     0.240 C 
HETATM   20  H   UNL     1     -42.302  53.753 -53.905  1.00  0.00     0.280 HD
ENDBRANCH   9  10
ENDBRANCH   8   9
ENDBRANCH   7   8
ENDBRANCH   1   7
BRANCH   3  21
HETATM   21  N   UNL     1     -43.993  58.853 -50.585  1.00  0.00    -0.261 N 
HETATM   22  C   UNL     1     -45.177  59.408 -50.128  1.00  0.00     0.277 C 
HETATM   23  O   UNL     1     -46.233  58.781 -50.243  1.00  0.00    -0.265 OA
HETATM   24  H   UNL     1     -43.093  59.309 -50.466  1.00  0.00     0.190 HD
BRANCH  22  25
HETATM   25  C   UNL     1     -45.087  60.731 -49.534  1.00  0.00     0.075 A 
HETATM   26  S   UNL     1     -45.595  61.053 -47.925  1.00  0.00    -0.077 SA
HETATM   27  C   UNL     1     -45.137  62.678 -48.043  1.00  0.00     0.052 A 
HETATM   28 BR   UNL     1     -45.325  63.897 -46.633  1.00  0.00    -0.043 Br
HETATM   29  C   UNL     1     -44.615  63.009 -49.267  1.00  0.00     0.028 A 
HETATM   30  C   UNL     1     -44.587  61.875 -50.134  1.00  0.00     0.026 A 
ENDBRANCH  22  25
ENDBRANCH   3  21
TORSDOF 6
ENDMDL
MODEL 7
REMARK VINA RESULT:      -7.5      4.332      7.009
REMARK  6 active torsions:
REMARK  status: ('A' for Active; 'I' for Inactive)
REMARK    1  A    between atoms: N_6  and  C_8 
REMARK    2  A    between atoms: C_8  and  C_9 
REMARK    3  A    between atoms: C_9  and  C_10 
REMARK    4  A    between atoms: C_10  and  N_11 
REMARK       I    between atoms: N_11  and  C_12 
REMARK       I    between atoms: C_12  and  N_13 
REMARK    5  A    between atoms: N_13  and  N_14 
REMARK       I    between atoms: N_14  and  C_15 
REMARK    6  A    between atoms: C_15  and  C_16 
ROOT
HETATM    1  N   UNL     1     -41.835  59.314 -50.079  1.00  0.00    -0.342 N 
HETATM    2  C   UNL     1     -41.132  58.241 -50.558  1.00  0.00     0.334 C 
HETATM    3  N   UNL     1     -41.351  57.097 -49.837  1.00  0.00    -0.249 N 
HETATM    4  O   UNL     1     -40.316  58.345 -51.475  1.00  0.00    -0.246 OA
HETATM    5  H   UNL     1     -42.552  59.135 -49.384  1.00  0.00     0.164 HD
HETATM    6  H   UNL     1     -42.237  56.959 -49.349  1.00  0.00     0.192 HD
ENDROOT
BRANCH   1   7
HETATM    7  C   UNL     1     -41.814  60.609 -50.721  1.00  0.00     0.126 C 
BRANCH   7   8
HETATM    8  C   UNL     1     -42.898  60.781 -51.787  1.00  0.00     0.047 C 
BRANCH   8   9
HETATM    9  C   UNL     1     -42.492  60.523 -53.240  1.00  0.00     0.237 C 
BRANCH   9  10
HETATM   10  N   UNL     1     -42.972  59.206 -53.786  1.00  0.00    -0.067 N 
HETATM   11  C   UNL     1     -41.873  58.281 -54.237  1.00  0.00     0.274 C 
HETATM   12  C   UNL     1     -42.330  56.891 -54.588  1.00  0.00    -0.026 A 
HETATM   13  C   UNL     1     -43.609  56.427 -54.230  1.00  0.00    -0.049 A 
HETATM   14  C   UNL     1     -41.442  56.023 -55.241  1.00  0.00     0.009 A 
HETATM   15  C   UNL     1     -43.991  55.122 -54.567  1.00  0.00     0.007 A 
HETATM   16  C   UNL     1     -44.590  57.336 -53.536  1.00  0.00     0.067 C 
HETATM   17  C   UNL     1     -43.101  54.272 -55.224  1.00  0.00     0.001 A 
HETATM   18  C   UNL     1     -41.827  54.721 -55.557  1.00  0.00     0.001 A 
HETATM   19  C   UNL     1     -43.901  58.499 -52.825  1.00  0.00     0.240 C 
HETATM   20  H   UNL     1     -43.579  59.432 -54.602  1.00  0.00     0.280 HD
ENDBRANCH   9  10
ENDBRANCH   8   9
ENDBRANCH   7   8
ENDBRANCH   1   7
BRANCH   3  21
HETATM   21  N   UNL     1     -40.753  55.903 -50.263  1.00  0.00    -0.261 N 
HETATM   22  C   UNL     1     -41.528  54.990 -50.959  1.00  0.00     0.277 C 
HETATM   23  O   UNL     1     -42.699  55.261 -51.232  1.00  0.00    -0.265 OA
HETATM   24  H   UNL     1     -39.770  55.744 -50.060  1.00  0.00     0.190 HD
BRANCH  22  25
HETATM   25  C   UNL     1     -40.887  53.737 -51.319  1.00  0.00     0.075 A 
HETATM   26  S   UNL     1     -40.602  52.488 -50.174  1.00  0.00    -0.077 SA
HETATM   27  C   UNL     1     -39.920  51.482 -51.352  1.00  0.00     0.052 A 
HETATM   28 BR   UNL     1     -39.285  49.760 -50.982  1.00  0.00    -0.043 Br
HETATM   29  C   UNL     1     -39.883  52.052 -52.599  1.00  0.00     0.028 A 
HETATM   30  C   UNL     1     -40.445  53.364 -52.578  1.00  0.00     0.026 A 
ENDBRANCH  22  25
ENDBRANCH   3  21
TORSDOF 6
ENDMDL
MODEL 8
REMARK VINA RESULT:      -7.5      3.841      7.873
REMARK  6 active torsions:
REMARK  status: ('A' for Active; 'I' for Inactive)
REMARK    1  A    between atoms: N_6  and  C_8 
REMARK    2  A    between atoms: C_8  and  C_9 
REMARK    3  A    between atoms: C_9  and  C_10 
REMARK    4  A    between atoms: C_10  and  N_11 
REMARK       I    between atoms: N_11  and  C_12 
REMARK       I    between atoms: C_12  and  N_13 
REMARK    5  A    between atoms: N_13  and  N_14 
REMARK       I    between atoms: N_14  and  C_15 
REMARK    6  A    between atoms: C_15  and  C_16 
ROOT
HETATM    1  N   UNL     1     -43.258  58.451 -53.230  1.00  0.00    -0.342 N 
HETATM    2  C   UNL     1     -43.006  57.119 -53.038  1.00  0.00     0.334 C 
HETATM    3  N   UNL     1     -41.671  56.847 -52.891  1.00  0.00    -0.249 N 
HETATM    4  O   UNL     1     -43.892  56.266 -53.101  1.00  0.00    -0.246 OA
HETATM    5  H   UNL     1     -42.496  59.102 -53.074  1.00  0.00     0.164 HD
HETATM    6  H   UNL     1     -41.042  57.553 -52.507  1.00  0.00     0.192 HD
ENDROOT
BRANCH   1   7
HETATM    7  C   UNL     1     -44.598  58.983 -53.340  1.00  0.00     0.126 C 
BRANCH   7   8
HETATM    8  C   UNL     1     -45.093  59.098 -54.783  1.00  0.00     0.047 C 
BRANCH   8   9
HETATM    9  C   UNL     1     -44.037  59.029 -55.889  1.00  0.00     0.237 C 
BRANCH   9  10
HETATM   10  N   UNL     1     -44.159  57.822 -56.778  1.00  0.00    -0.067 N 
HETATM   11  C   UNL     1     -45.055  58.015 -57.973  1.00  0.00     0.274 C 
HETATM   12  C   UNL     1     -45.019  56.890 -58.971  1.00  0.00    -0.026 A 
HETATM   13  C   UNL     1     -44.013  55.907 -58.933  1.00  0.00    -0.049 A 
HETATM   14  C   UNL     1     -45.980  56.851 -59.993  1.00  0.00     0.009 A 
HETATM   15  C   UNL     1     -44.010  54.882 -59.888  1.00  0.00     0.007 A 
HETATM   16  C   UNL     1     -42.972  55.916 -57.845  1.00  0.00     0.067 C 
HETATM   17  C   UNL     1     -44.976  54.851 -60.894  1.00  0.00     0.001 A 
HETATM   18  C   UNL     1     -45.957  55.836 -60.948  1.00  0.00     0.001 A 
HETATM   19  C   UNL     1     -42.808  57.295 -57.208  1.00  0.00     0.240 C 
HETATM   20  H   UNL     1     -44.549  57.060 -56.185  1.00  0.00     0.280 HD
ENDBRANCH   9  10
ENDBRANCH   8   9
ENDBRANCH   7   8
ENDBRANCH   1   7
BRANCH   3  21
HETATM   21  N   UNL     1     -41.276  55.531 -52.612  1.00  0.00    -0.261 N 
HETATM   22  C   UNL     1     -40.655  54.803 -53.613  1.00  0.00     0.277 C 
HETATM   23  O   UNL     1     -40.416  55.334 -54.700  1.00  0.00    -0.265 OA
HETATM   24  H   UNL     1     -41.447  55.151 -51.685  1.00  0.00     0.190 HD
BRANCH  22  25
HETATM   25  C   UNL     1     -40.327  53.422 -53.303  1.00  0.00     0.075 A 
HETATM   26  S   UNL     1     -40.143  52.861 -51.690  1.00  0.00    -0.077 SA
HETATM   27  C   UNL     1     -39.837  51.280 -52.211  1.00  0.00     0.052 A 
HETATM   28 BR   UNL     1     -39.509  49.862 -51.033  1.00  0.00    -0.043 Br
HETATM   29  C   UNL     1     -39.854  51.145 -53.575  1.00  0.00     0.028 A 
HETATM   30  C   UNL     1     -40.139  52.391 -54.210  1.00  0.00     0.026 A 
ENDBRANCH  22  25
ENDBRANCH   3  21
TORSDOF 6
ENDMDL
MODEL 9
REMARK VINA RESULT:      -7.5     14.717     16.893
REMARK  6 active torsions:
REMARK  status: ('A' for Active; 'I' for Inactive)
REMARK    1  A    between atoms: N_6  and  C_8 
REMARK    2  A    between atoms: C_8  and  C_9 
REMARK    3  A    between atoms: C_9  and  C_10 
REMARK    4  A    between atoms: C_10  and  N_11 
REMARK       I    between atoms: N_11  and  C_12 
REMARK       I    between atoms: C_12  and  N_13 
REMARK    5  A    between atoms: N_13  and  N_14 
REMARK       I    between atoms: N_14  and  C_15 
REMARK    6  A    between atoms: C_15  and  C_16 
ROOT
HETATM    1  N   UNL     1     -34.792  42.379 -52.497  1.00  0.00    -0.342 N 
HETATM    2  C   UNL     1     -35.592  41.950 -53.523  1.00  0.00     0.334 C 
HETATM    3  N   UNL     1     -35.383  42.645 -54.685  1.00  0.00    -0.249 N 
HETATM    4  O   UNL     1     -36.470  41.102 -53.363  1.00  0.00    -0.246 OA
HETATM    5  H   UNL     1     -34.034  43.013 -52.724  1.00  0.00     0.164 HD
HETATM    6  H   UNL     1     -34.471  43.061 -54.879  1.00  0.00     0.192 HD
ENDROOT
BRANCH   1   7
HETATM    7  C   UNL     1     -34.788  41.748 -51.197  1.00  0.00     0.126 C 
BRANCH   7   8
HETATM    8  C   UNL     1     -33.748  40.635 -51.060  1.00  0.00     0.047 C 
BRANCH   8   9
HETATM    9  C   UNL     1     -34.165  39.232 -51.510  1.00  0.00     0.237 C 
BRANCH   9  10
HETATM   10  N   UNL     1     -33.255  38.624 -52.542  1.00  0.00    -0.067 N 
HETATM   11  C   UNL     1     -32.773  39.588 -53.594  1.00  0.00     0.274 C 
HETATM   12  C   UNL     1     -31.705  39.040 -54.501  1.00  0.00    -0.026 A 
HETATM   13  C   UNL     1     -31.016  37.853 -54.192  1.00  0.00    -0.049 A 
HETATM   14  C   UNL     1     -31.355  39.757 -55.656  1.00  0.00     0.009 A 
HETATM   15  C   UNL     1     -30.022  37.384 -55.060  1.00  0.00     0.007 A 
HETATM   16  C   UNL     1     -31.374  37.055 -52.966  1.00  0.00     0.067 C 
HETATM   17  C   UNL     1     -29.689  38.102 -56.208  1.00  0.00     0.001 A 
HETATM   18  C   UNL     1     -30.352  39.289 -56.503  1.00  0.00     0.001 A 
HETATM   19  C   UNL     1     -32.088  37.899 -51.911  1.00  0.00     0.240 C 
HETATM   20  H   UNL     1     -33.801  37.867 -53.004  1.00  0.00     0.280 HD
ENDBRANCH   9  10
ENDBRANCH   8   9
ENDBRANCH   7   8
ENDBRANCH   1   7
BRANCH   3  21
HETATM   21  N   UNL     1     -36.081  42.260 -55.839  1.00  0.00    -0.261 N 
HETATM   22  C   UNL     1     -35.374  41.661 -56.868  1.00  0.00     0.277 C 
HETATM   23  O   UNL     1     -34.170  41.431 -56.732  1.00  0.00    -0.265 OA
HETATM   24  H   UNL     1     -37.083  42.422 -55.885  1.00  0.00     0.190 HD
BRANCH  22  25
HETATM   25  C   UNL     1     -36.123  41.343 -58.071  1.00  0.00     0.075 A 
HETATM   26  S   UNL     1     -36.190  39.754 -58.720  1.00  0.00    -0.077 SA
HETATM   27  C   UNL     1     -37.214  40.245 -59.975  1.00  0.00     0.052 A 
HETATM   28 BR   UNL     1     -37.873  39.070 -61.275  1.00  0.00    -0.043 Br
HETATM   29  C   UNL     1     -37.512  41.583 -59.941  1.00  0.00     0.028 A 
HETATM   30  C   UNL     1     -36.877  42.221 -58.834  1.00  0.00     0.026 A 
ENDBRANCH  22  25
ENDBRANCH   3  21
TORSDOF 6
ENDMDL
MODEL 10
REMARK VINA RESULT:      -7.3      3.580      4.258
REMARK  6 active torsions:
REMARK  status: ('A' for Active; 'I' for Inactive)
REMARK    1  A    between atoms: N_6  and  C_8 
REMARK    2  A    between atoms: C_8  and  C_9 
REMARK    3  A    between atoms: C_9  and  C_10 
REMARK    4  A    between atoms: C_10  and  N_11 
REMARK       I    between atoms: N_11  and  C_12 
REMARK       I    between atoms: C_12  and  N_13 
REMARK    5  A    between atoms: N_13  and  N_14 
REMARK       I    between atoms: N_14  and  C_15 
REMARK    6  A    between atoms: C_15  and  C_16 
ROOT
HETATM    1  N   UNL     1     -43.641  59.834 -54.167  1.00  0.00    -0.342 N 
HETATM    2  C   UNL     1     -42.658  60.281 -55.010  1.00  0.00     0.334 C 
HETATM    3  N   UNL     1     -43.130  61.139 -55.969  1.00  0.00    -0.249 N 
HETATM    4  O   UNL     1     -41.503  59.860 -54.956  1.00  0.00    -0.246 OA
HETATM    5  H   UNL     1     -44.545  60.292 -54.213  1.00  0.00     0.164 HD
HETATM    6  H   UNL     1     -43.955  61.712 -55.784  1.00  0.00     0.192 HD
ENDROOT
BRANCH   1   7
HETATM    7  C   UNL     1     -43.367  58.975 -53.037  1.00  0.00     0.126 C 
BRANCH   7   8
HETATM    8  C   UNL     1     -43.676  57.501 -53.301  1.00  0.00     0.047 C 
BRANCH   8   9
HETATM    9  C   UNL     1     -43.137  56.486 -52.289  1.00  0.00     0.237 C 
BRANCH   9  10
HETATM   10  N   UNL     1     -42.270  55.417 -52.897  1.00  0.00    -0.067 N 
HETATM   11  C   UNL     1     -41.560  54.545 -51.896  1.00  0.00     0.274 C 
HETATM   12  C   UNL     1     -40.862  53.352 -52.489  1.00  0.00    -0.026 A 
HETATM   13  C   UNL     1     -41.115  52.934 -53.809  1.00  0.00    -0.049 A 
HETATM   14  C   UNL     1     -39.977  52.610 -51.692  1.00  0.00     0.009 A 
HETATM   15  C   UNL     1     -40.450  51.811 -54.319  1.00  0.00     0.007 A 
HETATM   16  C   UNL     1     -42.052  53.713 -54.694  1.00  0.00     0.067 C 
HETATM   17  C   UNL     1     -39.567  51.088 -53.517  1.00  0.00     0.001 A 
HETATM   18  C   UNL     1     -39.334  51.485 -52.204  1.00  0.00     0.001 A 
HETATM   19  C   UNL     1     -43.031  54.570 -53.894  1.00  0.00     0.240 C 
HETATM   20  H   UNL     1     -41.561  55.911 -53.478  1.00  0.00     0.280 HD
ENDBRANCH   9  10
ENDBRANCH   8   9
ENDBRANCH   7   8
ENDBRANCH   1   7
BRANCH   3  21
HETATM   21  N   UNL     1     -42.219  61.733 -56.853  1.00  0.00    -0.261 N 
HETATM   22  C   UNL     1     -42.296  61.404 -58.197  1.00  0.00     0.277 C 
HETATM   23  O   UNL     1     -43.184  60.648 -58.594  1.00  0.00    -0.265 OA
HETATM   24  H   UNL     1     -41.536  62.391 -56.489  1.00  0.00     0.190 HD
BRANCH  22  25
HETATM   25  C   UNL     1     -41.287  61.988 -59.065  1.00  0.00     0.075 A 
HETATM   26  S   UNL     1     -41.393  61.909 -60.778  1.00  0.00    -0.077 SA
HETATM   27  C   UNL     1     -39.961  62.792 -60.966  1.00  0.00     0.052 A 
HETATM   28 BR   UNL     1     -39.248  63.237 -62.639  1.00  0.00    -0.043 Br
HETATM   29  C   UNL     1     -39.381  63.147 -59.776  1.00  0.00     0.028 A 
HETATM   30  C   UNL     1     -40.153  62.678 -58.670  1.00  0.00     0.026 A 
ENDBRANCH  22  25
ENDBRANCH   3  21
TORSDOF 6
ENDMDL
