MODEL 1
REMARK VINA RESULT:      -7.9      0.000      0.000
REMARK  6 active torsions:
REMARK  status: ('A' for Active; 'I' for Inactive)
REMARK    1  A    between atoms: C_7  and  S_8 
REMARK    2  A    between atoms: S_8  and  C_9 
REMARK    3  A    between atoms: C_9  and  C_10 
REMARK    4  A    between atoms: C_18  and  C_19 
REMARK    5  A    between atoms: C_26  and  C_27 
REMARK    6  A    between atoms: C_27  and  O_28 
ROOT
HETATM    1  C   UNL     1     -45.318  59.004 -56.229  1.00  0.00     0.070 C 
HETATM    2  C   UNL     1     -44.546  58.050 -55.353  1.00  0.00     0.037 A 
HETATM    3  N   UNL     1     -44.107  56.886 -55.974  1.00  0.00    -0.192 N 
HETATM    4  C   UNL     1     -43.431  55.914 -55.336  1.00  0.00     0.726 A 
HETATM    5  N   UNL     1     -43.156  56.047 -54.005  1.00  0.00    -0.082 N 
HETATM    6  N   UNL     1     -42.516  54.959 -53.524  1.00  0.00    -0.128 NA
HETATM    7  C   UNL     1     -42.370  54.240 -54.646  1.00  0.00     0.226 A 
HETATM    8  N   UNL     1     -42.936  54.787 -55.772  1.00  0.00    -0.035 NA
HETATM    9  C   UNL     1     -43.526  57.223 -53.203  1.00  0.00     0.203 A 
HETATM   10  C   UNL     1     -44.287  58.246 -54.036  1.00  0.00     0.070 A 
HETATM   11  H   UNL     1     -44.307  56.774 -56.965  1.00  0.00     0.184 HD
ENDROOT
BRANCH   7  12
HETATM   12  S   UNL     1     -41.483  52.744 -54.722  1.00  0.00    -0.083 SA
BRANCH  12  13
HETATM   13  C   UNL     1     -40.098  53.079 -53.602  1.00  0.00     0.123 C 
BRANCH  13  14
HETATM   14  C   UNL     1     -39.990  52.015 -52.532  1.00  0.00    -0.027 A 
HETATM   15  C   UNL     1     -40.252  52.265 -51.174  1.00  0.00     0.041 A 
HETATM   16 CL   UNL     1     -40.683  53.837 -50.599  1.00  0.00    -0.084 Cl
HETATM   17  C   UNL     1     -40.170  51.233 -50.234  1.00  0.00     0.024 A 
HETATM   18  C   UNL     1     -39.827  49.942 -50.631  1.00  0.00     0.002 A 
HETATM   19  C   UNL     1     -39.565  49.677 -51.972  1.00  0.00     0.001 A 
HETATM   20  C   UNL     1     -39.651  50.704 -52.915  1.00  0.00     0.009 A 
ENDBRANCH  13  14
ENDBRANCH  12  13
ENDBRANCH   7  12
BRANCH   9  21
HETATM   21  C   UNL     1     -42.286  57.812 -52.532  1.00  0.00    -0.028 A 
HETATM   22  C   UNL     1     -41.207  58.311 -53.286  1.00  0.00     0.011 A 
HETATM   23  C   UNL     1     -40.089  58.857 -52.651  1.00  0.00     0.024 A 
HETATM   24  C   UNL     1     -40.040  58.916 -51.261  1.00  0.00     0.034 A 
HETATM   25 CL   UNL     1     -38.663  59.590 -50.480  1.00  0.00    -0.084 Cl
HETATM   26  C   UNL     1     -41.100  58.433 -50.497  1.00  0.00     0.024 A 
HETATM   27  C   UNL     1     -42.218  57.883 -51.129  1.00  0.00     0.011 A 
ENDBRANCH   9  21
BRANCH  10  28
HETATM   28  C   UNL     1     -44.685  59.493 -53.351  1.00  0.00     0.293 C 
HETATM   29  O   UNL     1     -45.636  59.586 -52.592  1.00  0.00    -0.259 OA
BRANCH  28  30
HETATM   30  O   UNL     1     -43.836  60.490 -53.698  1.00  0.00    -0.323 OA
HETATM   31  C   UNL     1     -43.433  61.305 -52.594  1.00  0.00     0.213 C 
ENDBRANCH  28  30
ENDBRANCH  10  28
TORSDOF 6
ENDMDL
MODEL 2
REMARK VINA RESULT:      -7.8      3.518      4.953
REMARK  6 active torsions:
REMARK  status: ('A' for Active; 'I' for Inactive)
REMARK    1  A    between atoms: C_7  and  S_8 
REMARK    2  A    between atoms: S_8  and  C_9 
REMARK    3  A    between atoms: C_9  and  C_10 
REMARK    4  A    between atoms: C_18  and  C_19 
REMARK    5  A    between atoms: C_26  and  C_27 
REMARK    6  A    between atoms: C_27  and  O_28 
ROOT
HETATM    1  C   UNL     1     -44.805  55.342 -60.389  1.00  0.00     0.070 C 
HETATM    2  C   UNL     1     -44.339  56.021 -59.126  1.00  0.00     0.037 A 
HETATM    3  N   UNL     1     -43.514  55.261 -58.306  1.00  0.00    -0.192 N 
HETATM    4  C   UNL     1     -43.031  55.697 -57.128  1.00  0.00     0.726 A 
HETATM    5  N   UNL     1     -43.362  56.947 -56.688  1.00  0.00    -0.082 N 
HETATM    6  N   UNL     1     -42.828  57.196 -55.472  1.00  0.00    -0.128 NA
HETATM    7  C   UNL     1     -42.122  56.074 -55.275  1.00  0.00     0.226 A 
HETATM    8  N   UNL     1     -42.238  55.126 -56.263  1.00  0.00    -0.035 NA
HETATM    9  C   UNL     1     -44.203  57.888 -57.441  1.00  0.00     0.203 A 
HETATM   10  C   UNL     1     -44.687  57.276 -58.749  1.00  0.00     0.070 A 
HETATM   11  H   UNL     1     -43.260  54.327 -58.622  1.00  0.00     0.184 HD
ENDROOT
BRANCH   7  12
HETATM   12  S   UNL     1     -41.074  55.824 -53.908  1.00  0.00    -0.083 SA
BRANCH  12  13
HETATM   13  C   UNL     1     -41.880  54.430 -53.075  1.00  0.00     0.123 C 
BRANCH  13  14
HETATM   14  C   UNL     1     -41.010  53.193 -53.111  1.00  0.00    -0.027 A 
HETATM   15  C   UNL     1     -40.163  52.822 -52.053  1.00  0.00     0.041 A 
HETATM   16 CL   UNL     1     -40.009  53.780 -50.623  1.00  0.00    -0.084 Cl
HETATM   17  C   UNL     1     -39.407  51.648 -52.128  1.00  0.00     0.024 A 
HETATM   18  C   UNL     1     -39.483  50.829 -53.254  1.00  0.00     0.002 A 
HETATM   19  C   UNL     1     -40.319  51.182 -54.310  1.00  0.00     0.001 A 
HETATM   20  C   UNL     1     -41.079  52.352 -54.238  1.00  0.00     0.009 A 
ENDBRANCH  13  14
ENDBRANCH  12  13
ENDBRANCH   7  12
BRANCH   9  21
HETATM   21  C   UNL     1     -43.460  59.209 -57.646  1.00  0.00    -0.028 A 
HETATM   22  C   UNL     1     -43.968  60.424 -57.151  1.00  0.00     0.011 A 
HETATM   23  C   UNL     1     -43.266  61.616 -57.339  1.00  0.00     0.024 A 
HETATM   24  C   UNL     1     -42.049  61.606 -58.016  1.00  0.00     0.034 A 
HETATM   25 CL   UNL     1     -41.185  63.076 -58.246  1.00  0.00    -0.084 Cl
HETATM   26  C   UNL     1     -41.527  60.413 -58.509  1.00  0.00     0.024 A 
HETATM   27  C   UNL     1     -42.229  59.219 -58.326  1.00  0.00     0.011 A 
ENDBRANCH   9  21
BRANCH  10  28
HETATM   28  C   UNL     1     -45.515  58.139 -59.617  1.00  0.00     0.293 C 
HETATM   29  O   UNL     1     -45.080  58.801 -60.544  1.00  0.00    -0.259 OA
BRANCH  28  30
HETATM   30  O   UNL     1     -46.809  58.070 -59.218  1.00  0.00    -0.323 OA
HETATM   31  C   UNL     1     -47.378  59.347 -58.912  1.00  0.00     0.213 C 
ENDBRANCH  28  30
ENDBRANCH  10  28
TORSDOF 6
ENDMDL
MODEL 3
REMARK VINA RESULT:      -7.8      2.871      3.880
REMARK  6 active torsions:
REMARK  status: ('A' for Active; 'I' for Inactive)
REMARK    1  A    between atoms: C_7  and  S_8 
REMARK    2  A    between atoms: S_8  and  C_9 
REMARK    3  A    between atoms: C_9  and  C_10 
REMARK    4  A    between atoms: C_18  and  C_19 
REMARK    5  A    between atoms: C_26  and  C_27 
REMARK    6  A    between atoms: C_27  and  O_28 
ROOT
HETATM    1  C   UNL     1     -42.755  56.937 -60.061  1.00  0.00     0.070 C 
HETATM    2  C   UNL     1     -43.092  56.876 -58.591  1.00  0.00     0.037 A 
HETATM    3  N   UNL     1     -42.487  55.846 -57.880  1.00  0.00    -0.192 N 
HETATM    4  C   UNL     1     -42.697  55.625 -56.570  1.00  0.00     0.726 A 
HETATM    5  N   UNL     1     -43.554  56.436 -55.880  1.00  0.00    -0.082 N 
HETATM    6  N   UNL     1     -43.678  56.038 -54.595  1.00  0.00    -0.128 NA
HETATM    7  C   UNL     1     -42.804  55.022 -54.563  1.00  0.00     0.226 A 
HETATM    8  N   UNL     1     -42.198  54.731 -55.761  1.00  0.00    -0.035 NA
HETATM    9  C   UNL     1     -44.257  57.583 -56.473  1.00  0.00     0.203 A 
HETATM   10  C   UNL     1     -43.938  57.723 -57.956  1.00  0.00     0.070 A 
HETATM   11  H   UNL     1     -41.847  55.235 -58.382  1.00  0.00     0.184 HD
ENDROOT
BRANCH   7  12
HETATM   12  S   UNL     1     -42.394  54.151 -53.112  1.00  0.00    -0.083 SA
BRANCH  12  13
HETATM   13  C   UNL     1     -40.609  53.912 -53.317  1.00  0.00     0.123 C 
BRANCH  13  14
HETATM   14  C   UNL     1     -40.232  52.454 -53.174  1.00  0.00    -0.027 A 
HETATM   15  C   UNL     1     -39.914  51.864 -51.939  1.00  0.00     0.041 A 
HETATM   16 CL   UNL     1     -39.882  52.773 -50.470  1.00  0.00    -0.084 Cl
HETATM   17  C   UNL     1     -39.606  50.502 -51.862  1.00  0.00     0.024 A 
HETATM   18  C   UNL     1     -39.612  49.711 -53.010  1.00  0.00     0.002 A 
HETATM   19  C   UNL     1     -39.927  50.280 -54.241  1.00  0.00     0.001 A 
HETATM   20  C   UNL     1     -40.239  51.639 -54.322  1.00  0.00     0.009 A 
ENDBRANCH  13  14
ENDBRANCH  12  13
ENDBRANCH   7  12
BRANCH   9  21
HETATM   21  C   UNL     1     -43.950  58.854 -55.680  1.00  0.00    -0.028 A 
HETATM   22  C   UNL     1     -42.638  59.345 -55.557  1.00  0.00     0.011 A 
HETATM   23  C   UNL     1     -42.382  60.516 -54.839  1.00  0.00     0.024 A 
HETATM   24  C   UNL     1     -43.434  61.208 -54.243  1.00  0.00     0.034 A 
HETATM   25 CL   UNL     1     -43.119  62.650 -53.359  1.00  0.00    -0.084 Cl
HETATM   26  C   UNL     1     -44.740  60.740 -54.358  1.00  0.00     0.024 A 
HETATM   27  C   UNL     1     -44.998  59.568 -55.073  1.00  0.00     0.011 A 
ENDBRANCH   9  21
BRANCH  10  28
HETATM   28  C   UNL     1     -44.558  58.864 -58.661  1.00  0.00     0.293 C 
HETATM   29  O   UNL     1     -43.951  59.855 -59.032  1.00  0.00    -0.259 OA
BRANCH  28  30
HETATM   30  O   UNL     1     -45.883  58.628 -58.822  1.00  0.00    -0.323 OA
HETATM   31  C   UNL     1     -46.234  58.239 -60.153  1.00  0.00     0.213 C 
ENDBRANCH  28  30
ENDBRANCH  10  28
TORSDOF 6
ENDMDL
MODEL 4
REMARK VINA RESULT:      -7.8      3.993      7.150
REMARK  6 active torsions:
REMARK  status: ('A' for Active; 'I' for Inactive)
REMARK    1  A    between atoms: C_7  and  S_8 
REMARK    2  A    between atoms: S_8  and  C_9 
REMARK    3  A    between atoms: C_9  and  C_10 
REMARK    4  A    between atoms: C_18  and  C_19 
REMARK    5  A    between atoms: C_26  and  C_27 
REMARK    6  A    between atoms: C_27  and  O_28 
ROOT
HETATM    1  C   UNL     1     -41.079  59.560 -51.103  1.00  0.00     0.070 C 
HETATM    2  C   UNL     1     -41.543  58.832 -52.341  1.00  0.00     0.037 A 
HETATM    3  N   UNL     1     -41.412  59.535 -53.533  1.00  0.00    -0.192 N 
HETATM    4  C   UNL     1     -41.803  59.051 -54.726  1.00  0.00     0.726 A 
HETATM    5  N   UNL     1     -42.370  57.810 -54.796  1.00  0.00    -0.082 N 
HETATM    6  N   UNL     1     -42.741  57.511 -56.060  1.00  0.00    -0.128 NA
HETATM    7  C   UNL     1     -42.296  58.593 -56.714  1.00  0.00     0.226 A 
HETATM    8  N   UNL     1     -41.731  59.565 -55.924  1.00  0.00    -0.035 NA
HETATM    9  C   UNL     1     -42.559  56.927 -53.637  1.00  0.00     0.203 A 
HETATM   10  C   UNL     1     -42.082  57.588 -52.350  1.00  0.00     0.070 A 
HETATM   11  H   UNL     1     -40.993  60.461 -53.494  1.00  0.00     0.184 HD
ENDROOT
BRANCH   7  12
HETATM   12  S   UNL     1     -42.355  58.764 -58.445  1.00  0.00    -0.083 SA
BRANCH  12  13
HETATM   13  C   UNL     1     -44.137  58.677 -58.764  1.00  0.00     0.123 C 
BRANCH  13  14
HETATM   14  C   UNL     1     -44.528  57.325 -59.319  1.00  0.00    -0.027 A 
HETATM   15  C   UNL     1     -45.815  57.041 -59.805  1.00  0.00     0.041 A 
HETATM   16 CL   UNL     1     -47.087  58.210 -59.771  1.00  0.00    -0.084 Cl
HETATM   17  C   UNL     1     -46.110  55.782 -60.340  1.00  0.00     0.024 A 
HETATM   18  C   UNL     1     -45.130  54.792 -60.396  1.00  0.00     0.002 A 
HETATM   19  C   UNL     1     -43.850  55.059 -59.920  1.00  0.00     0.001 A 
HETATM   20  C   UNL     1     -43.550  56.315 -59.390  1.00  0.00     0.009 A 
ENDBRANCH  13  14
ENDBRANCH  12  13
ENDBRANCH   7  12
BRANCH   9  21
HETATM   21  C   UNL     1     -41.889  55.576 -53.890  1.00  0.00    -0.028 A 
HETATM   22  C   UNL     1     -42.540  54.365 -53.592  1.00  0.00     0.011 A 
HETATM   23  C   UNL     1     -41.914  53.142 -53.844  1.00  0.00     0.024 A 
HETATM   24  C   UNL     1     -40.637  53.117 -54.400  1.00  0.00     0.034 A 
HETATM   25 CL   UNL     1     -39.868  51.610 -54.710  1.00  0.00    -0.084 Cl
HETATM   26  C   UNL     1     -39.979  54.305 -54.706  1.00  0.00     0.024 A 
HETATM   27  C   UNL     1     -40.601  55.530 -54.452  1.00  0.00     0.011 A 
ENDBRANCH   9  21
BRANCH  10  28
HETATM   28  C   UNL     1     -42.188  56.785 -51.115  1.00  0.00     0.293 C 
HETATM   29  O   UNL     1     -43.242  56.472 -50.586  1.00  0.00    -0.259 OA
BRANCH  28  30
HETATM   30  O   UNL     1     -40.945  56.463 -50.679  1.00  0.00    -0.323 OA
HETATM   31  C   UNL     1     -40.793  55.075 -50.370  1.00  0.00     0.213 C 
ENDBRANCH  28  30
ENDBRANCH  10  28
TORSDOF 6
ENDMDL
MODEL 5
REMARK VINA RESULT:      -7.7      3.830      7.271
REMARK  6 active torsions:
REMARK  status: ('A' for Active; 'I' for Inactive)
REMARK    1  A    between atoms: C_7  and  S_8 
REMARK    2  A    between atoms: S_8  and  C_9 
REMARK    3  A    between atoms: C_9  and  C_10 
REMARK    4  A    between atoms: C_18  and  C_19 
REMARK    5  A    between atoms: C_26  and  C_27 
REMARK    6  A    between atoms: C_27  and  O_28 
ROOT
HETATM    1  C   UNL     1     -41.831  59.951 -52.035  1.00  0.00     0.070 C 
HETATM    2  C   UNL     1     -42.107  59.091 -53.243  1.00  0.00     0.037 A 
HETATM    3  N   UNL     1     -41.826  59.676 -54.472  1.00  0.00    -0.192 N 
HETATM    4  C   UNL     1     -42.039  59.065 -55.652  1.00  0.00     0.726 A 
HETATM    5  N   UNL     1     -42.569  57.805 -55.670  1.00  0.00    -0.082 N 
HETATM    6  N   UNL     1     -42.757  57.371 -56.936  1.00  0.00    -0.128 NA
HETATM    7  C   UNL     1     -42.245  58.397 -57.630  1.00  0.00     0.226 A 
HETATM    8  N   UNL     1     -41.812  59.460 -56.875  1.00  0.00    -0.035 NA
HETATM    9  C   UNL     1     -42.900  57.035 -54.463  1.00  0.00     0.203 A 
HETATM   10  C   UNL     1     -42.618  57.835 -53.198  1.00  0.00     0.070 A 
HETATM   11  H   UNL     1     -41.432  60.614 -54.472  1.00  0.00     0.184 HD
ENDROOT
BRANCH   7  12
HETATM   12  S   UNL     1     -42.068  58.394 -59.362  1.00  0.00    -0.083 SA
BRANCH  12  13
HETATM   13  C   UNL     1     -42.849  56.821 -59.810  1.00  0.00     0.123 C 
BRANCH  13  14
HETATM   14  C   UNL     1     -44.330  56.998 -60.064  1.00  0.00    -0.027 A 
HETATM   15  C   UNL     1     -45.237  55.926 -60.082  1.00  0.00     0.041 A 
HETATM   16 CL   UNL     1     -44.728  54.290 -59.857  1.00  0.00    -0.084 Cl
HETATM   17  C   UNL     1     -46.602  56.154 -60.287  1.00  0.00     0.024 A 
HETATM   18  C   UNL     1     -47.080  57.450 -60.476  1.00  0.00     0.002 A 
HETATM   19  C   UNL     1     -46.194  58.524 -60.460  1.00  0.00     0.001 A 
HETATM   20  C   UNL     1     -44.832  58.301 -60.251  1.00  0.00     0.009 A 
ENDBRANCH  13  14
ENDBRANCH  12  13
ENDBRANCH   7  12
BRANCH   9  21
HETATM   21  C   UNL     1     -42.178  55.688 -54.484  1.00  0.00    -0.028 A 
HETATM   22  C   UNL     1     -40.777  55.606 -54.595  1.00  0.00     0.011 A 
HETATM   23  C   UNL     1     -40.136  54.365 -54.599  1.00  0.00     0.024 A 
HETATM   24  C   UNL     1     -40.886  53.197 -54.486  1.00  0.00     0.034 A 
HETATM   25 CL   UNL     1     -40.096  51.669 -54.490  1.00  0.00    -0.084 Cl
HETATM   26  C   UNL     1     -42.272  53.257 -54.369  1.00  0.00     0.024 A 
HETATM   27  C   UNL     1     -42.916  54.497 -54.369  1.00  0.00     0.011 A 
ENDBRANCH   9  21
BRANCH  10  28
HETATM   28  C   UNL     1     -42.878  57.156 -51.913  1.00  0.00     0.293 C 
HETATM   29  O   UNL     1     -42.014  56.866 -51.101  1.00  0.00    -0.259 OA
BRANCH  28  30
HETATM   30  O   UNL     1     -44.206  56.915 -51.791  1.00  0.00    -0.323 OA
HETATM   31  C   UNL     1     -44.910  57.948 -51.097  1.00  0.00     0.213 C 
ENDBRANCH  28  30
ENDBRANCH  10  28
TORSDOF 6
ENDMDL
MODEL 6
REMARK VINA RESULT:      -7.7      3.660      5.390
REMARK  6 active torsions:
REMARK  status: ('A' for Active; 'I' for Inactive)
REMARK    1  A    between atoms: C_7  and  S_8 
REMARK    2  A    between atoms: S_8  and  C_9 
REMARK    3  A    between atoms: C_9  and  C_10 
REMARK    4  A    between atoms: C_18  and  C_19 
REMARK    5  A    between atoms: C_26  and  C_27 
REMARK    6  A    between atoms: C_27  and  O_28 
ROOT
HETATM    1  C   UNL     1     -42.838  61.200 -55.219  1.00  0.00     0.070 C 
HETATM    2  C   UNL     1     -42.711  59.787 -55.734  1.00  0.00     0.037 A 
HETATM    3  N   UNL     1     -42.618  58.800 -54.760  1.00  0.00    -0.192 N 
HETATM    4  C   UNL     1     -42.469  57.493 -55.040  1.00  0.00     0.726 A 
HETATM    5  N   UNL     1     -42.393  57.088 -56.342  1.00  0.00    -0.082 N 
HETATM    6  N   UNL     1     -42.198  55.754 -56.432  1.00  0.00    -0.128 NA
HETATM    7  C   UNL     1     -42.243  55.409 -55.137  1.00  0.00     0.226 A 
HETATM    8  N   UNL     1     -42.390  56.452 -54.255  1.00  0.00    -0.035 NA
HETATM    9  C   UNL     1     -42.497  57.997 -57.493  1.00  0.00     0.203 A 
HETATM   10  C   UNL     1     -42.659  59.444 -57.045  1.00  0.00     0.070 A 
HETATM   11  H   UNL     1     -42.672  59.089 -53.786  1.00  0.00     0.184 HD
ENDROOT
BRANCH   7  12
HETATM   12  S   UNL     1     -42.183  53.761 -54.578  1.00  0.00    -0.083 SA
BRANCH  12  13
HETATM   13  C   UNL     1     -40.641  53.750 -53.625  1.00  0.00     0.123 C 
BRANCH  13  14
HETATM   14  C   UNL     1     -40.231  52.339 -53.265  1.00  0.00    -0.027 A 
HETATM   15  C   UNL     1     -39.838  51.964 -51.970  1.00  0.00     0.041 A 
HETATM   16 CL   UNL     1     -39.746  53.103 -50.673  1.00  0.00    -0.084 Cl
HETATM   17  C   UNL     1     -39.502  50.636 -51.686  1.00  0.00     0.024 A 
HETATM   18  C   UNL     1     -39.554  49.666 -52.687  1.00  0.00     0.002 A 
HETATM   19  C   UNL     1     -39.943  50.021 -53.975  1.00  0.00     0.001 A 
HETATM   20  C   UNL     1     -40.283  51.346 -54.261  1.00  0.00     0.009 A 
ENDBRANCH  13  14
ENDBRANCH  12  13
ENDBRANCH   7  12
BRANCH   9  21
HETATM   21  C   UNL     1     -43.619  57.538 -58.425  1.00  0.00    -0.028 A 
HETATM   22  C   UNL     1     -43.345  56.877 -59.636  1.00  0.00     0.011 A 
HETATM   23  C   UNL     1     -44.387  56.455 -60.466  1.00  0.00     0.024 A 
HETATM   24  C   UNL     1     -45.709  56.684 -60.092  1.00  0.00     0.034 A 
HETATM   25 CL   UNL     1     -46.990  56.163 -61.115  1.00  0.00    -0.084 Cl
HETATM   26  C   UNL     1     -46.000  57.332 -58.895  1.00  0.00     0.024 A 
HETATM   27  C   UNL     1     -44.961  57.758 -58.064  1.00  0.00     0.011 A 
ENDBRANCH   9  21
BRANCH  10  28
HETATM   28  C   UNL     1     -42.811  60.454 -58.112  1.00  0.00     0.293 C 
HETATM   29  O   UNL     1     -43.843  61.063 -58.341  1.00  0.00    -0.259 OA
BRANCH  28  30
HETATM   30  O   UNL     1     -41.637  60.587 -58.778  1.00  0.00    -0.323 OA
HETATM   31  C   UNL     1     -40.899  61.752 -58.402  1.00  0.00     0.213 C 
ENDBRANCH  28  30
ENDBRANCH  10  28
TORSDOF 6
ENDMDL
MODEL 7
REMARK VINA RESULT:      -7.4      1.528      2.085
REMARK  6 active torsions:
REMARK  status: ('A' for Active; 'I' for Inactive)
REMARK    1  A    between atoms: C_7  and  S_8 
REMARK    2  A    between atoms: S_8  and  C_9 
REMARK    3  A    between atoms: C_9  and  C_10 
REMARK    4  A    between atoms: C_18  and  C_19 
REMARK    5  A    between atoms: C_26  and  C_27 
REMARK    6  A    between atoms: C_27  and  O_28 
ROOT
HETATM    1  C   UNL     1     -43.243  59.935 -58.259  1.00  0.00     0.070 C 
HETATM    2  C   UNL     1     -43.210  58.989 -57.085  1.00  0.00     0.037 A 
HETATM    3  N   UNL     1     -42.898  57.669 -57.388  1.00  0.00    -0.192 N 
HETATM    4  C   UNL     1     -42.854  56.687 -56.469  1.00  0.00     0.726 A 
HETATM    5  N   UNL     1     -43.137  56.973 -55.164  1.00  0.00    -0.082 N 
HETATM    6  N   UNL     1     -43.091  55.863 -54.396  1.00  0.00    -0.128 NA
HETATM    7  C   UNL     1     -42.698  54.952 -55.298  1.00  0.00     0.226 A 
HETATM    8  N   UNL     1     -42.560  55.420 -56.583  1.00  0.00    -0.035 NA
HETATM    9  C   UNL     1     -43.463  58.319 -54.670  1.00  0.00     0.203 A 
HETATM   10  C   UNL     1     -43.484  59.337 -55.803  1.00  0.00     0.070 A 
HETATM   11  H   UNL     1     -42.686  57.442 -58.357  1.00  0.00     0.184 HD
ENDROOT
BRANCH   7  12
HETATM   12  S   UNL     1     -42.319  53.301 -54.897  1.00  0.00    -0.083 SA
BRANCH  12  13
HETATM   13  C   UNL     1     -40.724  53.482 -54.055  1.00  0.00     0.123 C 
BRANCH  13  14
HETATM   14  C   UNL     1     -40.255  52.163 -53.482  1.00  0.00    -0.027 A 
HETATM   15  C   UNL     1     -39.867  52.006 -52.142  1.00  0.00     0.041 A 
HETATM   16 CL   UNL     1     -39.850  53.329 -51.031  1.00  0.00    -0.084 Cl
HETATM   17  C   UNL     1     -39.475  50.752 -51.658  1.00  0.00     0.024 A 
HETATM   18  C   UNL     1     -39.465  49.642 -52.501  1.00  0.00     0.002 A 
HETATM   19  C   UNL     1     -39.849  49.781 -53.832  1.00  0.00     0.001 A 
HETATM   20  C   UNL     1     -40.245  51.029 -54.318  1.00  0.00     0.009 A 
ENDBRANCH  13  14
ENDBRANCH  12  13
ENDBRANCH   7  12
BRANCH   9  21
HETATM   21  C   UNL     1     -42.508  58.710 -53.542  1.00  0.00    -0.028 A 
HETATM   22  C   UNL     1     -42.983  59.085 -52.272  1.00  0.00     0.011 A 
HETATM   23  C   UNL     1     -42.092  59.426 -51.252  1.00  0.00     0.024 A 
HETATM   24  C   UNL     1     -40.720  59.390 -51.489  1.00  0.00     0.034 A 
HETATM   25 CL   UNL     1     -39.623  59.810 -50.232  1.00  0.00    -0.084 Cl
HETATM   26  C   UNL     1     -40.229  59.017 -52.737  1.00  0.00     0.024 A 
HETATM   27  C   UNL     1     -41.119  58.678 -53.760  1.00  0.00     0.011 A 
ENDBRANCH   9  21
BRANCH  10  28
HETATM   28  C   UNL     1     -43.765  60.738 -55.429  1.00  0.00     0.293 C 
HETATM   29  O   UNL     1     -42.920  61.616 -55.368  1.00  0.00    -0.259 OA
BRANCH  28  30
HETATM   30  O   UNL     1     -45.088  60.879 -55.172  1.00  0.00    -0.323 OA
HETATM   31  C   UNL     1     -45.748  61.783 -56.062  1.00  0.00     0.213 C 
ENDBRANCH  28  30
ENDBRANCH  10  28
TORSDOF 6
ENDMDL
MODEL 8
REMARK VINA RESULT:      -7.3      2.816      4.058
REMARK  6 active torsions:
REMARK  status: ('A' for Active; 'I' for Inactive)
REMARK    1  A    between atoms: C_7  and  S_8 
REMARK    2  A    between atoms: S_8  and  C_9 
REMARK    3  A    between atoms: C_9  and  C_10 
REMARK    4  A    between atoms: C_18  and  C_19 
REMARK    5  A    between atoms: C_26  and  C_27 
REMARK    6  A    between atoms: C_27  and  O_28 
ROOT
HETATM    1  C   UNL     1     -45.405  58.931 -51.843  1.00  0.00     0.070 C 
HETATM    2  C   UNL     1     -44.455  58.229 -52.783  1.00  0.00     0.037 A 
HETATM    3  N   UNL     1     -44.330  56.857 -52.594  1.00  0.00    -0.192 N 
HETATM    4  C   UNL     1     -43.507  56.080 -53.321  1.00  0.00     0.726 A 
HETATM    5  N   UNL     1     -42.734  56.646 -54.295  1.00  0.00    -0.082 N 
HETATM    6  N   UNL     1     -41.940  55.727 -54.887  1.00  0.00    -0.128 NA
HETATM    7  C   UNL     1     -42.344  54.610 -54.265  1.00  0.00     0.226 A 
HETATM    8  N   UNL     1     -43.292  54.793 -53.287  1.00  0.00    -0.035 NA
HETATM    9  C   UNL     1     -42.762  58.074 -54.640  1.00  0.00     0.203 A 
HETATM   10  C   UNL     1     -43.727  58.843 -53.747  1.00  0.00     0.070 A 
HETATM   11  H   UNL     1     -44.899  56.424 -51.871  1.00  0.00     0.184 HD
ENDROOT
BRANCH   7  12
HETATM   12  S   UNL     1     -41.779  53.018 -54.682  1.00  0.00    -0.083 SA
BRANCH  12  13
HETATM   13  C   UNL     1     -40.125  53.007 -53.939  1.00  0.00     0.123 C 
BRANCH  13  14
HETATM   14  C   UNL     1     -40.030  51.983 -52.830  1.00  0.00    -0.027 A 
HETATM   15  C   UNL     1     -39.735  50.629 -53.061  1.00  0.00     0.041 A 
HETATM   16 CL   UNL     1     -39.496  50.002 -54.654  1.00  0.00    -0.084 Cl
HETATM   17  C   UNL     1     -39.626  49.734 -51.992  1.00  0.00     0.024 A 
HETATM   18  C   UNL     1     -39.809  50.173 -50.682  1.00  0.00     0.002 A 
HETATM   19  C   UNL     1     -40.100  51.512 -50.435  1.00  0.00     0.001 A 
HETATM   20  C   UNL     1     -40.206  52.410 -51.500  1.00  0.00     0.009 A 
ENDBRANCH  13  14
ENDBRANCH  12  13
ENDBRANCH   7  12
BRANCH   9  21
HETATM   21  C   UNL     1     -43.067  58.250 -56.128  1.00  0.00    -0.028 A 
HETATM   22  C   UNL     1     -42.203  58.967 -56.976  1.00  0.00     0.011 A 
HETATM   23  C   UNL     1     -42.495  59.104 -58.336  1.00  0.00     0.024 A 
HETATM   24  C   UNL     1     -43.646  58.522 -58.861  1.00  0.00     0.034 A 
HETATM   25 CL   UNL     1     -44.004  58.691 -60.535  1.00  0.00    -0.084 Cl
HETATM   26  C   UNL     1     -44.510  57.804 -58.038  1.00  0.00     0.024 A 
HETATM   27  C   UNL     1     -44.223  57.669 -56.678  1.00  0.00     0.011 A 
ENDBRANCH   9  21
BRANCH  10  28
HETATM   28  C   UNL     1     -43.871  60.288 -54.018  1.00  0.00     0.293 C 
HETATM   29  O   UNL     1     -44.793  60.781 -54.648  1.00  0.00    -0.259 OA
BRANCH  28  30
HETATM   30  O   UNL     1     -42.832  60.957 -53.462  1.00  0.00    -0.323 OA
HETATM   31  C   UNL     1     -43.239  62.009 -52.582  1.00  0.00     0.213 C 
ENDBRANCH  28  30
ENDBRANCH  10  28
TORSDOF 6
ENDMDL
MODEL 9
REMARK VINA RESULT:      -7.2      3.737      5.223
REMARK  6 active torsions:
REMARK  status: ('A' for Active; 'I' for Inactive)
REMARK    1  A    between atoms: C_7  and  S_8 
REMARK    2  A    between atoms: S_8  and  C_9 
REMARK    3  A    between atoms: C_9  and  C_10 
REMARK    4  A    between atoms: C_18  and  C_19 
REMARK    5  A    between atoms: C_26  and  C_27 
REMARK    6  A    between atoms: C_27  and  O_28 
ROOT
HETATM    1  C   UNL     1     -44.694  55.504 -60.570  1.00  0.00     0.070 C 
HETATM    2  C   UNL     1     -44.301  56.177 -59.279  1.00  0.00     0.037 A 
HETATM    3  N   UNL     1     -43.583  55.389 -58.387  1.00  0.00    -0.192 N 
HETATM    4  C   UNL     1     -43.177  55.817 -57.178  1.00  0.00     0.726 A 
HETATM    5  N   UNL     1     -43.483  57.086 -56.777  1.00  0.00    -0.082 N 
HETATM    6  N   UNL     1     -43.039  57.325 -55.523  1.00  0.00    -0.128 NA
HETATM    7  C   UNL     1     -42.406  56.174 -55.259  1.00  0.00     0.226 A 
HETATM    8  N   UNL     1     -42.486  55.220 -56.245  1.00  0.00    -0.035 NA
HETATM    9  C   UNL     1     -44.213  58.057 -57.605  1.00  0.00     0.203 A 
HETATM   10  C   UNL     1     -44.618  57.452 -58.943  1.00  0.00     0.070 A 
HETATM   11  H   UNL     1     -43.350  54.441 -58.673  1.00  0.00     0.184 HD
ENDROOT
BRANCH   7  12
HETATM   12  S   UNL     1     -41.486  55.891 -53.808  1.00  0.00    -0.083 SA
BRANCH  12  13
HETATM   13  C   UNL     1     -42.359  54.476 -53.087  1.00  0.00     0.123 C 
BRANCH  13  14
HETATM   14  C   UNL     1     -41.395  53.518 -52.424  1.00  0.00    -0.027 A 
HETATM   15  C   UNL     1     -40.505  52.705 -53.147  1.00  0.00     0.041 A 
HETATM   16 CL   UNL     1     -40.467  52.699 -54.875  1.00  0.00    -0.084 Cl
HETATM   17  C   UNL     1     -39.610  51.863 -52.479  1.00  0.00     0.024 A 
HETATM   18  C   UNL     1     -39.590  51.818 -51.085  1.00  0.00     0.002 A 
HETATM   19  C   UNL     1     -40.463  52.618 -50.355  1.00  0.00     0.001 A 
HETATM   20  C   UNL     1     -41.355  53.464 -51.018  1.00  0.00     0.009 A 
ENDBRANCH  13  14
ENDBRANCH  12  13
ENDBRANCH   7  12
BRANCH   9  21
HETATM   21  C   UNL     1     -43.393  59.338 -57.760  1.00  0.00    -0.028 A 
HETATM   22  C   UNL     1     -43.880  60.581 -57.316  1.00  0.00     0.011 A 
HETATM   23  C   UNL     1     -43.108  61.737 -57.456  1.00  0.00     0.024 A 
HETATM   24  C   UNL     1     -41.843  61.661 -58.033  1.00  0.00     0.034 A 
HETATM   25 CL   UNL     1     -40.893  63.085 -58.204  1.00  0.00    -0.084 Cl
HETATM   26  C   UNL     1     -41.341  60.439 -58.474  1.00  0.00     0.024 A 
HETATM   27  C   UNL     1     -42.112  59.282 -58.338  1.00  0.00     0.011 A 
ENDBRANCH   9  21
BRANCH  10  28
HETATM   28  C   UNL     1     -45.330  58.341 -59.883  1.00  0.00     0.293 C 
HETATM   29  O   UNL     1     -44.782  59.025 -60.732  1.00  0.00    -0.259 OA
BRANCH  28  30
HETATM   30  O   UNL     1     -46.663  58.271 -59.649  1.00  0.00    -0.323 OA
HETATM   31  C   UNL     1     -47.460  58.634 -60.780  1.00  0.00     0.213 C 
ENDBRANCH  28  30
ENDBRANCH  10  28
TORSDOF 6
ENDMDL
MODEL 10
REMARK VINA RESULT:      -7.1      4.008      6.853
REMARK  6 active torsions:
REMARK  status: ('A' for Active; 'I' for Inactive)
REMARK    1  A    between atoms: C_7  and  S_8 
REMARK    2  A    between atoms: S_8  and  C_9 
REMARK    3  A    between atoms: C_9  and  C_10 
REMARK    4  A    between atoms: C_18  and  C_19 
REMARK    5  A    between atoms: C_26  and  C_27 
REMARK    6  A    between atoms: C_27  and  O_28 
ROOT
HETATM    1  C   UNL     1     -44.162  60.273 -50.960  1.00  0.00     0.070 C 
HETATM    2  C   UNL     1     -44.461  59.499 -52.219  1.00  0.00     0.037 A 
HETATM    3  N   UNL     1     -44.810  60.265 -53.325  1.00  0.00    -0.192 N 
HETATM    4  C   UNL     1     -45.138  59.739 -54.519  1.00  0.00     0.726 A 
HETATM    5  N   UNL     1     -45.144  58.382 -54.678  1.00  0.00    -0.082 N 
HETATM    6  N   UNL     1     -45.540  58.034 -55.922  1.00  0.00    -0.128 NA
HETATM    7  C   UNL     1     -45.684  59.243 -56.484  1.00  0.00     0.226 A 
HETATM    8  N   UNL     1     -45.462  60.310 -55.648  1.00  0.00    -0.035 NA
HETATM    9  C   UNL     1     -44.778  57.430 -53.619  1.00  0.00     0.203 A 
HETATM   10  C   UNL     1     -44.433  58.147 -52.321  1.00  0.00     0.070 A 
HETATM   11  H   UNL     1     -44.811  61.277 -53.220  1.00  0.00     0.184 HD
ENDROOT
BRANCH   7  12
HETATM   12  S   UNL     1     -46.063  59.483 -58.166  1.00  0.00    -0.083 SA
BRANCH  12  13
HETATM   13  C   UNL     1     -44.519  58.977 -58.969  1.00  0.00     0.123 C 
BRANCH  13  14
HETATM   14  C   UNL     1     -44.439  57.472 -59.101  1.00  0.00    -0.027 A 
HETATM   15  C   UNL     1     -45.318  56.727 -59.906  1.00  0.00     0.041 A 
HETATM   16 CL   UNL     1     -46.605  57.469 -60.787  1.00  0.00    -0.084 Cl
HETATM   17  C   UNL     1     -45.175  55.340 -60.018  1.00  0.00     0.024 A 
HETATM   18  C   UNL     1     -44.157  54.678 -59.332  1.00  0.00     0.002 A 
HETATM   19  C   UNL     1     -43.278  55.402 -58.532  1.00  0.00     0.001 A 
HETATM   20  C   UNL     1     -43.414  56.787 -58.421  1.00  0.00     0.009 A 
ENDBRANCH  13  14
ENDBRANCH  12  13
ENDBRANCH   7  12
BRANCH   9  21
HETATM   21  C   UNL     1     -43.655  56.512 -54.104  1.00  0.00    -0.028 A 
HETATM   22  C   UNL     1     -43.849  55.127 -54.254  1.00  0.00     0.011 A 
HETATM   23  C   UNL     1     -42.813  54.309 -54.710  1.00  0.00     0.024 A 
HETATM   24  C   UNL     1     -41.576  54.867 -55.026  1.00  0.00     0.034 A 
HETATM   25 CL   UNL     1     -40.301  53.859 -55.589  1.00  0.00    -0.084 Cl
HETATM   26  C   UNL     1     -41.366  56.237 -54.889  1.00  0.00     0.024 A 
HETATM   27  C   UNL     1     -42.399  57.056 -54.429  1.00  0.00     0.011 A 
ENDBRANCH   9  21
BRANCH  10  28
HETATM   28  C   UNL     1     -44.013  57.298 -51.187  1.00  0.00     0.293 C 
HETATM   29  O   UNL     1     -44.771  56.599 -50.534  1.00  0.00    -0.259 OA
BRANCH  28  30
HETATM   30  O   UNL     1     -42.677  57.423 -51.000  1.00  0.00    -0.323 OA
HETATM   31  C   UNL     1     -42.014  56.176 -50.775  1.00  0.00     0.213 C 
ENDBRANCH  28  30
ENDBRANCH  10  28
TORSDOF 6
ENDMDL
