MODEL 1
REMARK VINA RESULT:      -7.7      0.000      0.000
REMARK  3 active torsions:
REMARK  status: ('A' for Active; 'I' for Inactive)
REMARK    1  A    between atoms: C_9  and  C_10 
REMARK    2  A    between atoms: C_16  and  C_17 
REMARK       I    between atoms: C_17  and  N_18 
REMARK    3  A    between atoms: N_18  and  C_19 
ROOT
HETATM    1  C   UNL     1     -40.535  52.937 -54.393  1.00  0.00     0.070 C 
HETATM    2  C   UNL     1     -40.972  53.621 -53.122  1.00  0.00     0.037 C 
HETATM    3  N   UNL     1     -40.263  53.269 -51.976  1.00  0.00    -0.191 N 
HETATM    4  C   UNL     1     -40.661  53.611 -50.733  1.00  0.00     0.735 A 
HETATM    5  N   UNL     1     -41.730  54.449 -50.582  1.00  0.00    -0.092 N 
HETATM    6  N   UNL     1     -42.008  54.618 -49.281  1.00  0.00     0.012 NA
HETATM    7  N   UNL     1     -41.078  53.910 -48.647  1.00  0.00     0.033 NA
HETATM    8  N   UNL     1     -40.233  53.278 -49.541  1.00  0.00     0.030 NA
HETATM    9  C   UNL     1     -42.487  55.040 -51.683  1.00  0.00     0.199 C 
HETATM   10  C   UNL     1     -42.021  54.474 -53.024  1.00  0.00     0.062 C 
HETATM   11  H   UNL     1     -39.533  52.566 -52.071  1.00  0.00     0.184 HD
ENDROOT
BRANCH  10  12
HETATM   12  C   UNL     1     -42.884  54.864 -54.170  1.00  0.00     0.256 C 
HETATM   13  N   UNL     1     -42.313  55.805 -54.995  1.00  0.00    -0.322 N 
HETATM   14  H   UNL     1     -41.399  56.159 -54.743  1.00  0.00     0.169 HD
HETATM   15  O   UNL     1     -44.008  54.385 -54.252  1.00  0.00    -0.267 OA
BRANCH  13  16
HETATM   16  C   UNL     1     -42.880  56.341 -56.172  1.00  0.00     0.052 A 
HETATM   17  C   UNL     1     -43.450  57.606 -56.285  1.00  0.00     0.145 A 
HETATM   18  N   UNL     1     -44.002  58.092 -57.426  1.00  0.00    -0.271 NA
HETATM   19  C   UNL     1     -43.990  57.284 -58.505  1.00  0.00     0.116 A 
HETATM   20  C   UNL     1     -43.449  56.010 -58.499  1.00  0.00     0.021 A 
HETATM   21  C   UNL     1     -42.885  55.537 -57.315  1.00  0.00     0.032 A 
ENDBRANCH  13  16
ENDBRANCH  10  12
BRANCH   9  22
HETATM   22  C   UNL     1     -42.398  56.557 -51.649  1.00  0.00    -0.011 A 
HETATM   23  C   UNL     1     -43.514  57.365 -51.440  1.00  0.00     0.125 A 
HETATM   24  N   UNL     1     -43.468  58.712 -51.347  1.00  0.00    -0.272 NA
HETATM   25  C   UNL     1     -42.258  59.295 -51.489  1.00  0.00     0.116 A 
HETATM   26  C   UNL     1     -41.087  58.587 -51.698  1.00  0.00     0.020 A 
HETATM   27  C   UNL     1     -41.159  57.200 -51.772  1.00  0.00     0.012 A 
ENDBRANCH   9  22
TORSDOF 3
ENDMDL
MODEL 2
REMARK VINA RESULT:      -7.6      1.973      5.769
REMARK  3 active torsions:
REMARK  status: ('A' for Active; 'I' for Inactive)
REMARK    1  A    between atoms: C_9  and  C_10 
REMARK    2  A    between atoms: C_16  and  C_17 
REMARK       I    between atoms: C_17  and  N_18 
REMARK    3  A    between atoms: N_18  and  C_19 
ROOT
HETATM    1  C   UNL     1     -40.703  56.138 -49.894  1.00  0.00     0.070 C 
HETATM    2  C   UNL     1     -41.750  56.583 -50.883  1.00  0.00     0.037 C 
HETATM    3  N   UNL     1     -42.098  57.930 -50.826  1.00  0.00    -0.191 N 
HETATM    4  C   UNL     1     -43.163  58.441 -51.478  1.00  0.00     0.735 A 
HETATM    5  N   UNL     1     -43.864  57.645 -52.339  1.00  0.00    -0.092 N 
HETATM    6  N   UNL     1     -44.917  58.310 -52.836  1.00  0.00     0.012 NA
HETATM    7  N   UNL     1     -44.825  59.524 -52.302  1.00  0.00     0.033 NA
HETATM    8  N   UNL     1     -43.737  59.618 -51.453  1.00  0.00     0.030 NA
HETATM    9  C   UNL     1     -43.536  56.253 -52.639  1.00  0.00     0.199 C 
HETATM   10  C   UNL     1     -42.397  55.761 -51.746  1.00  0.00     0.062 C 
HETATM   11  H   UNL     1     -41.650  58.502 -50.113  1.00  0.00     0.184 HD
ENDROOT
BRANCH  10  12
HETATM   12  C   UNL     1     -42.152  54.298 -51.842  1.00  0.00     0.256 C 
HETATM   13  N   UNL     1     -41.008  53.975 -52.535  1.00  0.00    -0.322 N 
HETATM   14  H   UNL     1     -40.468  54.735 -52.931  1.00  0.00     0.169 HD
HETATM   15  O   UNL     1     -42.980  53.528 -51.371  1.00  0.00    -0.267 OA
BRANCH  13  16
HETATM   16  C   UNL     1     -40.505  52.676 -52.762  1.00  0.00     0.052 A 
HETATM   17  C   UNL     1     -39.861  51.887 -51.812  1.00  0.00     0.145 A 
HETATM   18  N   UNL     1     -39.373  50.645 -52.060  1.00  0.00    -0.271 NA
HETATM   19  C   UNL     1     -39.528  50.164 -53.309  1.00  0.00     0.116 A 
HETATM   20  C   UNL     1     -40.152  50.866 -54.326  1.00  0.00     0.021 A 
HETATM   21  C   UNL     1     -40.648  52.138 -54.043  1.00  0.00     0.032 A 
ENDBRANCH  13  16
ENDBRANCH  10  12
BRANCH   9  22
HETATM   22  C   UNL     1     -43.211  56.079 -54.114  1.00  0.00    -0.011 A 
HETATM   23  C   UNL     1     -42.515  57.042 -54.843  1.00  0.00     0.125 A 
HETATM   24  N   UNL     1     -42.157  56.901 -56.138  1.00  0.00    -0.272 NA
HETATM   25  C   UNL     1     -42.524  55.756 -56.753  1.00  0.00     0.116 A 
HETATM   26  C   UNL     1     -43.214  54.736 -56.123  1.00  0.00     0.020 A 
HETATM   27  C   UNL     1     -43.555  54.899 -54.784  1.00  0.00     0.012 A 
ENDBRANCH   9  22
TORSDOF 3
ENDMDL
MODEL 3
REMARK VINA RESULT:      -7.3      1.871      5.984
REMARK  3 active torsions:
REMARK  status: ('A' for Active; 'I' for Inactive)
REMARK    1  A    between atoms: C_9  and  C_10 
REMARK    2  A    between atoms: C_16  and  C_17 
REMARK       I    between atoms: C_17  and  N_18 
REMARK    3  A    between atoms: N_18  and  C_19 
ROOT
HETATM    1  C   UNL     1     -43.233  55.036 -57.533  1.00  0.00     0.070 C 
HETATM    2  C   UNL     1     -42.909  56.292 -56.764  1.00  0.00     0.037 C 
HETATM    3  N   UNL     1     -42.972  57.476 -57.493  1.00  0.00    -0.191 N 
HETATM    4  C   UNL     1     -42.502  58.652 -57.025  1.00  0.00     0.735 A 
HETATM    5  N   UNL     1     -42.062  58.728 -55.734  1.00  0.00    -0.092 N 
HETATM    6  N   UNL     1     -41.577  59.953 -55.479  1.00  0.00     0.012 NA
HETATM    7  N   UNL     1     -41.764  60.626 -56.610  1.00  0.00     0.033 NA
HETATM    8  N   UNL     1     -42.339  59.826 -57.581  1.00  0.00     0.030 NA
HETATM    9  C   UNL     1     -42.077  57.620 -54.783  1.00  0.00     0.199 C 
HETATM   10  C   UNL     1     -42.507  56.324 -55.469  1.00  0.00     0.062 C 
HETATM   11  H   UNL     1     -43.200  57.409 -58.483  1.00  0.00     0.184 HD
ENDROOT
BRANCH  10  12
HETATM   12  C   UNL     1     -42.340  55.114 -54.621  1.00  0.00     0.256 C 
HETATM   13  N   UNL     1     -41.027  54.745 -54.440  1.00  0.00    -0.322 N 
HETATM   14  H   UNL     1     -40.316  55.294 -54.906  1.00  0.00     0.169 HD
HETATM   15  O   UNL     1     -43.340  54.531 -54.220  1.00  0.00    -0.267 OA
BRANCH  13  16
HETATM   16  C   UNL     1     -40.562  53.662 -53.663  1.00  0.00     0.052 A 
HETATM   17  C   UNL     1     -40.422  53.667 -52.278  1.00  0.00     0.145 A 
HETATM   18  N   UNL     1     -39.957  52.616 -51.556  1.00  0.00    -0.271 NA
HETATM   19  C   UNL     1     -39.612  51.508 -52.241  1.00  0.00     0.116 A 
HETATM   20  C   UNL     1     -39.712  51.399 -53.617  1.00  0.00     0.021 A 
HETATM   21  C   UNL     1     -40.196  52.492 -54.334  1.00  0.00     0.032 A 
ENDBRANCH  13  16
ENDBRANCH  10  12
BRANCH   9  22
HETATM   22  C   UNL     1     -42.957  57.944 -53.587  1.00  0.00    -0.011 A 
HETATM   23  C   UNL     1     -42.458  58.004 -52.287  1.00  0.00     0.125 A 
HETATM   24  N   UNL     1     -43.195  58.343 -51.206  1.00  0.00    -0.272 NA
HETATM   25  C   UNL     1     -44.500  58.617 -51.417  1.00  0.00     0.116 A 
HETATM   26  C   UNL     1     -45.097  58.590 -52.665  1.00  0.00     0.020 A 
HETATM   27  C   UNL     1     -44.312  58.255 -53.764  1.00  0.00     0.012 A 
ENDBRANCH   9  22
TORSDOF 3
ENDMDL
MODEL 4
REMARK VINA RESULT:      -7.2      2.181      4.495
REMARK  3 active torsions:
REMARK  status: ('A' for Active; 'I' for Inactive)
REMARK    1  A    between atoms: C_9  and  C_10 
REMARK    2  A    between atoms: C_16  and  C_17 
REMARK       I    between atoms: C_17  and  N_18 
REMARK    3  A    between atoms: N_18  and  C_19 
ROOT
HETATM    1  C   UNL     1     -44.986  59.049 -52.911  1.00  0.00     0.070 C 
HETATM    2  C   UNL     1     -43.522  58.687 -52.941  1.00  0.00     0.037 C 
HETATM    3  N   UNL     1     -42.730  59.306 -51.978  1.00  0.00    -0.191 N 
HETATM    4  C   UNL     1     -41.381  59.270 -52.003  1.00  0.00     0.735 A 
HETATM    5  N   UNL     1     -40.751  58.487 -52.930  1.00  0.00    -0.092 N 
HETATM    6  N   UNL     1     -39.422  58.634 -52.837  1.00  0.00     0.012 NA
HETATM    7  N   UNL     1     -39.250  59.477 -51.823  1.00  0.00     0.033 NA
HETATM    8  N   UNL     1     -40.464  59.881 -51.296  1.00  0.00     0.030 NA
HETATM    9  C   UNL     1     -41.434  57.647 -53.911  1.00  0.00     0.199 C 
HETATM   10  C   UNL     1     -42.944  57.877 -53.863  1.00  0.00     0.062 C 
HETATM   11  H   UNL     1     -43.181  59.969 -51.352  1.00  0.00     0.184 HD
ENDROOT
BRANCH  10  12
HETATM   12  C   UNL     1     -43.685  57.221 -54.972  1.00  0.00     0.256 C 
HETATM   13  N   UNL     1     -43.286  57.636 -56.222  1.00  0.00    -0.322 N 
HETATM   14  H   UNL     1     -42.569  58.348 -56.274  1.00  0.00     0.169 HD
HETATM   15  O   UNL     1     -44.591  56.445 -54.699  1.00  0.00    -0.267 OA
BRANCH  13  16
HETATM   16  C   UNL     1     -43.785  57.170 -57.457  1.00  0.00     0.052 A 
HETATM   17  C   UNL     1     -44.864  57.716 -58.146  1.00  0.00     0.145 A 
HETATM   18  N   UNL     1     -45.334  57.239 -59.328  1.00  0.00    -0.271 NA
HETATM   19  C   UNL     1     -44.703  56.168 -59.849  1.00  0.00     0.116 A 
HETATM   20  C   UNL     1     -43.622  55.550 -59.246  1.00  0.00     0.021 A 
HETATM   21  C   UNL     1     -43.158  56.062 -58.035  1.00  0.00     0.032 A 
ENDBRANCH  13  16
ENDBRANCH  10  12
BRANCH   9  22
HETATM   22  C   UNL     1     -41.080  56.183 -53.709  1.00  0.00    -0.011 A 
HETATM   23  C   UNL     1     -41.313  55.518 -52.506  1.00  0.00     0.125 A 
HETATM   24  N   UNL     1     -41.065  54.205 -52.305  1.00  0.00    -0.272 NA
HETATM   25  C   UNL     1     -40.541  53.515 -53.340  1.00  0.00     0.116 A 
HETATM   26  C   UNL     1     -40.274  54.076 -54.577  1.00  0.00     0.020 A 
HETATM   27  C   UNL     1     -40.555  55.426 -54.764  1.00  0.00     0.012 A 
ENDBRANCH   9  22
TORSDOF 3
ENDMDL
MODEL 5
REMARK VINA RESULT:      -7.1     15.693     17.825
REMARK  3 active torsions:
REMARK  status: ('A' for Active; 'I' for Inactive)
REMARK    1  A    between atoms: C_9  and  C_10 
REMARK    2  A    between atoms: C_16  and  C_17 
REMARK       I    between atoms: C_17  and  N_18 
REMARK    3  A    between atoms: N_18  and  C_19 
ROOT
HETATM    1  C   UNL     1     -36.792  40.005 -50.420  1.00  0.00     0.070 C 
HETATM    2  C   UNL     1     -35.293  39.950 -50.575  1.00  0.00     0.037 C 
HETATM    3  N   UNL     1     -34.607  39.303 -49.551  1.00  0.00    -0.191 N 
HETATM    4  C   UNL     1     -33.265  39.357 -49.419  1.00  0.00     0.735 A 
HETATM    5  N   UNL     1     -32.522  39.956 -50.396  1.00  0.00    -0.092 N 
HETATM    6  N   UNL     1     -31.225  39.966 -50.054  1.00  0.00     0.012 NA
HETATM    7  N   UNL     1     -31.184  39.333 -48.886  1.00  0.00     0.033 NA
HETATM    8  N   UNL     1     -32.449  38.949 -48.479  1.00  0.00     0.030 NA
HETATM    9  C   UNL     1     -33.070  40.543 -51.616  1.00  0.00     0.199 C 
HETATM   10  C   UNL     1     -34.598  40.533 -51.582  1.00  0.00     0.062 C 
HETATM   11  H   UNL     1     -35.153  38.945 -48.770  1.00  0.00     0.184 HD
ENDROOT
BRANCH  10  12
HETATM   12  C   UNL     1     -35.226  41.304 -52.687  1.00  0.00     0.256 C 
HETATM   13  N   UNL     1     -35.472  40.552 -53.813  1.00  0.00    -0.322 N 
HETATM   14  H   UNL     1     -35.187  39.581 -53.802  1.00  0.00     0.169 HD
HETATM   15  O   UNL     1     -35.410  42.505 -52.539  1.00  0.00    -0.267 OA
BRANCH  13  16
HETATM   16  C   UNL     1     -36.083  41.002 -55.003  1.00  0.00     0.052 A 
HETATM   17  C   UNL     1     -37.444  40.924 -55.287  1.00  0.00     0.145 A 
HETATM   18  N   UNL     1     -38.006  41.352 -56.447  1.00  0.00    -0.271 NA
HETATM   19  C   UNL     1     -37.177  41.880 -57.369  1.00  0.00     0.116 A 
HETATM   20  C   UNL     1     -35.811  42.004 -57.188  1.00  0.00     0.021 A 
HETATM   21  C   UNL     1     -35.260  41.560 -55.986  1.00  0.00     0.032 A 
ENDBRANCH  13  16
ENDBRANCH  10  12
BRANCH   9  22
HETATM   22  C   UNL     1     -32.529  39.835 -52.848  1.00  0.00    -0.011 A 
HETATM   23  C   UNL     1     -31.997  40.529 -53.934  1.00  0.00     0.125 A 
HETATM   24  N   UNL     1     -31.456  39.937 -55.021  1.00  0.00    -0.272 NA
HETATM   25  C   UNL     1     -31.458  38.587 -55.047  1.00  0.00     0.116 A 
HETATM   26  C   UNL     1     -31.957  37.801 -54.023  1.00  0.00     0.020 A 
HETATM   27  C   UNL     1     -32.493  38.436 -52.906  1.00  0.00     0.012 A 
ENDBRANCH   9  22
TORSDOF 3
ENDMDL
MODEL 6
REMARK VINA RESULT:      -6.7     15.868     17.829
REMARK  3 active torsions:
REMARK  status: ('A' for Active; 'I' for Inactive)
REMARK    1  A    between atoms: C_9  and  C_10 
REMARK    2  A    between atoms: C_16  and  C_17 
REMARK       I    between atoms: C_17  and  N_18 
REMARK    3  A    between atoms: N_18  and  C_19 
ROOT
HETATM    1  C   UNL     1     -36.787  40.232 -50.525  1.00  0.00     0.070 C 
HETATM    2  C   UNL     1     -35.296  40.096 -50.704  1.00  0.00     0.037 C 
HETATM    3  N   UNL     1     -34.618  39.477 -49.658  1.00  0.00    -0.191 N 
HETATM    4  C   UNL     1     -33.273  39.474 -49.555  1.00  0.00     0.735 A 
HETATM    5  N   UNL     1     -32.524  39.980 -50.579  1.00  0.00    -0.092 N 
HETATM    6  N   UNL     1     -31.221  39.947 -50.264  1.00  0.00     0.012 NA
HETATM    7  N   UNL     1     -31.184  39.382 -49.061  1.00  0.00     0.033 NA
HETATM    8  N   UNL     1     -32.456  39.083 -48.608  1.00  0.00     0.030 NA
HETATM    9  C   UNL     1     -33.071  40.521 -51.821  1.00  0.00     0.199 C 
HETATM   10  C   UNL     1     -34.597  40.586 -51.758  1.00  0.00     0.062 C 
HETATM   11  H   UNL     1     -35.163  39.192 -48.846  1.00  0.00     0.184 HD
ENDROOT
BRANCH  10  12
HETATM   12  C   UNL     1     -35.212  41.321 -52.894  1.00  0.00     0.256 C 
HETATM   13  N   UNL     1     -35.483  40.525 -53.983  1.00  0.00    -0.322 N 
HETATM   14  H   UNL     1     -35.223  39.548 -53.928  1.00  0.00     0.169 HD
HETATM   15  O   UNL     1     -35.365  42.532 -52.800  1.00  0.00    -0.267 OA
BRANCH  13  16
HETATM   16  C   UNL     1     -36.091  40.935 -55.189  1.00  0.00     0.052 A 
HETATM   17  C   UNL     1     -35.436  41.559 -56.248  1.00  0.00     0.145 A 
HETATM   18  N   UNL     1     -36.047  41.957 -57.393  1.00  0.00    -0.271 NA
HETATM   19  C   UNL     1     -37.371  41.727 -57.491  1.00  0.00     0.116 A 
HETATM   20  C   UNL     1     -38.116  41.115 -56.498  1.00  0.00     0.021 A 
HETATM   21  C   UNL     1     -37.463  40.712 -55.334  1.00  0.00     0.032 A 
ENDBRANCH  13  16
ENDBRANCH  10  12
BRANCH   9  22
HETATM   22  C   UNL     1     -32.590  39.718 -53.019  1.00  0.00    -0.011 A 
HETATM   23  C   UNL     1     -32.813  38.347 -53.137  1.00  0.00     0.125 A 
HETATM   24  N   UNL     1     -32.453  37.609 -54.209  1.00  0.00    -0.272 NA
HETATM   25  C   UNL     1     -31.820  38.255 -55.212  1.00  0.00     0.116 A 
HETATM   26  C   UNL     1     -31.551  39.612 -55.199  1.00  0.00     0.020 A 
HETATM   27  C   UNL     1     -31.949  40.353 -54.091  1.00  0.00     0.012 A 
ENDBRANCH   9  22
TORSDOF 3
ENDMDL
MODEL 7
REMARK VINA RESULT:      -6.7      2.358      5.909
REMARK  3 active torsions:
REMARK  status: ('A' for Active; 'I' for Inactive)
REMARK    1  A    between atoms: C_9  and  C_10 
REMARK    2  A    between atoms: C_16  and  C_17 
REMARK       I    between atoms: C_17  and  N_18 
REMARK    3  A    between atoms: N_18  and  C_19 
ROOT
HETATM    1  C   UNL     1     -40.152  59.433 -50.587  1.00  0.00     0.070 C 
HETATM    2  C   UNL     1     -41.634  59.342 -50.855  1.00  0.00     0.037 C 
HETATM    3  N   UNL     1     -42.416  60.317 -50.243  1.00  0.00    -0.191 N 
HETATM    4  C   UNL     1     -43.763  60.254 -50.194  1.00  0.00     0.735 A 
HETATM    5  N   UNL     1     -44.410  59.267 -50.883  1.00  0.00    -0.092 N 
HETATM    6  N   UNL     1     -45.731  59.332 -50.659  1.00  0.00     0.012 NA
HETATM    7  N   UNL     1     -45.882  60.388 -49.865  1.00  0.00     0.033 NA
HETATM    8  N   UNL     1     -44.663  60.970 -49.568  1.00  0.00     0.030 NA
HETATM    9  C   UNL     1     -43.750  58.258 -51.707  1.00  0.00     0.199 C 
HETATM   10  C   UNL     1     -42.231  58.360 -51.575  1.00  0.00     0.062 C 
HETATM   11  H   UNL     1     -41.944  60.993 -49.645  1.00  0.00     0.184 HD
ENDROOT
BRANCH  10  12
HETATM   12  C   UNL     1     -41.498  57.235 -52.213  1.00  0.00     0.256 C 
HETATM   13  N   UNL     1     -41.756  56.012 -51.637  1.00  0.00    -0.322 N 
HETATM   14  H   UNL     1     -42.379  55.990 -50.839  1.00  0.00     0.169 HD
HETATM   15  O   UNL     1     -40.711  57.481 -53.118  1.00  0.00    -0.267 OA
BRANCH  13  16
HETATM   16  C   UNL     1     -41.231  54.767 -52.045  1.00  0.00     0.052 A 
HETATM   17  C   UNL     1     -40.376  53.969 -51.291  1.00  0.00     0.145 A 
HETATM   18  N   UNL     1     -39.873  52.781 -51.713  1.00  0.00    -0.271 NA
HETATM   19  C   UNL     1     -40.235  52.366 -52.944  1.00  0.00     0.116 A 
HETATM   20  C   UNL     1     -41.079  53.083 -53.774  1.00  0.00     0.021 A 
HETATM   21  C   UNL     1     -41.584  54.298 -53.314  1.00  0.00     0.032 A 
ENDBRANCH  13  16
ENDBRANCH  10  12
BRANCH   9  22
HETATM   22  C   UNL     1     -44.198  58.366 -53.156  1.00  0.00    -0.011 A 
HETATM   23  C   UNL     1     -44.735  57.285 -53.853  1.00  0.00     0.125 A 
HETATM   24  N   UNL     1     -45.195  57.353 -55.122  1.00  0.00    -0.272 NA
HETATM   25  C   UNL     1     -45.103  58.548 -55.742  1.00  0.00     0.116 A 
HETATM   26  C   UNL     1     -44.589  59.685 -55.143  1.00  0.00     0.020 A 
HETATM   27  C   UNL     1     -44.138  59.592 -53.831  1.00  0.00     0.012 A 
ENDBRANCH   9  22
TORSDOF 3
ENDMDL
MODEL 8
REMARK VINA RESULT:      -6.6      2.420      6.813
REMARK  3 active torsions:
REMARK  status: ('A' for Active; 'I' for Inactive)
REMARK    1  A    between atoms: C_9  and  C_10 
REMARK    2  A    between atoms: C_16  and  C_17 
REMARK       I    between atoms: C_17  and  N_18 
REMARK    3  A    between atoms: N_18  and  C_19 
ROOT
HETATM    1  C   UNL     1     -43.857  56.240 -58.695  1.00  0.00     0.070 C 
HETATM    2  C   UNL     1     -43.208  57.516 -58.220  1.00  0.00     0.037 C 
HETATM    3  N   UNL     1     -43.114  58.531 -59.168  1.00  0.00    -0.191 N 
HETATM    4  C   UNL     1     -42.372  59.642 -58.981  1.00  0.00     0.735 A 
HETATM    5  N   UNL     1     -41.788  59.858 -57.765  1.00  0.00    -0.092 N 
HETATM    6  N   UNL     1     -41.046  60.975 -57.797  1.00  0.00     0.012 NA
HETATM    7  N   UNL     1     -41.216  61.453 -59.026  1.00  0.00     0.033 NA
HETATM    8  N   UNL     1     -42.040  60.631 -59.773  1.00  0.00     0.030 NA
HETATM    9  C   UNL     1     -41.920  58.974 -56.610  1.00  0.00     0.199 C 
HETATM   10  C   UNL     1     -42.671  57.698 -56.989  1.00  0.00     0.062 C 
HETATM   11  H   UNL     1     -43.456  58.333 -60.106  1.00  0.00     0.184 HD
ENDROOT
BRANCH  10  12
HETATM   12  C   UNL     1     -42.657  56.658 -55.926  1.00  0.00     0.256 C 
HETATM   13  N   UNL     1     -41.420  56.089 -55.729  1.00  0.00    -0.322 N 
HETATM   14  H   UNL     1     -40.660  56.397 -56.323  1.00  0.00     0.169 HD
HETATM   15  O   UNL     1     -43.710  56.359 -55.379  1.00  0.00    -0.267 OA
BRANCH  13  16
HETATM   16  C   UNL     1     -41.095  55.101 -54.774  1.00  0.00     0.052 A 
HETATM   17  C   UNL     1     -41.157  55.268 -53.393  1.00  0.00     0.145 A 
HETATM   18  N   UNL     1     -40.825  54.305 -52.494  1.00  0.00    -0.271 NA
HETATM   19  C   UNL     1     -40.410  53.123 -52.990  1.00  0.00     0.116 A 
HETATM   20  C   UNL     1     -40.312  52.854 -54.344  1.00  0.00     0.021 A 
HETATM   21  C   UNL     1     -40.663  53.859 -55.245  1.00  0.00     0.032 A 
ENDBRANCH  13  16
ENDBRANCH  10  12
BRANCH   9  22
HETATM   22  C   UNL     1     -42.584  59.695 -55.448  1.00  0.00    -0.011 A 
HETATM   23  C   UNL     1     -43.917  60.100 -55.486  1.00  0.00     0.125 A 
HETATM   24  N   UNL     1     -44.560  60.692 -54.455  1.00  0.00    -0.272 NA
HETATM   25  C   UNL     1     -43.842  60.914 -53.333  1.00  0.00     0.116 A 
HETATM   26  C   UNL     1     -42.514  60.550 -53.188  1.00  0.00     0.020 A 
HETATM   27  C   UNL     1     -41.881  59.926 -54.259  1.00  0.00     0.012 A 
ENDBRANCH   9  22
TORSDOF 3
ENDMDL
MODEL 9
REMARK VINA RESULT:      -6.5      2.063      6.347
REMARK  3 active torsions:
REMARK  status: ('A' for Active; 'I' for Inactive)
REMARK    1  A    between atoms: C_9  and  C_10 
REMARK    2  A    between atoms: C_16  and  C_17 
REMARK       I    between atoms: C_17  and  N_18 
REMARK    3  A    between atoms: N_18  and  C_19 
ROOT
HETATM    1  C   UNL     1     -43.173  53.921 -55.654  1.00  0.00     0.070 C 
HETATM    2  C   UNL     1     -43.031  55.383 -55.995  1.00  0.00     0.037 C 
HETATM    3  N   UNL     1     -43.670  55.793 -57.162  1.00  0.00    -0.191 N 
HETATM    4  C   UNL     1     -43.464  57.001 -57.727  1.00  0.00     0.735 A 
HETATM    5  N   UNL     1     -42.700  57.923 -57.069  1.00  0.00    -0.092 N 
HETATM    6  N   UNL     1     -42.559  59.029 -57.816  1.00  0.00     0.012 NA
HETATM    7  N   UNL     1     -43.275  58.785 -58.909  1.00  0.00     0.033 NA
HETATM    8  N   UNL     1     -43.843  57.524 -58.866  1.00  0.00     0.030 NA
HETATM    9  C   UNL     1     -42.087  57.714 -55.760  1.00  0.00     0.199 C 
HETATM   10  C   UNL     1     -42.287  56.273 -55.292  1.00  0.00     0.062 C 
HETATM   11  H   UNL     1     -44.154  55.083 -57.708  1.00  0.00     0.184 HD
ENDROOT
BRANCH  10  12
HETATM   12  C   UNL     1     -41.511  55.926 -54.073  1.00  0.00     0.256 C 
HETATM   13  N   UNL     1     -42.287  55.803 -52.943  1.00  0.00    -0.322 N 
HETATM   14  H   UNL     1     -43.279  55.981 -53.032  1.00  0.00     0.169 HD
HETATM   15  O   UNL     1     -40.293  55.842 -54.152  1.00  0.00    -0.267 OA
BRANCH  13  16
HETATM   16  C   UNL     1     -41.836  55.455 -51.652  1.00  0.00     0.052 A 
HETATM   17  C   UNL     1     -41.706  56.335 -50.581  1.00  0.00     0.145 A 
HETATM   18  N   UNL     1     -41.255  55.976 -49.351  1.00  0.00    -0.271 NA
HETATM   19  C   UNL     1     -40.914  54.684 -49.177  1.00  0.00     0.116 A 
HETATM   20  C   UNL     1     -41.005  53.729 -50.175  1.00  0.00     0.021 A 
HETATM   21  C   UNL     1     -41.475  54.123 -51.427  1.00  0.00     0.032 A 
ENDBRANCH  13  16
ENDBRANCH  10  12
BRANCH   9  22
HETATM   22  C   UNL     1     -42.620  58.714 -54.747  1.00  0.00    -0.011 A 
HETATM   23  C   UNL     1     -43.960  58.745 -54.363  1.00  0.00     0.125 A 
HETATM   24  N   UNL     1     -44.462  59.579 -53.426  1.00  0.00    -0.272 NA
HETATM   25  C   UNL     1     -43.599  60.443 -52.851  1.00  0.00     0.116 A 
HETATM   26  C   UNL     1     -42.250  60.496 -53.155  1.00  0.00     0.020 A 
HETATM   27  C   UNL     1     -41.755  59.614 -54.111  1.00  0.00     0.012 A 
ENDBRANCH   9  22
TORSDOF 3
ENDMDL
MODEL 10
REMARK VINA RESULT:      -6.4      2.418      5.288
REMARK  3 active torsions:
REMARK  status: ('A' for Active; 'I' for Inactive)
REMARK    1  A    between atoms: C_9  and  C_10 
REMARK    2  A    between atoms: C_16  and  C_17 
REMARK       I    between atoms: C_17  and  N_18 
REMARK    3  A    between atoms: N_18  and  C_19 
ROOT
HETATM    1  C   UNL     1     -43.763  54.782 -50.621  1.00  0.00     0.070 C 
HETATM    2  C   UNL     1     -42.931  55.012 -51.857  1.00  0.00     0.037 C 
HETATM    3  N   UNL     1     -42.507  53.864 -52.519  1.00  0.00    -0.191 N 
HETATM    4  C   UNL     1     -41.581  53.882 -53.500  1.00  0.00     0.735 A 
HETATM    5  N   UNL     1     -41.127  55.083 -53.968  1.00  0.00    -0.092 N 
HETATM    6  N   UNL     1     -40.171  54.893 -54.889  1.00  0.00     0.012 NA
HETATM    7  N   UNL     1     -40.080  53.572 -55.005  1.00  0.00     0.033 NA
HETATM    8  N   UNL     1     -40.952  52.931 -54.145  1.00  0.00     0.030 NA
HETATM    9  C   UNL     1     -41.587  56.387 -53.496  1.00  0.00     0.199 C 
HETATM   10  C   UNL     1     -42.531  56.229 -52.304  1.00  0.00     0.062 C 
HETATM   11  H   UNL     1     -42.759  52.965 -52.112  1.00  0.00     0.184 HD
ENDROOT
BRANCH  10  12
HETATM   12  C   UNL     1     -42.870  57.512 -51.635  1.00  0.00     0.256 C 
HETATM   13  N   UNL     1     -44.114  57.997 -51.971  1.00  0.00    -0.322 N 
HETATM   14  H   UNL     1     -44.658  57.470 -52.643  1.00  0.00     0.169 HD
HETATM   15  O   UNL     1     -42.032  58.045 -50.919  1.00  0.00    -0.267 OA
BRANCH  13  16
HETATM   16  C   UNL     1     -44.716  59.172 -51.474  1.00  0.00     0.052 A 
HETATM   17  C   UNL     1     -45.497  59.251 -50.324  1.00  0.00     0.145 A 
HETATM   18  N   UNL     1     -46.078  60.393 -49.875  1.00  0.00    -0.271 NA
HETATM   19  C   UNL     1     -45.877  61.509 -50.603  1.00  0.00     0.116 A 
HETATM   20  C   UNL     1     -45.119  61.540 -51.760  1.00  0.00     0.021 A 
HETATM   21  C   UNL     1     -44.530  60.354 -52.197  1.00  0.00     0.032 A 
ENDBRANCH  13  16
ENDBRANCH  10  12
BRANCH   9  22
HETATM   22  C   UNL     1     -42.232  57.175 -54.624  1.00  0.00    -0.011 A 
HETATM   23  C   UNL     1     -43.257  56.650 -55.410  1.00  0.00     0.125 A 
HETATM   24  N   UNL     1     -43.893  57.336 -56.384  1.00  0.00    -0.272 NA
HETATM   25  C   UNL     1     -43.483  58.603 -56.608  1.00  0.00     0.116 A 
HETATM   26  C   UNL     1     -42.478  59.222 -55.886  1.00  0.00     0.020 A 
HETATM   27  C   UNL     1     -41.850  58.499 -54.877  1.00  0.00     0.012 A 
ENDBRANCH   9  22
TORSDOF 3
ENDMDL
