MODEL 1
REMARK VINA RESULT:      -8.9      0.000      0.000
REMARK  5 active torsions:
REMARK  status: ('A' for Active; 'I' for Inactive)
REMARK    1  A    between atoms: C_2  and  C_3 
REMARK    2  A    between atoms: C_6  and  N_7 
REMARK       I    between atoms: N_7  and  C_8 
REMARK       I    between atoms: C_8  and  N_9 
REMARK    3  A    between atoms: N_9  and  C_10 
REMARK    4  A    between atoms: N_20  and  N_21 
REMARK       I    between atoms: N_21  and  C_22 
REMARK    5  A    between atoms: C_22  and  C_23 
ROOT
HETATM    1  C   UNL     1     -42.888  55.879 -53.895  1.00  0.00    -0.010 A 
HETATM    2  C   UNL     1     -42.428  57.001 -54.590  1.00  0.00     0.016 A 
HETATM    3  C   UNL     1     -42.336  56.969 -55.987  1.00  0.00     0.030 A 
HETATM    4  C   UNL     1     -42.701  55.815 -56.691  1.00  0.00     0.036 A 
HETATM    5  C   UNL     1     -43.129  54.687 -55.984  1.00  0.00     0.030 A 
HETATM    6  C   UNL     1     -43.254  54.726 -54.595  1.00  0.00     0.016 A 
ENDROOT
BRANCH   1   7
HETATM    7  C   UNL     1     -43.003  55.900 -52.413  1.00  0.00     0.061 C 
HETATM    8  C   UNL     1     -43.488  57.188 -51.786  1.00  0.00     0.073 C 
HETATM    9  N   UNL     1     -42.763  54.906 -51.610  1.00  0.00    -0.176 NA
BRANCH   9  10
HETATM   10  N   UNL     1     -42.227  53.756 -52.109  1.00  0.00    -0.243 N 
HETATM   11  C   UNL     1     -40.889  53.465 -51.882  1.00  0.00     0.273 C 
HETATM   12  O   UNL     1     -40.102  54.179 -51.268  1.00  0.00    -0.266 OA
HETATM   13  H   UNL     1     -42.783  53.213 -52.756  1.00  0.00     0.192 HD
BRANCH  11  14
HETATM   14  C   UNL     1     -40.398  52.177 -52.437  1.00  0.00     0.051 A 
HETATM   15  C   UNL     1     -39.798  51.198 -51.654  1.00  0.00     0.133 A 
HETATM   16  N   UNL     1     -39.329  50.020 -52.134  1.00  0.00    -0.272 NA
HETATM   17  C   UNL     1     -39.443  49.820 -53.465  1.00  0.00     0.116 A 
HETATM   18  C   UNL     1     -40.001  50.742 -54.337  1.00  0.00     0.020 A 
HETATM   19  C   UNL     1     -40.482  51.939 -53.811  1.00  0.00     0.020 A 
ENDBRANCH  11  14
ENDBRANCH   9  10
ENDBRANCH   1   7
BRANCH   4  20
HETATM   20  N   UNL     1     -42.602  55.691 -58.085  1.00  0.00    -0.309 N 
HETATM   21  C   UNL     1     -43.363  56.170 -59.117  1.00  0.00     0.325 C 
HETATM   22  N   UNL     1     -44.635  56.567 -58.801  1.00  0.00    -0.309 N 
HETATM   23  O   UNL     1     -42.887  56.099 -60.247  1.00  0.00    -0.247 OA
HETATM   24  H   UNL     1     -44.920  56.389 -57.851  1.00  0.00     0.170 HD
HETATM   25  H   UNL     1     -41.841  55.124 -58.442  1.00  0.00     0.170 HD
BRANCH  22  26
HETATM   26  C   UNL     1     -45.665  56.943 -59.689  1.00  0.00     0.036 A 
HETATM   27  C   UNL     1     -46.491  56.038 -60.361  1.00  0.00     0.031 A 
HETATM   28  C   UNL     1     -47.530  56.495 -61.181  1.00  0.00     0.026 A 
HETATM   29  C   UNL     1     -47.738  57.861 -61.343  1.00  0.00     0.034 A 
HETATM   30 CL   UNL     1     -49.024  58.421 -62.338  1.00  0.00    -0.084 Cl
HETATM   31  C   UNL     1     -46.911  58.775 -60.699  1.00  0.00     0.026 A 
HETATM   32  C   UNL     1     -45.878  58.317 -59.874  1.00  0.00     0.031 A 
ENDBRANCH  22  26
ENDBRANCH   4  20
TORSDOF 5
ENDMDL
MODEL 2
REMARK VINA RESULT:      -8.6      4.020      8.621
REMARK  5 active torsions:
REMARK  status: ('A' for Active; 'I' for Inactive)
REMARK    1  A    between atoms: C_2  and  C_3 
REMARK    2  A    between atoms: C_6  and  N_7 
REMARK       I    between atoms: N_7  and  C_8 
REMARK       I    between atoms: C_8  and  N_9 
REMARK    3  A    between atoms: N_9  and  C_10 
REMARK    4  A    between atoms: N_20  and  N_21 
REMARK       I    between atoms: N_21  and  C_22 
REMARK    5  A    between atoms: C_22  and  C_23 
ROOT
HETATM    1  C   UNL     1     -42.759  59.870 -52.605  1.00  0.00    -0.010 A 
HETATM    2  C   UNL     1     -41.416  59.641 -52.291  1.00  0.00     0.016 A 
HETATM    3  C   UNL     1     -41.057  58.517 -51.538  1.00  0.00     0.030 A 
HETATM    4  C   UNL     1     -42.038  57.622 -51.094  1.00  0.00     0.036 A 
HETATM    5  C   UNL     1     -43.382  57.877 -51.387  1.00  0.00     0.030 A 
HETATM    6  C   UNL     1     -43.741  58.979 -52.166  1.00  0.00     0.016 A 
ENDROOT
BRANCH   1   7
HETATM    7  C   UNL     1     -43.157  61.052 -53.414  1.00  0.00     0.061 C 
HETATM    8  C   UNL     1     -43.217  62.382 -52.695  1.00  0.00     0.073 C 
HETATM    9  N   UNL     1     -43.419  61.058 -54.689  1.00  0.00    -0.176 NA
BRANCH   9  10
HETATM   10  N   UNL     1     -43.479  59.876 -55.365  1.00  0.00    -0.243 N 
HETATM   11  C   UNL     1     -42.474  59.545 -56.263  1.00  0.00     0.273 C 
HETATM   12  O   UNL     1     -41.505  60.249 -56.535  1.00  0.00    -0.266 OA
HETATM   13  H   UNL     1     -44.331  59.335 -55.303  1.00  0.00     0.192 HD
BRANCH  11  14
HETATM   14  C   UNL     1     -42.605  58.226 -56.933  1.00  0.00     0.051 A 
HETATM   15  C   UNL     1     -42.685  58.084 -58.313  1.00  0.00     0.133 A 
HETATM   16  N   UNL     1     -42.818  56.895 -58.951  1.00  0.00    -0.272 NA
HETATM   17  C   UNL     1     -42.902  55.795 -58.170  1.00  0.00     0.116 A 
HETATM   18  C   UNL     1     -42.859  55.830 -56.786  1.00  0.00     0.020 A 
HETATM   19  C   UNL     1     -42.712  57.066 -56.160  1.00  0.00     0.020 A 
ENDBRANCH  11  14
ENDBRANCH   9  10
ENDBRANCH   1   7
BRANCH   4  20
HETATM   20  N   UNL     1     -41.763  56.496 -50.305  1.00  0.00    -0.309 N 
HETATM   21  C   UNL     1     -41.139  55.307 -50.567  1.00  0.00     0.325 C 
HETATM   22  N   UNL     1     -41.033  54.953 -51.887  1.00  0.00    -0.309 N 
HETATM   23  O   UNL     1     -40.830  54.609 -49.605  1.00  0.00    -0.247 OA
HETATM   24  H   UNL     1     -41.501  55.565 -52.537  1.00  0.00     0.170 HD
HETATM   25  H   UNL     1     -42.095  56.516 -49.347  1.00  0.00     0.170 HD
BRANCH  22  26
HETATM   26  C   UNL     1     -40.584  53.725 -52.416  1.00  0.00     0.036 A 
HETATM   27  C   UNL     1     -39.859  52.776 -51.689  1.00  0.00     0.031 A 
HETATM   28  C   UNL     1     -39.502  51.555 -52.271  1.00  0.00     0.026 A 
HETATM   29  C   UNL     1     -39.856  51.282 -53.589  1.00  0.00     0.034 A 
HETATM   30 CL   UNL     1     -39.428  49.774 -54.298  1.00  0.00    -0.084 Cl
HETATM   31  C   UNL     1     -40.558  52.224 -54.333  1.00  0.00     0.026 A 
HETATM   32  C   UNL     1     -40.921  53.442 -53.748  1.00  0.00     0.031 A 
ENDBRANCH  22  26
ENDBRANCH   4  20
TORSDOF 5
ENDMDL
MODEL 3
REMARK VINA RESULT:      -8.2      6.088     10.048
REMARK  5 active torsions:
REMARK  status: ('A' for Active; 'I' for Inactive)
REMARK    1  A    between atoms: C_2  and  C_3 
REMARK    2  A    between atoms: C_6  and  N_7 
REMARK       I    between atoms: N_7  and  C_8 
REMARK       I    between atoms: C_8  and  N_9 
REMARK    3  A    between atoms: N_9  and  C_10 
REMARK    4  A    between atoms: N_20  and  N_21 
REMARK       I    between atoms: N_21  and  C_22 
REMARK    5  A    between atoms: C_22  and  C_23 
ROOT
HETATM    1  C   UNL     1     -42.531  59.692 -51.870  1.00  0.00    -0.010 A 
HETATM    2  C   UNL     1     -41.318  59.627 -51.178  1.00  0.00     0.016 A 
HETATM    3  C   UNL     1     -40.956  58.449 -50.513  1.00  0.00     0.030 A 
HETATM    4  C   UNL     1     -41.805  57.336 -50.536  1.00  0.00     0.036 A 
HETATM    5  C   UNL     1     -43.031  57.423 -51.205  1.00  0.00     0.030 A 
HETATM    6  C   UNL     1     -43.381  58.583 -51.897  1.00  0.00     0.016 A 
ENDROOT
BRANCH   1   7
HETATM    7  C   UNL     1     -42.925  60.931 -52.591  1.00  0.00     0.061 C 
HETATM    8  C   UNL     1     -42.550  61.017 -54.054  1.00  0.00     0.073 C 
HETATM    9  N   UNL     1     -43.596  61.929 -52.094  1.00  0.00    -0.176 NA
BRANCH   9  10
HETATM   10  N   UNL     1     -43.871  61.951 -50.759  1.00  0.00    -0.243 N 
HETATM   11  C   UNL     1     -45.110  61.520 -50.304  1.00  0.00     0.273 C 
HETATM   12  O   UNL     1     -46.027  61.122 -51.016  1.00  0.00    -0.266 OA
HETATM   13  H   UNL     1     -43.217  62.419 -50.146  1.00  0.00     0.192 HD
BRANCH  11  14
HETATM   14  C   UNL     1     -45.311  61.551 -48.833  1.00  0.00     0.051 A 
HETATM   15  C   UNL     1     -45.894  60.504 -48.129  1.00  0.00     0.133 A 
HETATM   16  N   UNL     1     -46.102  60.509 -46.789  1.00  0.00    -0.272 NA
HETATM   17  C   UNL     1     -45.734  61.626 -46.124  1.00  0.00     0.116 A 
HETATM   18  C   UNL     1     -45.169  62.735 -46.734  1.00  0.00     0.020 A 
HETATM   19  C   UNL     1     -44.959  62.694 -48.111  1.00  0.00     0.020 A 
ENDBRANCH  11  14
ENDBRANCH   9  10
ENDBRANCH   1   7
BRANCH   4  20
HETATM   20  N   UNL     1     -41.532  56.135 -49.864  1.00  0.00    -0.309 N 
HETATM   21  C   UNL     1     -40.947  54.963 -50.259  1.00  0.00     0.325 C 
HETATM   22  N   UNL     1     -40.896  54.732 -51.608  1.00  0.00    -0.309 N 
HETATM   23  O   UNL     1     -40.623  54.171 -49.377  1.00  0.00    -0.247 OA
HETATM   24  H   UNL     1     -41.371  55.412 -52.181  1.00  0.00     0.170 HD
HETATM   25  H   UNL     1     -41.830  56.073 -48.897  1.00  0.00     0.170 HD
BRANCH  22  26
HETATM   26  C   UNL     1     -40.497  53.549 -52.265  1.00  0.00     0.036 A 
HETATM   27  C   UNL     1     -39.760  52.527 -51.660  1.00  0.00     0.031 A 
HETATM   28  C   UNL     1     -39.454  51.357 -52.365  1.00  0.00     0.026 A 
HETATM   29  C   UNL     1     -39.873  51.208 -53.683  1.00  0.00     0.034 A 
HETATM   30 CL   UNL     1     -39.510  49.764 -54.543  1.00  0.00    -0.084 Cl
HETATM   31  C   UNL     1     -40.590  52.225 -54.306  1.00  0.00     0.026 A 
HETATM   32  C   UNL     1     -40.901  53.391 -53.599  1.00  0.00     0.031 A 
ENDBRANCH  22  26
ENDBRANCH   4  20
TORSDOF 5
ENDMDL
MODEL 4
REMARK VINA RESULT:      -8.2      2.062      2.577
REMARK  5 active torsions:
REMARK  status: ('A' for Active; 'I' for Inactive)
REMARK    1  A    between atoms: C_2  and  C_3 
REMARK    2  A    between atoms: C_6  and  N_7 
REMARK       I    between atoms: N_7  and  C_8 
REMARK       I    between atoms: C_8  and  N_9 
REMARK    3  A    between atoms: N_9  and  C_10 
REMARK    4  A    between atoms: N_20  and  N_21 
REMARK       I    between atoms: N_21  and  C_22 
REMARK    5  A    between atoms: C_22  and  C_23 
ROOT
HETATM    1  C   UNL     1     -42.255  55.918 -53.296  1.00  0.00    -0.010 A 
HETATM    2  C   UNL     1     -43.586  55.594 -53.576  1.00  0.00     0.016 A 
HETATM    3  C   UNL     1     -43.974  55.310 -54.891  1.00  0.00     0.030 A 
HETATM    4  C   UNL     1     -43.035  55.352 -55.928  1.00  0.00     0.036 A 
HETATM    5  C   UNL     1     -41.713  55.708 -55.642  1.00  0.00     0.030 A 
HETATM    6  C   UNL     1     -41.315  55.960 -54.328  1.00  0.00     0.016 A 
ENDROOT
BRANCH   1   7
HETATM    7  C   UNL     1     -41.824  56.211 -51.904  1.00  0.00     0.061 C 
HETATM    8  C   UNL     1     -41.924  57.650 -51.448  1.00  0.00     0.073 C 
HETATM    9  N   UNL     1     -41.408  55.342 -51.030  1.00  0.00    -0.176 NA
BRANCH   9  10
HETATM   10  N   UNL     1     -41.202  54.051 -51.415  1.00  0.00    -0.243 N 
HETATM   11  C   UNL     1     -40.035  53.398 -51.041  1.00  0.00     0.273 C 
HETATM   12  O   UNL     1     -39.123  53.895 -50.387  1.00  0.00    -0.266 OA
HETATM   13  H   UNL     1     -41.840  53.647 -52.088  1.00  0.00     0.192 HD
BRANCH  11  14
HETATM   14  C   UNL     1     -39.909  51.984 -51.479  1.00  0.00     0.051 A 
HETATM   15  C   UNL     1     -39.904  50.916 -50.590  1.00  0.00     0.133 A 
HETATM   16  N   UNL     1     -39.777  49.618 -50.959  1.00  0.00    -0.272 NA
HETATM   17  C   UNL     1     -39.624  49.376 -52.280  1.00  0.00     0.116 A 
HETATM   18  C   UNL     1     -39.590  50.370 -53.245  1.00  0.00     0.020 A 
HETATM   19  C   UNL     1     -39.732  51.693 -52.834  1.00  0.00     0.020 A 
ENDBRANCH  11  14
ENDBRANCH   9  10
ENDBRANCH   1   7
BRANCH   4  20
HETATM   20  N   UNL     1     -43.352  55.118 -57.275  1.00  0.00    -0.309 N 
HETATM   21  C   UNL     1     -43.261  55.893 -58.399  1.00  0.00     0.325 C 
HETATM   22  N   UNL     1     -43.165  57.245 -58.200  1.00  0.00    -0.309 N 
HETATM   23  O   UNL     1     -43.386  55.329 -59.483  1.00  0.00    -0.247 OA
HETATM   24  H   UNL     1     -43.254  57.548 -57.243  1.00  0.00     0.170 HD
HETATM   25  H   UNL     1     -43.751  54.214 -57.501  1.00  0.00     0.170 HD
BRANCH  22  26
HETATM   26  C   UNL     1     -43.218  58.265 -59.173  1.00  0.00     0.036 A 
HETATM   27  C   UNL     1     -42.091  58.866 -59.742  1.00  0.00     0.031 A 
HETATM   28  C   UNL     1     -42.229  59.831 -60.746  1.00  0.00     0.026 A 
HETATM   29  C   UNL     1     -43.497  60.208 -61.179  1.00  0.00     0.034 A 
HETATM   30 CL   UNL     1     -43.665  61.383 -62.424  1.00  0.00    -0.084 Cl
HETATM   31  C   UNL     1     -44.629  59.635 -60.609  1.00  0.00     0.026 A 
HETATM   32  C   UNL     1     -44.489  58.666 -59.609  1.00  0.00     0.031 A 
ENDBRANCH  22  26
ENDBRANCH   4  20
TORSDOF 5
ENDMDL
MODEL 5
REMARK VINA RESULT:      -8.0      3.378      5.684
REMARK  5 active torsions:
REMARK  status: ('A' for Active; 'I' for Inactive)
REMARK    1  A    between atoms: C_2  and  C_3 
REMARK    2  A    between atoms: C_6  and  N_7 
REMARK       I    between atoms: N_7  and  C_8 
REMARK       I    between atoms: C_8  and  N_9 
REMARK    3  A    between atoms: N_9  and  C_10 
REMARK    4  A    between atoms: N_20  and  N_21 
REMARK       I    between atoms: N_21  and  C_22 
REMARK    5  A    between atoms: C_22  and  C_23 
ROOT
HETATM    1  C   UNL     1     -41.630  54.510 -53.006  1.00  0.00    -0.010 A 
HETATM    2  C   UNL     1     -43.014  54.672 -53.117  1.00  0.00     0.016 A 
HETATM    3  C   UNL     1     -43.609  54.748 -54.383  1.00  0.00     0.030 A 
HETATM    4  C   UNL     1     -42.823  54.667 -55.538  1.00  0.00     0.036 A 
HETATM    5  C   UNL     1     -41.436  54.537 -55.415  1.00  0.00     0.030 A 
HETATM    6  C   UNL     1     -40.842  54.428 -54.157  1.00  0.00     0.016 A 
ENDROOT
BRANCH   1   7
HETATM    7  C   UNL     1     -40.984  54.416 -51.671  1.00  0.00     0.061 C 
HETATM    8  C   UNL     1     -40.065  53.236 -51.441  1.00  0.00     0.073 C 
HETATM    9  N   UNL     1     -41.101  55.271 -50.698  1.00  0.00    -0.176 NA
BRANCH   9  10
HETATM   10  N   UNL     1     -41.992  56.296 -50.812  1.00  0.00    -0.243 N 
HETATM   11  C   UNL     1     -41.531  57.593 -50.991  1.00  0.00     0.273 C 
HETATM   12  O   UNL     1     -40.350  57.925 -51.038  1.00  0.00    -0.266 OA
HETATM   13  H   UNL     1     -42.966  56.105 -50.618  1.00  0.00     0.192 HD
BRANCH  11  14
HETATM   14  C   UNL     1     -42.572  58.642 -51.135  1.00  0.00     0.051 A 
HETATM   15  C   UNL     1     -42.338  59.982 -50.849  1.00  0.00     0.133 A 
HETATM   16  N   UNL     1     -43.271  60.960 -50.960  1.00  0.00    -0.272 NA
HETATM   17  C   UNL     1     -44.506  60.575 -51.351  1.00  0.00     0.116 A 
HETATM   18  C   UNL     1     -44.850  59.263 -51.635  1.00  0.00     0.020 A 
HETATM   19  C   UNL     1     -43.866  58.284 -51.522  1.00  0.00     0.020 A 
ENDBRANCH  11  14
ENDBRANCH   9  10
ENDBRANCH   1   7
BRANCH   4  20
HETATM   20  N   UNL     1     -43.338  54.773 -56.838  1.00  0.00    -0.309 N 
HETATM   21  C   UNL     1     -43.076  55.628 -57.874  1.00  0.00     0.325 C 
HETATM   22  N   UNL     1     -42.461  56.808 -57.549  1.00  0.00    -0.309 N 
HETATM   23  O   UNL     1     -43.512  55.321 -58.981  1.00  0.00    -0.247 OA
HETATM   24  H   UNL     1     -42.333  56.971 -56.563  1.00  0.00     0.170 HD
HETATM   25  H   UNL     1     -44.068  54.118 -57.097  1.00  0.00     0.170 HD
BRANCH  22  26
HETATM   26  C   UNL     1     -42.225  57.916 -58.389  1.00  0.00     0.036 A 
HETATM   27  C   UNL     1     -42.223  57.855 -59.786  1.00  0.00     0.031 A 
HETATM   28  C   UNL     1     -42.039  59.014 -60.549  1.00  0.00     0.026 A 
HETATM   29  C   UNL     1     -41.843  60.239 -59.918  1.00  0.00     0.034 A 
HETATM   30 CL   UNL     1     -41.632  61.665 -60.857  1.00  0.00    -0.084 Cl
HETATM   31  C   UNL     1     -41.821  60.313 -58.529  1.00  0.00     0.026 A 
HETATM   32  C   UNL     1     -42.012  59.155 -57.768  1.00  0.00     0.031 A 
ENDBRANCH  22  26
ENDBRANCH   4  20
TORSDOF 5
ENDMDL
MODEL 6
REMARK VINA RESULT:      -8.0      1.528      1.980
REMARK  5 active torsions:
REMARK  status: ('A' for Active; 'I' for Inactive)
REMARK    1  A    between atoms: C_2  and  C_3 
REMARK    2  A    between atoms: C_6  and  N_7 
REMARK       I    between atoms: N_7  and  C_8 
REMARK       I    between atoms: C_8  and  N_9 
REMARK    3  A    between atoms: N_9  and  C_10 
REMARK    4  A    between atoms: N_20  and  N_21 
REMARK       I    between atoms: N_21  and  C_22 
REMARK    5  A    between atoms: C_22  and  C_23 
ROOT
HETATM    1  C   UNL     1     -42.217  55.686 -52.855  1.00  0.00    -0.010 A 
HETATM    2  C   UNL     1     -43.340  55.068 -53.413  1.00  0.00     0.016 A 
HETATM    3  C   UNL     1     -43.437  54.916 -54.802  1.00  0.00     0.030 A 
HETATM    4  C   UNL     1     -42.414  55.384 -55.635  1.00  0.00     0.036 A 
HETATM    5  C   UNL     1     -41.310  56.030 -55.069  1.00  0.00     0.030 A 
HETATM    6  C   UNL     1     -41.194  56.153 -53.684  1.00  0.00     0.016 A 
ENDROOT
BRANCH   1   7
HETATM    7  C   UNL     1     -42.093  55.845 -51.383  1.00  0.00     0.061 C 
HETATM    8  C   UNL     1     -42.318  57.233 -50.825  1.00  0.00     0.073 C 
HETATM    9  N   UNL     1     -41.848  54.897 -50.526  1.00  0.00    -0.176 NA
BRANCH   9  10
HETATM   10  N   UNL     1     -41.537  53.649 -50.978  1.00  0.00    -0.243 N 
HETATM   11  C   UNL     1     -40.214  53.229 -50.987  1.00  0.00     0.273 C 
HETATM   12  O   UNL     1     -39.254  53.906 -50.632  1.00  0.00    -0.266 OA
HETATM   13  H   UNL     1     -42.265  53.112 -51.432  1.00  0.00     0.192 HD
BRANCH  11  14
HETATM   14  C   UNL     1     -39.972  51.845 -51.468  1.00  0.00     0.051 A 
HETATM   15  C   UNL     1     -39.785  51.534 -52.810  1.00  0.00     0.133 A 
HETATM   16  N   UNL     1     -39.574  50.280 -53.280  1.00  0.00    -0.272 NA
HETATM   17  C   UNL     1     -39.576  49.284 -52.367  1.00  0.00     0.116 A 
HETATM   18  C   UNL     1     -39.779  49.483 -51.011  1.00  0.00     0.020 A 
HETATM   19  C   UNL     1     -39.983  50.785 -50.558  1.00  0.00     0.020 A 
ENDBRANCH  11  14
ENDBRANCH   9  10
ENDBRANCH   1   7
BRANCH   4  20
HETATM   20  N   UNL     1     -42.454  55.304 -57.035  1.00  0.00    -0.309 N 
HETATM   21  C   UNL     1     -43.068  56.066 -57.992  1.00  0.00     0.325 C 
HETATM   22  N   UNL     1     -44.103  56.857 -57.568  1.00  0.00    -0.309 N 
HETATM   23  O   UNL     1     -42.720  55.894 -59.157  1.00  0.00    -0.247 OA
HETATM   24  H   UNL     1     -44.369  56.740 -56.603  1.00  0.00     0.170 HD
HETATM   25  H   UNL     1     -41.960  54.530 -57.464  1.00  0.00     0.170 HD
BRANCH  22  26
HETATM   26  C   UNL     1     -44.995  57.607 -58.363  1.00  0.00     0.036 A 
HETATM   27  C   UNL     1     -46.341  57.816 -58.049  1.00  0.00     0.031 A 
HETATM   28  C   UNL     1     -47.145  58.624 -58.862  1.00  0.00     0.026 A 
HETATM   29  C   UNL     1     -46.610  59.216 -60.001  1.00  0.00     0.034 A 
HETATM   30 CL   UNL     1     -47.595  60.221 -60.991  1.00  0.00    -0.084 Cl
HETATM   31  C   UNL     1     -45.278  59.001 -60.340  1.00  0.00     0.026 A 
HETATM   32  C   UNL     1     -44.473  58.200 -59.523  1.00  0.00     0.031 A 
ENDBRANCH  22  26
ENDBRANCH   4  20
TORSDOF 5
ENDMDL
MODEL 7
REMARK VINA RESULT:      -8.0     15.370     17.987
REMARK  5 active torsions:
REMARK  status: ('A' for Active; 'I' for Inactive)
REMARK    1  A    between atoms: C_2  and  C_3 
REMARK    2  A    between atoms: C_6  and  N_7 
REMARK       I    between atoms: N_7  and  C_8 
REMARK       I    between atoms: C_8  and  N_9 
REMARK    3  A    between atoms: N_9  and  C_10 
REMARK    4  A    between atoms: N_20  and  N_21 
REMARK       I    between atoms: N_21  and  C_22 
REMARK    5  A    between atoms: C_22  and  C_23 
ROOT
HETATM    1  C   UNL     1     -34.176  39.479 -50.390  1.00  0.00    -0.010 A 
HETATM    2  C   UNL     1     -34.252  40.855 -50.625  1.00  0.00     0.016 A 
HETATM    3  C   UNL     1     -35.391  41.399 -51.232  1.00  0.00     0.030 A 
HETATM    4  C   UNL     1     -36.454  40.569 -51.608  1.00  0.00     0.036 A 
HETATM    5  C   UNL     1     -36.354  39.190 -51.397  1.00  0.00     0.030 A 
HETATM    6  C   UNL     1     -35.235  38.648 -50.763  1.00  0.00     0.016 A 
ENDROOT
BRANCH   1   7
HETATM    7  C   UNL     1     -32.980  38.888 -49.736  1.00  0.00     0.061 C 
HETATM    8  C   UNL     1     -33.127  38.479 -48.287  1.00  0.00     0.073 C 
HETATM    9  N   UNL     1     -31.832  38.652 -50.303  1.00  0.00    -0.176 NA
BRANCH   9  10
HETATM   10  N   UNL     1     -31.610  39.091 -51.574  1.00  0.00    -0.243 N 
HETATM   11  C   UNL     1     -31.872  38.252 -52.648  1.00  0.00     0.273 C 
HETATM   12  O   UNL     1     -32.281  37.098 -52.563  1.00  0.00    -0.266 OA
HETATM   13  H   UNL     1     -31.123  39.969 -51.696  1.00  0.00     0.192 HD
BRANCH  11  14
HETATM   14  C   UNL     1     -31.630  38.823 -53.997  1.00  0.00     0.051 A 
HETATM   15  C   UNL     1     -32.305  39.940 -54.476  1.00  0.00     0.133 A 
HETATM   16  N   UNL     1     -32.115  40.477 -55.707  1.00  0.00    -0.272 NA
HETATM   17  C   UNL     1     -31.224  39.852 -56.508  1.00  0.00     0.116 A 
HETATM   18  C   UNL     1     -30.518  38.718 -56.137  1.00  0.00     0.020 A 
HETATM   19  C   UNL     1     -30.729  38.197 -54.863  1.00  0.00     0.020 A 
ENDBRANCH  11  14
ENDBRANCH   9  10
ENDBRANCH   1   7
BRANCH   4  20
HETATM   20  N   UNL     1     -37.610  41.030 -52.254  1.00  0.00    -0.309 N 
HETATM   21  C   UNL     1     -38.020  41.000 -53.559  1.00  0.00     0.325 C 
HETATM   22  N   UNL     1     -37.044  40.797 -54.499  1.00  0.00    -0.309 N 
HETATM   23  O   UNL     1     -39.198  41.267 -53.785  1.00  0.00    -0.247 OA
HETATM   24  H   UNL     1     -36.102  40.773 -54.144  1.00  0.00     0.170 HD
HETATM   25  H   UNL     1     -38.296  41.507 -51.679  1.00  0.00     0.170 HD
BRANCH  22  26
HETATM   26  C   UNL     1     -37.170  40.879 -55.901  1.00  0.00     0.036 A 
HETATM   27  C   UNL     1     -36.944  42.042 -56.642  1.00  0.00     0.031 A 
HETATM   28  C   UNL     1     -37.032  42.025 -58.039  1.00  0.00     0.026 A 
HETATM   29  C   UNL     1     -37.360  40.846 -58.702  1.00  0.00     0.034 A 
HETATM   30 CL   UNL     1     -37.453  40.823 -60.419  1.00  0.00    -0.084 Cl
HETATM   31  C   UNL     1     -37.609  39.685 -57.978  1.00  0.00     0.026 A 
HETATM   32  C   UNL     1     -37.514  39.702 -56.582  1.00  0.00     0.031 A 
ENDBRANCH  22  26
ENDBRANCH   4  20
TORSDOF 5
ENDMDL
MODEL 8
REMARK VINA RESULT:      -7.9      4.542      9.951
REMARK  5 active torsions:
REMARK  status: ('A' for Active; 'I' for Inactive)
REMARK    1  A    between atoms: C_2  and  C_3 
REMARK    2  A    between atoms: C_6  and  N_7 
REMARK       I    between atoms: N_7  and  C_8 
REMARK       I    between atoms: C_8  and  N_9 
REMARK    3  A    between atoms: N_9  and  C_10 
REMARK    4  A    between atoms: N_20  and  N_21 
REMARK       I    between atoms: N_21  and  C_22 
REMARK    5  A    between atoms: C_22  and  C_23 
ROOT
HETATM    1  C   UNL     1     -43.714  56.776 -58.109  1.00  0.00    -0.010 A 
HETATM    2  C   UNL     1     -42.877  55.748 -57.665  1.00  0.00     0.016 A 
HETATM    3  C   UNL     1     -42.459  55.715 -56.328  1.00  0.00     0.030 A 
HETATM    4  C   UNL     1     -42.873  56.710 -55.436  1.00  0.00     0.036 A 
HETATM    5  C   UNL     1     -43.684  57.752 -55.898  1.00  0.00     0.030 A 
HETATM    6  C   UNL     1     -44.130  57.770 -57.220  1.00  0.00     0.016 A 
ENDROOT
BRANCH   1   7
HETATM    7  C   UNL     1     -44.177  56.819 -59.520  1.00  0.00     0.061 C 
HETATM    8  C   UNL     1     -45.188  55.775 -59.939  1.00  0.00     0.073 C 
HETATM    9  N   UNL     1     -43.825  57.693 -60.418  1.00  0.00    -0.176 NA
BRANCH   9  10
HETATM   10  N   UNL     1     -42.843  58.592 -60.128  1.00  0.00    -0.243 N 
HETATM   11  C   UNL     1     -43.080  59.950 -60.296  1.00  0.00     0.273 C 
HETATM   12  O   UNL     1     -44.124  60.440 -60.717  1.00  0.00    -0.266 OA
HETATM   13  H   UNL     1     -41.915  58.239 -59.934  1.00  0.00     0.192 HD
BRANCH  11  14
HETATM   14  C   UNL     1     -41.965  60.858 -59.926  1.00  0.00     0.051 A 
HETATM   15  C   UNL     1     -41.451  60.937 -58.638  1.00  0.00     0.133 A 
HETATM   16  N   UNL     1     -40.442  61.765 -58.268  1.00  0.00    -0.272 NA
HETATM   17  C   UNL     1     -39.940  62.572 -59.228  1.00  0.00     0.116 A 
HETATM   18  C   UNL     1     -40.398  62.591 -60.536  1.00  0.00     0.020 A 
HETATM   19  C   UNL     1     -41.429  61.721 -60.886  1.00  0.00     0.020 A 
ENDBRANCH  11  14
ENDBRANCH   9  10
ENDBRANCH   1   7
BRANCH   4  20
HETATM   20  N   UNL     1     -42.468  56.769 -54.094  1.00  0.00    -0.309 N 
HETATM   21  C   UNL     1     -41.689  55.950 -53.322  1.00  0.00     0.325 C 
HETATM   22  N   UNL     1     -41.515  54.669 -53.777  1.00  0.00    -0.309 N 
HETATM   23  O   UNL     1     -41.308  56.390 -52.240  1.00  0.00    -0.247 OA
HETATM   24  H   UNL     1     -42.048  54.426 -54.598  1.00  0.00     0.170 HD
HETATM   25  H   UNL     1     -42.816  57.546 -53.543  1.00  0.00     0.170 HD
BRANCH  22  26
HETATM   26  C   UNL     1     -40.901  53.592 -53.104  1.00  0.00     0.036 A 
HETATM   27  C   UNL     1     -40.779  53.503 -51.715  1.00  0.00     0.031 A 
HETATM   28  C   UNL     1     -40.208  52.371 -51.121  1.00  0.00     0.026 A 
HETATM   29  C   UNL     1     -39.743  51.328 -51.917  1.00  0.00     0.034 A 
HETATM   30 CL   UNL     1     -39.054  49.931 -51.186  1.00  0.00    -0.084 Cl
HETATM   31  C   UNL     1     -39.836  51.411 -53.302  1.00  0.00     0.026 A 
HETATM   32  C   UNL     1     -40.414  52.540 -53.894  1.00  0.00     0.031 A 
ENDBRANCH  22  26
ENDBRANCH   4  20
TORSDOF 5
ENDMDL
MODEL 9
REMARK VINA RESULT:      -7.7      4.760      9.783
REMARK  5 active torsions:
REMARK  status: ('A' for Active; 'I' for Inactive)
REMARK    1  A    between atoms: C_2  and  C_3 
REMARK    2  A    between atoms: C_6  and  N_7 
REMARK       I    between atoms: N_7  and  C_8 
REMARK       I    between atoms: C_8  and  N_9 
REMARK    3  A    between atoms: N_9  and  C_10 
REMARK    4  A    between atoms: N_20  and  N_21 
REMARK       I    between atoms: N_21  and  C_22 
REMARK    5  A    between atoms: C_22  and  C_23 
ROOT
HETATM    1  C   UNL     1     -43.773  56.699 -58.262  1.00  0.00    -0.010 A 
HETATM    2  C   UNL     1     -43.008  56.179 -57.213  1.00  0.00     0.016 A 
HETATM    3  C   UNL     1     -43.275  56.568 -55.895  1.00  0.00     0.030 A 
HETATM    4  C   UNL     1     -44.303  57.478 -55.622  1.00  0.00     0.036 A 
HETATM    5  C   UNL     1     -45.041  58.016 -56.681  1.00  0.00     0.030 A 
HETATM    6  C   UNL     1     -44.800  57.607 -57.994  1.00  0.00     0.016 A 
ENDROOT
BRANCH   1   7
HETATM    7  C   UNL     1     -43.511  56.288 -59.666  1.00  0.00     0.061 C 
HETATM    8  C   UNL     1     -44.177  55.015 -60.140  1.00  0.00     0.073 C 
HETATM    9  N   UNL     1     -42.796  56.939 -60.537  1.00  0.00    -0.176 NA
BRANCH   9  10
HETATM   10  N   UNL     1     -42.091  58.036 -60.138  1.00  0.00    -0.243 N 
HETATM   11  C   UNL     1     -42.576  59.306 -60.418  1.00  0.00     0.273 C 
HETATM   12  O   UNL     1     -43.610  59.550 -61.032  1.00  0.00    -0.266 OA
HETATM   13  H   UNL     1     -41.158  57.895 -59.775  1.00  0.00     0.192 HD
BRANCH  11  14
HETATM   14  C   UNL     1     -41.758  60.441 -59.920  1.00  0.00     0.051 A 
HETATM   15  C   UNL     1     -41.399  60.584 -58.585  1.00  0.00     0.133 A 
HETATM   16  N   UNL     1     -40.665  61.616 -58.100  1.00  0.00    -0.272 NA
HETATM   17  C   UNL     1     -40.293  62.564 -58.987  1.00  0.00     0.116 A 
HETATM   18  C   UNL     1     -40.620  62.530 -60.333  1.00  0.00     0.020 A 
HETATM   19  C   UNL     1     -41.367  61.451 -60.803  1.00  0.00     0.020 A 
ENDBRANCH  11  14
ENDBRANCH   9  10
ENDBRANCH   1   7
BRANCH   4  20
HETATM   20  N   UNL     1     -44.606  57.945 -54.335  1.00  0.00    -0.309 N 
HETATM   21  C   UNL     1     -44.045  57.717 -53.108  1.00  0.00     0.325 C 
HETATM   22  N   UNL     1     -43.262  56.599 -52.995  1.00  0.00    -0.309 N 
HETATM   23  O   UNL     1     -44.379  58.462 -52.189  1.00  0.00    -0.247 OA
HETATM   24  H   UNL     1     -43.240  56.004 -53.807  1.00  0.00     0.170 HD
HETATM   25  H   UNL     1     -45.408  58.560 -54.248  1.00  0.00     0.170 HD
BRANCH  22  26
HETATM   26  C   UNL     1     -42.703  56.055 -51.819  1.00  0.00     0.036 A 
HETATM   27  C   UNL     1     -43.205  54.928 -51.162  1.00  0.00     0.031 A 
HETATM   28  C   UNL     1     -42.557  54.415 -50.032  1.00  0.00     0.026 A 
HETATM   29  C   UNL     1     -41.409  55.035 -49.547  1.00  0.00     0.034 A 
HETATM   30 CL   UNL     1     -40.605  54.394 -48.168  1.00  0.00    -0.084 Cl
HETATM   31  C   UNL     1     -40.909  56.169 -50.177  1.00  0.00     0.026 A 
HETATM   32  C   UNL     1     -41.554  56.677 -51.310  1.00  0.00     0.031 A 
ENDBRANCH  22  26
ENDBRANCH   4  20
TORSDOF 5
ENDMDL
MODEL 10
REMARK VINA RESULT:      -7.6      3.076      5.507
REMARK  5 active torsions:
REMARK  status: ('A' for Active; 'I' for Inactive)
REMARK    1  A    between atoms: C_2  and  C_3 
REMARK    2  A    between atoms: C_6  and  N_7 
REMARK       I    between atoms: N_7  and  C_8 
REMARK       I    between atoms: C_8  and  N_9 
REMARK    3  A    between atoms: N_9  and  C_10 
REMARK    4  A    between atoms: N_20  and  N_21 
REMARK       I    between atoms: N_21  and  C_22 
REMARK    5  A    between atoms: C_22  and  C_23 
ROOT
HETATM    1  C   UNL     1     -41.905  55.082 -52.559  1.00  0.00    -0.010 A 
HETATM    2  C   UNL     1     -43.215  54.750 -52.918  1.00  0.00     0.016 A 
HETATM    3  C   UNL     1     -43.587  54.731 -54.268  1.00  0.00     0.030 A 
HETATM    4  C   UNL     1     -42.653  55.047 -55.261  1.00  0.00     0.036 A 
HETATM    5  C   UNL     1     -41.354  55.410 -54.890  1.00  0.00     0.030 A 
HETATM    6  C   UNL     1     -40.970  55.397 -53.548  1.00  0.00     0.016 A 
ENDROOT
BRANCH   1   7
HETATM    7  C   UNL     1     -41.491  55.096 -51.132  1.00  0.00     0.061 C 
HETATM    8  C   UNL     1     -40.973  53.794 -50.560  1.00  0.00     0.073 C 
HETATM    9  N   UNL     1     -41.493  56.128 -50.341  1.00  0.00    -0.176 NA
BRANCH   9  10
HETATM   10  N   UNL     1     -42.042  57.300 -50.771  1.00  0.00    -0.243 N 
HETATM   11  C   UNL     1     -41.229  58.404 -50.985  1.00  0.00     0.273 C 
HETATM   12  O   UNL     1     -40.016  58.438 -50.798  1.00  0.00    -0.266 OA
HETATM   13  H   UNL     1     -43.050  57.376 -50.784  1.00  0.00     0.192 HD
BRANCH  11  14
HETATM   14  C   UNL     1     -41.908  59.628 -51.481  1.00  0.00     0.051 A 
HETATM   15  C   UNL     1     -42.450  60.587 -50.633  1.00  0.00     0.133 A 
HETATM   16  N   UNL     1     -43.086  61.707 -51.057  1.00  0.00    -0.272 NA
HETATM   17  C   UNL     1     -43.209  61.865 -52.393  1.00  0.00     0.116 A 
HETATM   18  C   UNL     1     -42.727  60.956 -53.323  1.00  0.00     0.020 A 
HETATM   19  C   UNL     1     -42.070  59.820 -52.855  1.00  0.00     0.020 A 
ENDBRANCH  11  14
ENDBRANCH   9  10
ENDBRANCH   1   7
BRANCH   4  20
HETATM   20  N   UNL     1     -42.957  55.088 -56.630  1.00  0.00    -0.309 N 
HETATM   21  C   UNL     1     -43.469  56.066 -57.439  1.00  0.00     0.325 C 
HETATM   22  N   UNL     1     -44.128  57.091 -56.813  1.00  0.00    -0.309 N 
HETATM   23  O   UNL     1     -43.396  55.888 -58.652  1.00  0.00    -0.247 OA
HETATM   24  H   UNL     1     -44.246  56.984 -55.817  1.00  0.00     0.170 HD
HETATM   25  H   UNL     1     -42.801  54.238 -57.159  1.00  0.00     0.170 HD
BRANCH  22  26
HETATM   26  C   UNL     1     -44.876  58.126 -57.411  1.00  0.00     0.036 A 
HETATM   27  C   UNL     1     -44.324  59.131 -58.211  1.00  0.00     0.031 A 
HETATM   28  C   UNL     1     -45.145  60.090 -58.817  1.00  0.00     0.026 A 
HETATM   29  C   UNL     1     -46.521  60.055 -58.616  1.00  0.00     0.034 A 
HETATM   30 CL   UNL     1     -47.529  61.225 -59.374  1.00  0.00    -0.084 Cl
HETATM   31  C   UNL     1     -47.084  59.075 -57.805  1.00  0.00     0.026 A 
HETATM   32  C   UNL     1     -46.264  58.113 -57.205  1.00  0.00     0.031 A 
ENDBRANCH  22  26
ENDBRANCH   4  20
TORSDOF 5
ENDMDL
