MODEL 1
REMARK VINA RESULT:      -9.3      0.000      0.000
REMARK  7 active torsions:
REMARK  status: ('A' for Active; 'I' for Inactive)
REMARK    1  A    between atoms: C_3  and  C_4 
REMARK       I    between atoms: C_4  and  N_5 
REMARK    2  A    between atoms: N_8  and  C_9 
REMARK    3  A    between atoms: C_12  and  N_13 
REMARK    4  A    between atoms: N_13  and  C_14 
REMARK    5  A    between atoms: C_14  and  N_15 
REMARK       I    between atoms: N_15  and  C_16 
REMARK    6  A    between atoms: C_16  and  C_17 
REMARK    7  A    between atoms: C_18  and  O_19 
ROOT
HETATM    1  C   UNL     1     -42.926  55.967 -53.961  1.00  0.00     0.030 A 
HETATM    2  C   UNL     1     -43.547  54.856 -53.367  1.00  0.00     0.031 A 
HETATM    3  C   UNL     1     -43.348  54.528 -52.014  1.00  0.00     0.032 A 
HETATM    4  C   UNL     1     -42.486  55.287 -51.224  1.00  0.00     0.034 A 
HETATM    5  C   UNL     1     -41.935  56.439 -51.773  1.00  0.00     0.032 A 
HETATM    6  C   UNL     1     -42.148  56.767 -53.116  1.00  0.00     0.031 A 
ENDROOT
BRANCH   4   7
HETATM    7  N   UNL     1     -42.245  54.874 -49.897  1.00  0.00    -0.333 N 
HETATM    8  H   UNL     1     -42.951  55.129 -49.207  1.00  0.00     0.168 HD
BRANCH   7   9
HETATM    9  C   UNL     1     -41.275  54.026 -49.412  1.00  0.00     0.179 C 
HETATM   10  S   UNL     1     -40.489  54.053 -47.931  1.00  0.00    -0.040 SA
BRANCH   9  11
HETATM   11  N   UNL     1     -40.883  53.022 -50.272  1.00  0.00    -0.299 N 
HETATM   12  C   UNL     1     -39.748  52.910 -51.060  1.00  0.00     0.260 C 
HETATM   13  O   UNL     1     -38.710  53.529 -50.839  1.00  0.00    -0.267 OA
HETATM   14  H   UNL     1     -41.639  52.379 -50.482  1.00  0.00     0.171 HD
BRANCH  12  15
HETATM   15  C   UNL     1     -39.821  51.885 -52.150  1.00  0.00     0.065 A 
HETATM   16  C   UNL     1     -40.127  52.207 -53.489  1.00  0.00     0.084 A 
HETATM   17  C   UNL     1     -40.195  51.185 -54.443  1.00  0.00     0.038 A 
HETATM   18  C   UNL     1     -39.940  49.861 -54.080  1.00  0.00     0.003 A 
HETATM   19  C   UNL     1     -39.615  49.546 -52.764  1.00  0.00     0.001 A 
HETATM   20  C   UNL     1     -39.552  50.554 -51.801  1.00  0.00     0.020 A 
BRANCH  16  21
HETATM   21  O   UNL     1     -40.385  53.521 -53.786  1.00  0.00    -0.355 OA
HETATM   22  C   UNL     1     -39.896  54.011 -55.031  1.00  0.00     0.210 C 
ENDBRANCH  16  21
ENDBRANCH  12  15
ENDBRANCH   9  11
ENDBRANCH   7   9
ENDBRANCH   4   7
BRANCH   1  23
HETATM   23  N   UNL     1     -43.018  56.190 -55.337  1.00  0.00    -0.378 N 
HETATM   24  C   UNL     1     -42.690  55.078 -56.252  1.00  0.00     0.143 C 
HETATM   25  C   UNL     1     -43.300  55.320 -57.637  1.00  0.00     0.146 C 
HETATM   26  N   UNL     1     -42.994  56.641 -58.188  1.00  0.00    -0.345 N 
HETATM   27  C   UNL     1     -43.063  56.759 -59.574  1.00  0.00     0.254 C 
HETATM   28  C   UNL     1     -43.149  57.767 -57.251  1.00  0.00     0.146 C 
HETATM   29  O   UNL     1     -43.086  55.800 -60.343  1.00  0.00    -0.267 OA
HETATM   30  C   UNL     1     -42.554  57.497 -55.850  1.00  0.00     0.143 C 
BRANCH  27  31
HETATM   31  C   UNL     1     -43.111  58.104 -60.176  1.00  0.00     0.038 A 
HETATM   32  C   UNL     1     -44.329  58.760 -60.429  1.00  0.00    -0.046 A 
HETATM   33  C   UNL     1     -45.662  58.177 -60.059  1.00  0.00     0.049 C 
HETATM   34  C   UNL     1     -44.285  60.025 -61.037  1.00  0.00     0.007 A 
HETATM   35  C   UNL     1     -43.068  60.593 -61.421  1.00  0.00     0.001 A 
HETATM   36  C   UNL     1     -41.872  59.913 -61.197  1.00  0.00     0.001 A 
HETATM   37  C   UNL     1     -41.891  58.666 -60.575  1.00  0.00     0.017 A 
ENDBRANCH  27  31
ENDBRANCH   1  23
TORSDOF 7
ENDMDL
MODEL 2
REMARK VINA RESULT:      -8.6      1.925      2.970
REMARK  7 active torsions:
REMARK  status: ('A' for Active; 'I' for Inactive)
REMARK    1  A    between atoms: C_3  and  C_4 
REMARK       I    between atoms: C_4  and  N_5 
REMARK    2  A    between atoms: N_8  and  C_9 
REMARK    3  A    between atoms: C_12  and  N_13 
REMARK    4  A    between atoms: N_13  and  C_14 
REMARK    5  A    between atoms: C_14  and  N_15 
REMARK       I    between atoms: N_15  and  C_16 
REMARK    6  A    between atoms: C_16  and  C_17 
REMARK    7  A    between atoms: C_18  and  O_19 
ROOT
HETATM    1  C   UNL     1     -42.684  57.141 -52.940  1.00  0.00     0.030 A 
HETATM    2  C   UNL     1     -43.517  56.341 -52.141  1.00  0.00     0.031 A 
HETATM    3  C   UNL     1     -43.123  55.901 -50.864  1.00  0.00     0.032 A 
HETATM    4  C   UNL     1     -41.862  56.221 -50.365  1.00  0.00     0.034 A 
HETATM    5  C   UNL     1     -41.063  57.084 -51.106  1.00  0.00     0.032 A 
HETATM    6  C   UNL     1     -41.465  57.530 -52.369  1.00  0.00     0.031 A 
ENDROOT
BRANCH   4   7
HETATM    7  N   UNL     1     -41.471  55.688 -49.119  1.00  0.00    -0.333 N 
HETATM    8  H   UNL     1     -41.756  56.213 -48.292  1.00  0.00     0.168 HD
BRANCH   7   9
HETATM    9  C   UNL     1     -40.904  54.467 -48.834  1.00  0.00     0.179 C 
HETATM   10  S   UNL     1     -40.361  53.869 -47.365  1.00  0.00    -0.040 SA
BRANCH   9  11
HETATM   11  N   UNL     1     -40.747  53.622 -49.912  1.00  0.00    -0.299 N 
HETATM   12  C   UNL     1     -39.675  53.463 -50.776  1.00  0.00     0.260 C 
HETATM   13  O   UNL     1     -38.526  53.797 -50.496  1.00  0.00    -0.267 OA
HETATM   14  H   UNL     1     -41.625  53.206 -50.206  1.00  0.00     0.171 HD
BRANCH  12  15
HETATM   15  C   UNL     1     -39.981  52.743 -52.053  1.00  0.00     0.065 A 
HETATM   16  C   UNL     1     -39.675  51.381 -52.260  1.00  0.00     0.084 A 
HETATM   17  C   UNL     1     -39.976  50.788 -53.492  1.00  0.00     0.038 A 
HETATM   18  C   UNL     1     -40.594  51.530 -54.501  1.00  0.00     0.003 A 
HETATM   19  C   UNL     1     -40.918  52.867 -54.290  1.00  0.00     0.001 A 
HETATM   20  C   UNL     1     -40.616  53.473 -53.069  1.00  0.00     0.020 A 
BRANCH  16  21
HETATM   21  O   UNL     1     -39.053  50.705 -51.241  1.00  0.00    -0.355 OA
HETATM   22  C   UNL     1     -39.811  49.698 -50.575  1.00  0.00     0.210 C 
ENDBRANCH  16  21
ENDBRANCH  12  15
ENDBRANCH   9  11
ENDBRANCH   7   9
ENDBRANCH   4   7
BRANCH   1  23
HETATM   23  N   UNL     1     -43.028  57.443 -54.260  1.00  0.00    -0.378 N 
HETATM   24  C   UNL     1     -43.128  58.864 -54.651  1.00  0.00     0.143 C 
HETATM   25  C   UNL     1     -43.019  59.014 -56.172  1.00  0.00     0.146 C 
HETATM   26  N   UNL     1     -43.928  58.137 -56.913  1.00  0.00    -0.345 N 
HETATM   27  C   UNL     1     -44.254  58.542 -58.205  1.00  0.00     0.254 C 
HETATM   28  C   UNL     1     -43.981  56.742 -56.443  1.00  0.00     0.146 C 
HETATM   29  O   UNL     1     -44.063  59.678 -58.635  1.00  0.00    -0.267 OA
HETATM   30  C   UNL     1     -44.062  56.606 -54.905  1.00  0.00     0.143 C 
BRANCH  27  31
HETATM   31  C   UNL     1     -44.869  57.569 -59.126  1.00  0.00     0.038 A 
HETATM   32  C   UNL     1     -44.093  56.758 -59.973  1.00  0.00    -0.046 A 
HETATM   33  C   UNL     1     -42.591  56.775 -59.968  1.00  0.00     0.049 C 
HETATM   34  C   UNL     1     -44.759  55.883 -60.845  1.00  0.00     0.007 A 
HETATM   35  C   UNL     1     -46.155  55.853 -60.900  1.00  0.00     0.001 A 
HETATM   36  C   UNL     1     -46.910  56.690 -60.079  1.00  0.00     0.001 A 
HETATM   37  C   UNL     1     -46.268  57.550 -59.192  1.00  0.00     0.017 A 
ENDBRANCH  27  31
ENDBRANCH   1  23
TORSDOF 7
ENDMDL
MODEL 3
REMARK VINA RESULT:      -8.6      3.227      9.450
REMARK  7 active torsions:
REMARK  status: ('A' for Active; 'I' for Inactive)
REMARK    1  A    between atoms: C_3  and  C_4 
REMARK       I    between atoms: C_4  and  N_5 
REMARK    2  A    between atoms: N_8  and  C_9 
REMARK    3  A    between atoms: C_12  and  N_13 
REMARK    4  A    between atoms: N_13  and  C_14 
REMARK    5  A    between atoms: C_14  and  N_15 
REMARK       I    between atoms: N_15  and  C_16 
REMARK    6  A    between atoms: C_16  and  C_17 
REMARK    7  A    between atoms: C_18  and  O_19 
ROOT
HETATM    1  C   UNL     1     -43.518  57.100 -53.722  1.00  0.00     0.030 A 
HETATM    2  C   UNL     1     -43.056  58.417 -53.877  1.00  0.00     0.031 A 
HETATM    3  C   UNL     1     -43.812  59.396 -54.547  1.00  0.00     0.032 A 
HETATM    4  C   UNL     1     -45.041  59.070 -55.117  1.00  0.00     0.034 A 
HETATM    5  C   UNL     1     -45.551  57.795 -54.896  1.00  0.00     0.032 A 
HETATM    6  C   UNL     1     -44.800  56.830 -54.216  1.00  0.00     0.031 A 
ENDROOT
BRANCH   4   7
HETATM    7  N   UNL     1     -45.728  60.056 -55.856  1.00  0.00    -0.333 N 
HETATM    8  H   UNL     1     -46.395  60.628 -55.339  1.00  0.00     0.168 HD
BRANCH   7   9
HETATM    9  C   UNL     1     -45.511  60.484 -57.146  1.00  0.00     0.179 C 
HETATM   10  S   UNL     1     -45.241  62.038 -57.714  1.00  0.00    -0.040 SA
BRANCH   9  11
HETATM   11  N   UNL     1     -45.535  59.498 -58.109  1.00  0.00    -0.299 N 
HETATM   12  C   UNL     1     -46.413  58.440 -58.284  1.00  0.00     0.260 C 
HETATM   13  O   UNL     1     -47.549  58.420 -57.816  1.00  0.00    -0.267 OA
HETATM   14  H   UNL     1     -44.670  59.454 -58.636  1.00  0.00     0.171 HD
BRANCH  12  15
HETATM   15  C   UNL     1     -45.933  57.350 -59.192  1.00  0.00     0.065 A 
HETATM   16  C   UNL     1     -44.639  56.794 -59.108  1.00  0.00     0.084 A 
HETATM   17  C   UNL     1     -44.261  55.791 -60.009  1.00  0.00     0.038 A 
HETATM   18  C   UNL     1     -45.164  55.326 -60.968  1.00  0.00     0.003 A 
HETATM   19  C   UNL     1     -46.450  55.857 -61.035  1.00  0.00     0.001 A 
HETATM   20  C   UNL     1     -46.836  56.863 -60.149  1.00  0.00     0.020 A 
BRANCH  16  21
HETATM   21  O   UNL     1     -43.788  57.300 -58.159  1.00  0.00    -0.355 OA
HETATM   22  C   UNL     1     -42.961  56.367 -57.468  1.00  0.00     0.210 C 
ENDBRANCH  16  21
ENDBRANCH  12  15
ENDBRANCH   9  11
ENDBRANCH   7   9
ENDBRANCH   4   7
BRANCH   1  23
HETATM   23  N   UNL     1     -42.693  56.107 -53.187  1.00  0.00    -0.378 N 
HETATM   24  C   UNL     1     -41.635  56.511 -52.237  1.00  0.00     0.143 C 
HETATM   25  C   UNL     1     -41.178  55.313 -51.398  1.00  0.00     0.146 C 
HETATM   26  N   UNL     1     -40.830  54.138 -52.198  1.00  0.00    -0.345 N 
HETATM   27  C   UNL     1     -39.963  53.224 -51.601  1.00  0.00     0.254 C 
HETATM   28  C   UNL     1     -41.781  53.799 -53.270  1.00  0.00     0.146 C 
HETATM   29  O   UNL     1     -39.282  53.474 -50.608  1.00  0.00    -0.267 OA
HETATM   30  C   UNL     1     -42.255  55.021 -54.089  1.00  0.00     0.143 C 
BRANCH  27  31
HETATM   31  C   UNL     1     -39.837  51.874 -52.181  1.00  0.00     0.038 A 
HETATM   32  C   UNL     1     -39.957  50.716 -51.393  1.00  0.00    -0.046 A 
HETATM   33  C   UNL     1     -40.278  50.755 -49.927  1.00  0.00     0.049 C 
HETATM   34  C   UNL     1     -39.788  49.470 -52.018  1.00  0.00     0.007 A 
HETATM   35  C   UNL     1     -39.465  49.389 -53.375  1.00  0.00     0.001 A 
HETATM   36  C   UNL     1     -39.312  50.548 -54.133  1.00  0.00     0.001 A 
HETATM   37  C   UNL     1     -39.497  51.794 -53.538  1.00  0.00     0.017 A 
ENDBRANCH  27  31
ENDBRANCH   1  23
TORSDOF 7
ENDMDL
MODEL 4
REMARK VINA RESULT:      -8.5      3.100      4.557
REMARK  7 active torsions:
REMARK  status: ('A' for Active; 'I' for Inactive)
REMARK    1  A    between atoms: C_3  and  C_4 
REMARK       I    between atoms: C_4  and  N_5 
REMARK    2  A    between atoms: N_8  and  C_9 
REMARK    3  A    between atoms: C_12  and  N_13 
REMARK    4  A    between atoms: N_13  and  C_14 
REMARK    5  A    between atoms: C_14  and  N_15 
REMARK       I    between atoms: N_15  and  C_16 
REMARK    6  A    between atoms: C_16  and  C_17 
REMARK    7  A    between atoms: C_18  and  O_19 
ROOT
HETATM    1  C   UNL     1     -43.360  58.342 -56.468  1.00  0.00     0.030 A 
HETATM    2  C   UNL     1     -42.613  57.162 -56.608  1.00  0.00     0.031 A 
HETATM    3  C   UNL     1     -42.789  56.064 -55.746  1.00  0.00     0.032 A 
HETATM    4  C   UNL     1     -43.698  56.134 -54.692  1.00  0.00     0.034 A 
HETATM    5  C   UNL     1     -44.506  57.260 -54.595  1.00  0.00     0.032 A 
HETATM    6  C   UNL     1     -44.336  58.344 -55.463  1.00  0.00     0.031 A 
ENDROOT
BRANCH   4   7
HETATM    7  N   UNL     1     -43.782  55.045 -53.798  1.00  0.00    -0.333 N 
HETATM    8  H   UNL     1     -44.255  54.211 -54.144  1.00  0.00     0.168 HD
BRANCH   7   9
HETATM    9  C   UNL     1     -43.171  54.874 -52.576  1.00  0.00     0.179 C 
HETATM   10  S   UNL     1     -43.394  55.730 -51.152  1.00  0.00    -0.040 SA
BRANCH   9  11
HETATM   11  N   UNL     1     -42.233  53.865 -52.521  1.00  0.00    -0.299 N 
HETATM   12  C   UNL     1     -41.067  53.687 -53.249  1.00  0.00     0.260 C 
HETATM   13  O   UNL     1     -40.479  54.603 -53.818  1.00  0.00    -0.267 OA
HETATM   14  H   UNL     1     -42.565  53.060 -52.001  1.00  0.00     0.171 HD
BRANCH  12  15
HETATM   15  C   UNL     1     -40.489  52.305 -53.207  1.00  0.00     0.065 A 
HETATM   16  C   UNL     1     -39.951  51.731 -52.036  1.00  0.00     0.084 A 
HETATM   17  C   UNL     1     -39.411  50.441 -52.087  1.00  0.00     0.038 A 
HETATM   18  C   UNL     1     -39.425  49.717 -53.281  1.00  0.00     0.003 A 
HETATM   19  C   UNL     1     -39.977  50.273 -54.432  1.00  0.00     0.001 A 
HETATM   20  C   UNL     1     -40.511  51.562 -54.396  1.00  0.00     0.020 A 
BRANCH  16  21
HETATM   21  O   UNL     1     -39.949  52.494 -50.896  1.00  0.00    -0.355 OA
HETATM   22  C   UNL     1     -40.470  51.892 -49.713  1.00  0.00     0.210 C 
ENDBRANCH  16  21
ENDBRANCH  12  15
ENDBRANCH   9  11
ENDBRANCH   7   9
ENDBRANCH   4   7
BRANCH   1  23
HETATM   23  N   UNL     1     -43.068  59.473 -57.236  1.00  0.00    -0.378 N 
HETATM   24  C   UNL     1     -44.192  60.250 -57.797  1.00  0.00     0.143 C 
HETATM   25  C   UNL     1     -43.739  61.667 -58.163  1.00  0.00     0.146 C 
HETATM   26  N   UNL     1     -42.533  61.699 -58.992  1.00  0.00    -0.345 N 
HETATM   27  C   UNL     1     -42.348  62.847 -59.761  1.00  0.00     0.254 C 
HETATM   28  C   UNL     1     -41.444  60.808 -58.557  1.00  0.00     0.146 C 
HETATM   29  O   UNL     1     -43.234  63.666 -59.992  1.00  0.00    -0.267 OA
HETATM   30  C   UNL     1     -41.920  59.391 -58.164  1.00  0.00     0.143 C 
BRANCH  27  31
HETATM   31  C   UNL     1     -41.019  63.110 -60.345  1.00  0.00     0.038 A 
HETATM   32  C   UNL     1     -40.036  63.835 -59.650  1.00  0.00    -0.046 A 
HETATM   33  C   UNL     1     -40.233  64.346 -58.252  1.00  0.00     0.049 C 
HETATM   34  C   UNL     1     -38.810  64.071 -60.293  1.00  0.00     0.007 A 
HETATM   35  C   UNL     1     -38.593  63.636 -61.603  1.00  0.00     0.001 A 
HETATM   36  C   UNL     1     -39.593  62.950 -62.291  1.00  0.00     0.001 A 
HETATM   37  C   UNL     1     -40.809  62.687 -61.664  1.00  0.00     0.017 A 
ENDBRANCH  27  31
ENDBRANCH   1  23
TORSDOF 7
ENDMDL
MODEL 5
REMARK VINA RESULT:      -8.3      1.661      2.163
REMARK  7 active torsions:
REMARK  status: ('A' for Active; 'I' for Inactive)
REMARK    1  A    between atoms: C_3  and  C_4 
REMARK       I    between atoms: C_4  and  N_5 
REMARK    2  A    between atoms: N_8  and  C_9 
REMARK    3  A    between atoms: C_12  and  N_13 
REMARK    4  A    between atoms: N_13  and  C_14 
REMARK    5  A    between atoms: C_14  and  N_15 
REMARK       I    between atoms: N_15  and  C_16 
REMARK    6  A    between atoms: C_16  and  C_17 
REMARK    7  A    between atoms: C_18  and  O_19 
ROOT
HETATM    1  C   UNL     1     -42.633  56.431 -52.901  1.00  0.00     0.030 A 
HETATM    2  C   UNL     1     -43.438  55.459 -52.285  1.00  0.00     0.031 A 
HETATM    3  C   UNL     1     -43.151  54.960 -51.002  1.00  0.00     0.032 A 
HETATM    4  C   UNL     1     -42.021  55.397 -50.312  1.00  0.00     0.034 A 
HETATM    5  C   UNL     1     -41.265  56.422 -50.871  1.00  0.00     0.032 A 
HETATM    6  C   UNL     1     -41.564  56.923 -52.141  1.00  0.00     0.031 A 
ENDROOT
BRANCH   4   7
HETATM    7  N   UNL     1     -41.719  54.809 -49.066  1.00  0.00    -0.333 N 
HETATM    8  H   UNL     1     -42.365  55.007 -48.302  1.00  0.00     0.168 HD
BRANCH   7   9
HETATM    9  C   UNL     1     -40.770  53.861 -48.758  1.00  0.00     0.179 C 
HETATM   10  S   UNL     1     -39.905  53.651 -47.337  1.00  0.00    -0.040 SA
BRANCH   9  11
HETATM   11  N   UNL     1     -40.477  52.967 -49.767  1.00  0.00    -0.299 N 
HETATM   12  C   UNL     1     -39.562  53.056 -50.803  1.00  0.00     0.260 C 
HETATM   13  O   UNL     1     -38.585  53.801 -50.780  1.00  0.00    -0.267 OA
HETATM   14  H   UNL     1     -41.177  52.237 -49.848  1.00  0.00     0.171 HD
BRANCH  12  15
HETATM   15  C   UNL     1     -39.770  52.089 -51.928  1.00  0.00     0.065 A 
HETATM   16  C   UNL     1     -40.175  52.487 -53.220  1.00  0.00     0.084 A 
HETATM   17  C   UNL     1     -40.366  51.517 -54.210  1.00  0.00     0.038 A 
HETATM   18  C   UNL     1     -40.136  50.168 -53.931  1.00  0.00     0.003 A 
HETATM   19  C   UNL     1     -39.712  49.776 -52.664  1.00  0.00     0.001 A 
HETATM   20  C   UNL     1     -39.526  50.733 -51.665  1.00  0.00     0.020 A 
BRANCH  16  21
HETATM   21  O   UNL     1     -40.403  53.823 -53.433  1.00  0.00    -0.355 OA
HETATM   22  C   UNL     1     -40.270  54.297 -54.771  1.00  0.00     0.210 C 
ENDBRANCH  16  21
ENDBRANCH  12  15
ENDBRANCH   9  11
ENDBRANCH   7   9
ENDBRANCH   4   7
BRANCH   1  23
HETATM   23  N   UNL     1     -42.848  56.804 -54.230  1.00  0.00    -0.378 N 
HETATM   24  C   UNL     1     -42.609  58.212 -54.611  1.00  0.00     0.143 C 
HETATM   25  C   UNL     1     -42.408  58.334 -56.126  1.00  0.00     0.146 C 
HETATM   26  N   UNL     1     -43.461  57.685 -56.909  1.00  0.00    -0.345 N 
HETATM   27  C   UNL     1     -43.635  58.155 -58.210  1.00  0.00     0.254 C 
HETATM   28  C   UNL     1     -43.846  56.338 -56.455  1.00  0.00     0.146 C 
HETATM   29  O   UNL     1     -43.176  59.218 -58.621  1.00  0.00    -0.267 OA
HETATM   30  C   UNL     1     -44.017  56.224 -54.923  1.00  0.00     0.143 C 
BRANCH  27  31
HETATM   31  C   UNL     1     -44.417  57.346 -59.163  1.00  0.00     0.038 A 
HETATM   32  C   UNL     1     -45.821  57.385 -59.191  1.00  0.00    -0.046 A 
HETATM   33  C   UNL     1     -46.631  58.286 -58.304  1.00  0.00     0.049 C 
HETATM   34  C   UNL     1     -46.489  56.557 -60.107  1.00  0.00     0.007 A 
HETATM   35  C   UNL     1     -45.776  55.685 -60.934  1.00  0.00     0.001 A 
HETATM   36  C   UNL     1     -44.384  55.631 -60.867  1.00  0.00     0.001 A 
HETATM   37  C   UNL     1     -43.702  56.461 -59.981  1.00  0.00     0.017 A 
ENDBRANCH  27  31
ENDBRANCH   1  23
TORSDOF 7
ENDMDL
MODEL 6
REMARK VINA RESULT:      -7.9      2.174      2.959
REMARK  7 active torsions:
REMARK  status: ('A' for Active; 'I' for Inactive)
REMARK    1  A    between atoms: C_3  and  C_4 
REMARK       I    between atoms: C_4  and  N_5 
REMARK    2  A    between atoms: N_8  and  C_9 
REMARK    3  A    between atoms: C_12  and  N_13 
REMARK    4  A    between atoms: N_13  and  C_14 
REMARK    5  A    between atoms: C_14  and  N_15 
REMARK       I    between atoms: N_15  and  C_16 
REMARK    6  A    between atoms: C_16  and  C_17 
REMARK    7  A    between atoms: C_18  and  O_19 
ROOT
HETATM    1  C   UNL     1     -42.617  58.349 -53.010  1.00  0.00     0.030 A 
HETATM    2  C   UNL     1     -43.532  57.694 -52.170  1.00  0.00     0.031 A 
HETATM    3  C   UNL     1     -43.123  57.032 -50.999  1.00  0.00     0.032 A 
HETATM    4  C   UNL     1     -41.773  56.976 -50.655  1.00  0.00     0.034 A 
HETATM    5  C   UNL     1     -40.868  57.694 -51.429  1.00  0.00     0.032 A 
HETATM    6  C   UNL     1     -41.283  58.362 -52.585  1.00  0.00     0.031 A 
ENDROOT
BRANCH   4   7
HETATM    7  N   UNL     1     -41.394  56.228 -49.520  1.00  0.00    -0.333 N 
HETATM    8  H   UNL     1     -41.659  56.613 -48.614  1.00  0.00     0.168 HD
BRANCH   7   9
HETATM    9  C   UNL     1     -40.863  54.959 -49.452  1.00  0.00     0.179 C 
HETATM   10  S   UNL     1     -40.450  54.057 -48.101  1.00  0.00    -0.040 SA
BRANCH   9  11
HETATM   11  N   UNL     1     -40.623  54.352 -50.666  1.00  0.00    -0.299 N 
HETATM   12  C   UNL     1     -41.468  53.613 -51.480  1.00  0.00     0.260 C 
HETATM   13  O   UNL     1     -42.693  53.688 -51.427  1.00  0.00    -0.267 OA
HETATM   14  H   UNL     1     -39.633  54.294 -50.878  1.00  0.00     0.171 HD
BRANCH  12  15
HETATM   15  C   UNL     1     -40.789  52.786 -52.528  1.00  0.00     0.065 A 
HETATM   16  C   UNL     1     -40.004  51.653 -52.225  1.00  0.00     0.084 A 
HETATM   17  C   UNL     1     -39.387  50.947 -53.264  1.00  0.00     0.038 A 
HETATM   18  C   UNL     1     -39.564  51.344 -54.591  1.00  0.00     0.003 A 
HETATM   19  C   UNL     1     -40.357  52.447 -54.893  1.00  0.00     0.001 A 
HETATM   20  C   UNL     1     -40.972  53.165 -53.866  1.00  0.00     0.020 A 
BRANCH  16  21
HETATM   21  O   UNL     1     -39.851  51.319 -50.904  1.00  0.00    -0.355 OA
HETATM   22  C   UNL     1     -39.853  49.930 -50.583  1.00  0.00     0.210 C 
ENDBRANCH  16  21
ENDBRANCH  12  15
ENDBRANCH   9  11
ENDBRANCH   7   9
ENDBRANCH   4   7
BRANCH   1  23
HETATM   23  N   UNL     1     -43.020  58.872 -54.242  1.00  0.00    -0.378 N 
HETATM   24  C   UNL     1     -44.445  58.765 -54.617  1.00  0.00     0.143 C 
HETATM   25  C   UNL     1     -44.794  59.784 -55.707  1.00  0.00     0.146 C 
HETATM   26  N   UNL     1     -43.882  59.751 -56.852  1.00  0.00    -0.345 N 
HETATM   27  C   UNL     1     -44.386  60.249 -58.052  1.00  0.00     0.254 C 
HETATM   28  C   UNL     1     -42.450  59.688 -56.517  1.00  0.00     0.146 C 
HETATM   29  O   UNL     1     -45.581  60.441 -58.266  1.00  0.00    -0.267 OA
HETATM   30  C   UNL     1     -42.117  58.676 -55.396  1.00  0.00     0.143 C 
BRANCH  27  31
HETATM   31  C   UNL     1     -43.448  60.569 -59.144  1.00  0.00     0.038 A 
HETATM   32  C   UNL     1     -43.030  59.598 -60.070  1.00  0.00    -0.046 A 
HETATM   33  C   UNL     1     -43.543  58.187 -60.061  1.00  0.00     0.049 C 
HETATM   34  C   UNL     1     -42.107  59.979 -61.057  1.00  0.00     0.007 A 
HETATM   35  C   UNL     1     -41.585  61.275 -61.087  1.00  0.00     0.001 A 
HETATM   36  C   UNL     1     -41.982  62.215 -60.137  1.00  0.00     0.001 A 
HETATM   37  C   UNL     1     -42.913  61.864 -59.163  1.00  0.00     0.017 A 
ENDBRANCH  27  31
ENDBRANCH   1  23
TORSDOF 7
ENDMDL
MODEL 7
REMARK VINA RESULT:      -7.7      3.085      4.730
REMARK  7 active torsions:
REMARK  status: ('A' for Active; 'I' for Inactive)
REMARK    1  A    between atoms: C_3  and  C_4 
REMARK       I    between atoms: C_4  and  N_5 
REMARK    2  A    between atoms: N_8  and  C_9 
REMARK    3  A    between atoms: C_12  and  N_13 
REMARK    4  A    between atoms: N_13  and  C_14 
REMARK    5  A    between atoms: C_14  and  N_15 
REMARK       I    between atoms: N_15  and  C_16 
REMARK    6  A    between atoms: C_16  and  C_17 
REMARK    7  A    between atoms: C_18  and  O_19 
ROOT
HETATM    1  C   UNL     1     -44.669  57.639 -56.894  1.00  0.00     0.030 A 
HETATM    2  C   UNL     1     -45.266  57.758 -55.629  1.00  0.00     0.031 A 
HETATM    3  C   UNL     1     -44.723  57.137 -54.489  1.00  0.00     0.032 A 
HETATM    4  C   UNL     1     -43.581  56.345 -54.594  1.00  0.00     0.034 A 
HETATM    5  C   UNL     1     -42.930  56.290 -55.821  1.00  0.00     0.032 A 
HETATM    6  C   UNL     1     -43.467  56.921 -56.948  1.00  0.00     0.031 A 
ENDROOT
BRANCH   4   7
HETATM    7  N   UNL     1     -43.118  55.669 -53.446  1.00  0.00    -0.333 N 
HETATM    8  H   UNL     1     -43.709  54.917 -53.094  1.00  0.00     0.168 HD
BRANCH   7   9
HETATM    9  C   UNL     1     -41.896  55.757 -52.818  1.00  0.00     0.179 C 
HETATM   10  S   UNL     1     -41.140  57.099 -52.156  1.00  0.00    -0.040 SA
BRANCH   9  11
HETATM   11  N   UNL     1     -41.187  54.577 -52.736  1.00  0.00    -0.299 N 
HETATM   12  C   UNL     1     -40.588  53.822 -53.732  1.00  0.00     0.260 C 
HETATM   13  O   UNL     1     -40.271  54.279 -54.828  1.00  0.00    -0.267 OA
HETATM   14  H   UNL     1     -41.298  54.124 -51.836  1.00  0.00     0.171 HD
BRANCH  12  15
HETATM   15  C   UNL     1     -40.236  52.418 -53.350  1.00  0.00     0.065 A 
HETATM   16  C   UNL     1     -39.795  52.059 -52.059  1.00  0.00     0.084 A 
HETATM   17  C   UNL     1     -39.466  50.725 -51.790  1.00  0.00     0.038 A 
HETATM   18  C   UNL     1     -39.596  49.752 -52.783  1.00  0.00     0.003 A 
HETATM   19  C   UNL     1     -40.054  50.100 -54.050  1.00  0.00     0.001 A 
HETATM   20  C   UNL     1     -40.377  51.428 -54.334  1.00  0.00     0.020 A 
BRANCH  16  21
HETATM   21  O   UNL     1     -39.670  53.059 -51.128  1.00  0.00    -0.355 OA
HETATM   22  C   UNL     1     -40.333  52.868 -49.881  1.00  0.00     0.210 C 
ENDBRANCH  16  21
ENDBRANCH  12  15
ENDBRANCH   9  11
ENDBRANCH   7   9
ENDBRANCH   4   7
BRANCH   1  23
HETATM   23  N   UNL     1     -45.301  58.136 -58.037  1.00  0.00    -0.378 N 
HETATM   24  C   UNL     1     -44.543  59.049 -58.917  1.00  0.00     0.143 C 
HETATM   25  C   UNL     1     -45.170  59.094 -60.315  1.00  0.00     0.146 C 
HETATM   26  N   UNL     1     -46.610  59.354 -60.302  1.00  0.00    -0.345 N 
HETATM   27  C   UNL     1     -47.146  59.896 -61.469  1.00  0.00     0.254 C 
HETATM   28  C   UNL     1     -47.383  58.580 -59.315  1.00  0.00     0.146 C 
HETATM   29  O   UNL     1     -46.472  60.407 -62.359  1.00  0.00    -0.267 OA
HETATM   30  C   UNL     1     -46.724  58.520 -57.918  1.00  0.00     0.143 C 
BRANCH  27  31
HETATM   31  C   UNL     1     -48.608  59.866 -61.665  1.00  0.00     0.038 A 
HETATM   32  C   UNL     1     -49.250  58.781 -62.287  1.00  0.00    -0.046 A 
HETATM   33  C   UNL     1     -48.518  57.553 -62.745  1.00  0.00     0.049 C 
HETATM   34  C   UNL     1     -50.641  58.850 -62.465  1.00  0.00     0.007 A 
HETATM   35  C   UNL     1     -51.357  59.985 -62.077  1.00  0.00     0.001 A 
HETATM   36  C   UNL     1     -50.699  61.067 -61.495  1.00  0.00     0.001 A 
HETATM   37  C   UNL     1     -49.323  61.011 -61.289  1.00  0.00     0.017 A 
ENDBRANCH  27  31
ENDBRANCH   1  23
TORSDOF 7
ENDMDL
MODEL 8
REMARK VINA RESULT:      -7.7      3.640     10.466
REMARK  7 active torsions:
REMARK  status: ('A' for Active; 'I' for Inactive)
REMARK    1  A    between atoms: C_3  and  C_4 
REMARK       I    between atoms: C_4  and  N_5 
REMARK    2  A    between atoms: N_8  and  C_9 
REMARK    3  A    between atoms: C_12  and  N_13 
REMARK    4  A    between atoms: N_13  and  C_14 
REMARK    5  A    between atoms: C_14  and  N_15 
REMARK       I    between atoms: N_15  and  C_16 
REMARK    6  A    between atoms: C_16  and  C_17 
REMARK    7  A    between atoms: C_18  and  O_19 
ROOT
HETATM    1  C   UNL     1     -43.169  57.720 -56.604  1.00  0.00     0.030 A 
HETATM    2  C   UNL     1     -44.120  58.753 -56.633  1.00  0.00     0.031 A 
HETATM    3  C   UNL     1     -44.149  59.708 -57.666  1.00  0.00     0.032 A 
HETATM    4  C   UNL     1     -43.198  59.675 -58.684  1.00  0.00     0.034 A 
HETATM    5  C   UNL     1     -42.307  58.608 -58.716  1.00  0.00     0.032 A 
HETATM    6  C   UNL     1     -42.292  57.654 -57.694  1.00  0.00     0.031 A 
ENDROOT
BRANCH   4   7
HETATM    7  N   UNL     1     -43.207  60.701 -59.652  1.00  0.00    -0.333 N 
HETATM    8  H   UNL     1     -42.851  61.608 -59.355  1.00  0.00     0.168 HD
BRANCH   7   9
HETATM    9  C   UNL     1     -43.470  60.621 -61.001  1.00  0.00     0.179 C 
HETATM   10  S   UNL     1     -42.611  61.270 -62.287  1.00  0.00    -0.040 SA
BRANCH   9  11
HETATM   11  N   UNL     1     -44.608  59.922 -61.342  1.00  0.00    -0.299 N 
HETATM   12  C   UNL     1     -45.898  60.014 -60.843  1.00  0.00     0.260 C 
HETATM   13  O   UNL     1     -46.327  61.006 -60.260  1.00  0.00    -0.267 OA
HETATM   14  H   UNL     1     -44.402  59.103 -61.904  1.00  0.00     0.171 HD
BRANCH  12  15
HETATM   15  C   UNL     1     -46.794  58.857 -61.162  1.00  0.00     0.065 A 
HETATM   16  C   UNL     1     -46.599  57.564 -60.633  1.00  0.00     0.084 A 
HETATM   17  C   UNL     1     -47.472  56.532 -60.999  1.00  0.00     0.038 A 
HETATM   18  C   UNL     1     -48.541  56.783 -61.861  1.00  0.00     0.003 A 
HETATM   19  C   UNL     1     -48.748  58.064 -62.365  1.00  0.00     0.001 A 
HETATM   20  C   UNL     1     -47.881  59.100 -62.015  1.00  0.00     0.020 A 
BRANCH  16  21
HETATM   21  O   UNL     1     -45.523  57.370 -59.804  1.00  0.00    -0.355 OA
HETATM   22  C   UNL     1     -44.912  56.083 -59.829  1.00  0.00     0.210 C 
ENDBRANCH  16  21
ENDBRANCH  12  15
ENDBRANCH   9  11
ENDBRANCH   7   9
ENDBRANCH   4   7
BRANCH   1  23
HETATM   23  N   UNL     1     -43.062  56.873 -55.498  1.00  0.00    -0.378 N 
HETATM   24  C   UNL     1     -44.296  56.276 -54.948  1.00  0.00     0.143 C 
HETATM   25  C   UNL     1     -43.968  55.040 -54.105  1.00  0.00     0.146 C 
HETATM   26  N   UNL     1     -42.934  55.277 -53.097  1.00  0.00    -0.345 N 
HETATM   27  C   UNL     1     -42.932  54.413 -52.004  1.00  0.00     0.254 C 
HETATM   28  C   UNL     1     -41.753  56.020 -53.568  1.00  0.00     0.146 C 
HETATM   29  O   UNL     1     -43.874  53.681 -51.708  1.00  0.00    -0.267 OA
HETATM   30  C   UNL     1     -42.098  57.249 -54.441  1.00  0.00     0.143 C 
BRANCH  27  31
HETATM   31  C   UNL     1     -41.741  54.359 -51.136  1.00  0.00     0.038 A 
HETATM   32  C   UNL     1     -40.630  53.558 -51.452  1.00  0.00    -0.046 A 
HETATM   33  C   UNL     1     -40.540  52.747 -52.712  1.00  0.00     0.049 C 
HETATM   34  C   UNL     1     -39.552  53.539 -50.553  1.00  0.00     0.007 A 
HETATM   35  C   UNL     1     -39.604  54.260 -49.357  1.00  0.00     0.001 A 
HETATM   36  C   UNL     1     -40.729  55.019 -49.041  1.00  0.00     0.001 A 
HETATM   37  C   UNL     1     -41.801  55.070 -49.930  1.00  0.00     0.017 A 
ENDBRANCH  27  31
ENDBRANCH   1  23
TORSDOF 7
ENDMDL
MODEL 9
REMARK VINA RESULT:      -7.7      6.229      9.119
REMARK  7 active torsions:
REMARK  status: ('A' for Active; 'I' for Inactive)
REMARK    1  A    between atoms: C_3  and  C_4 
REMARK       I    between atoms: C_4  and  N_5 
REMARK    2  A    between atoms: N_8  and  C_9 
REMARK    3  A    between atoms: C_12  and  N_13 
REMARK    4  A    between atoms: N_13  and  C_14 
REMARK    5  A    between atoms: C_14  and  N_15 
REMARK       I    between atoms: N_15  and  C_16 
REMARK    6  A    between atoms: C_16  and  C_17 
REMARK    7  A    between atoms: C_18  and  O_19 
ROOT
HETATM    1  C   UNL     1     -44.029  59.662 -52.674  1.00  0.00     0.030 A 
HETATM    2  C   UNL     1     -44.736  58.452 -52.590  1.00  0.00     0.031 A 
HETATM    3  C   UNL     1     -44.723  57.509 -53.634  1.00  0.00     0.032 A 
HETATM    4  C   UNL     1     -44.027  57.771 -54.812  1.00  0.00     0.034 A 
HETATM    5  C   UNL     1     -43.251  58.923 -54.875  1.00  0.00     0.032 A 
HETATM    6  C   UNL     1     -43.258  59.851 -53.828  1.00  0.00     0.031 A 
ENDROOT
BRANCH   4   7
HETATM    7  N   UNL     1     -44.110  56.840 -55.869  1.00  0.00    -0.333 N 
HETATM    8  H   UNL     1     -45.037  56.685 -56.265  1.00  0.00     0.168 HD
BRANCH   7   9
HETATM    9  C   UNL     1     -43.096  56.227 -56.570  1.00  0.00     0.179 C 
HETATM   10  S   UNL     1     -42.667  56.401 -58.181  1.00  0.00    -0.040 SA
BRANCH   9  11
HETATM   11  N   UNL     1     -42.337  55.331 -55.848  1.00  0.00    -0.299 N 
HETATM   12  C   UNL     1     -42.701  54.149 -55.221  1.00  0.00     0.260 C 
HETATM   13  O   UNL     1     -43.705  53.507 -55.522  1.00  0.00    -0.267 OA
HETATM   14  H   UNL     1     -41.431  55.711 -55.596  1.00  0.00     0.171 HD
BRANCH  12  15
HETATM   15  C   UNL     1     -41.722  53.627 -54.215  1.00  0.00     0.065 A 
HETATM   16  C   UNL     1     -41.484  54.256 -52.975  1.00  0.00     0.084 A 
HETATM   17  C   UNL     1     -40.537  53.714 -52.099  1.00  0.00     0.038 A 
HETATM   18  C   UNL     1     -39.848  52.546 -52.437  1.00  0.00     0.003 A 
HETATM   19  C   UNL     1     -40.100  51.911 -53.650  1.00  0.00     0.001 A 
HETATM   20  C   UNL     1     -41.037  52.446 -54.536  1.00  0.00     0.020 A 
BRANCH  16  21
HETATM   21  O   UNL     1     -42.176  55.409 -52.702  1.00  0.00    -0.355 OA
HETATM   22  C   UNL     1     -41.910  56.043 -51.454  1.00  0.00     0.210 C 
ENDBRANCH  16  21
ENDBRANCH  12  15
ENDBRANCH   9  11
ENDBRANCH   7   9
ENDBRANCH   4   7
BRANCH   1  23
HETATM   23  N   UNL     1     -44.174  60.648 -51.695  1.00  0.00    -0.378 N 
HETATM   24  C   UNL     1     -43.038  61.559 -51.443  1.00  0.00     0.143 C 
HETATM   25  C   UNL     1     -43.515  62.834 -50.739  1.00  0.00     0.146 C 
HETATM   26  N   UNL     1     -44.333  62.575 -49.553  1.00  0.00    -0.345 N 
HETATM   27  C   UNL     1     -44.380  63.597 -48.606  1.00  0.00     0.254 C 
HETATM   28  C   UNL     1     -45.374  61.547 -49.716  1.00  0.00     0.146 C 
HETATM   29  O   UNL     1     -43.590  64.538 -48.574  1.00  0.00    -0.267 OA
HETATM   30  C   UNL     1     -44.886  60.279 -50.453  1.00  0.00     0.143 C 
BRANCH  27  31
HETATM   31  C   UNL     1     -45.430  63.565 -47.571  1.00  0.00     0.038 A 
HETATM   32  C   UNL     1     -46.694  64.143 -47.781  1.00  0.00    -0.046 A 
HETATM   33  C   UNL     1     -47.095  64.782 -49.080  1.00  0.00     0.049 C 
HETATM   34  C   UNL     1     -47.625  64.099 -46.730  1.00  0.00     0.007 A 
HETATM   35  C   UNL     1     -47.285  63.537 -45.497  1.00  0.00     0.001 A 
HETATM   36  C   UNL     1     -46.014  63.001 -45.294  1.00  0.00     0.001 A 
HETATM   37  C   UNL     1     -45.084  63.015 -46.330  1.00  0.00     0.017 A 
ENDBRANCH  27  31
ENDBRANCH   1  23
TORSDOF 7
ENDMDL
MODEL 10
REMARK VINA RESULT:      -7.7      3.202      9.533
REMARK  7 active torsions:
REMARK  status: ('A' for Active; 'I' for Inactive)
REMARK    1  A    between atoms: C_3  and  C_4 
REMARK       I    between atoms: C_4  and  N_5 
REMARK    2  A    between atoms: N_8  and  C_9 
REMARK    3  A    between atoms: C_12  and  N_13 
REMARK    4  A    between atoms: N_13  and  C_14 
REMARK    5  A    between atoms: C_14  and  N_15 
REMARK       I    between atoms: N_15  and  C_16 
REMARK    6  A    between atoms: C_16  and  C_17 
REMARK    7  A    between atoms: C_18  and  O_19 
ROOT
HETATM    1  C   UNL     1     -43.331  57.141 -53.994  1.00  0.00     0.030 A 
HETATM    2  C   UNL     1     -44.620  56.862 -54.473  1.00  0.00     0.031 A 
HETATM    3  C   UNL     1     -45.472  57.874 -54.951  1.00  0.00     0.032 A 
HETATM    4  C   UNL     1     -45.065  59.207 -54.927  1.00  0.00     0.034 A 
HETATM    5  C   UNL     1     -43.760  59.489 -54.539  1.00  0.00     0.032 A 
HETATM    6  C   UNL     1     -42.914  58.475 -54.078  1.00  0.00     0.031 A 
ENDROOT
BRANCH   4   7
HETATM    7  N   UNL     1     -45.980  60.201 -55.333  1.00  0.00    -0.333 N 
HETATM    8  H   UNL     1     -46.777  60.362 -54.718  1.00  0.00     0.168 HD
BRANCH   7   9
HETATM    9  C   UNL     1     -45.874  61.116 -56.357  1.00  0.00     0.179 C 
HETATM   10  S   UNL     1     -46.542  62.649 -56.480  1.00  0.00    -0.040 SA
BRANCH   9  11
HETATM   11  N   UNL     1     -45.125  60.707 -57.440  1.00  0.00    -0.299 N 
HETATM   12  C   UNL     1     -45.249  59.583 -58.241  1.00  0.00     0.260 C 
HETATM   13  O   UNL     1     -46.291  58.940 -58.346  1.00  0.00    -0.267 OA
HETATM   14  H   UNL     1     -44.254  61.221 -57.521  1.00  0.00     0.171 HD
BRANCH  12  15
HETATM   15  C   UNL     1     -44.051  59.255 -59.078  1.00  0.00     0.065 A 
HETATM   16  C   UNL     1     -43.208  58.155 -58.817  1.00  0.00     0.084 A 
HETATM   17  C   UNL     1     -42.096  57.930 -59.636  1.00  0.00     0.038 A 
HETATM   18  C   UNL     1     -41.834  58.773 -60.719  1.00  0.00     0.003 A 
HETATM   19  C   UNL     1     -42.680  59.845 -60.992  1.00  0.00     0.001 A 
HETATM   20  C   UNL     1     -43.787  60.085 -60.177  1.00  0.00     0.020 A 
BRANCH  16  21
HETATM   21  O   UNL     1     -43.502  57.370 -57.730  1.00  0.00    -0.355 OA
HETATM   22  C   UNL     1     -43.071  56.012 -57.777  1.00  0.00     0.210 C 
ENDBRANCH  16  21
ENDBRANCH  12  15
ENDBRANCH   9  11
ENDBRANCH   7   9
ENDBRANCH   4   7
BRANCH   1  23
HETATM   23  N   UNL     1     -42.558  56.147 -53.388  1.00  0.00    -0.378 N 
HETATM   24  C   UNL     1     -41.538  56.556 -52.400  1.00  0.00     0.143 C 
HETATM   25  C   UNL     1     -41.154  55.375 -51.502  1.00  0.00     0.146 C 
HETATM   26  N   UNL     1     -40.797  54.166 -52.246  1.00  0.00    -0.345 N 
HETATM   27  C   UNL     1     -39.984  53.252 -51.579  1.00  0.00     0.254 C 
HETATM   28  C   UNL     1     -41.703  53.816 -53.353  1.00  0.00     0.146 C 
HETATM   29  O   UNL     1     -39.347  53.518 -50.562  1.00  0.00    -0.267 OA
HETATM   30  C   UNL     1     -42.105  55.022 -54.233  1.00  0.00     0.143 C 
BRANCH  27  31
HETATM   31  C   UNL     1     -39.864  51.881 -52.109  1.00  0.00     0.038 A 
HETATM   32  C   UNL     1     -39.981  50.754 -51.278  1.00  0.00    -0.046 A 
HETATM   33  C   UNL     1     -40.291  50.848 -49.812  1.00  0.00     0.049 C 
HETATM   34  C   UNL     1     -39.819  49.485 -51.858  1.00  0.00     0.007 A 
HETATM   35  C   UNL     1     -39.505  49.353 -53.213  1.00  0.00     0.001 A 
HETATM   36  C   UNL     1     -39.356  50.483 -54.015  1.00  0.00     0.001 A 
HETATM   37  C   UNL     1     -39.534  51.750 -53.464  1.00  0.00     0.017 A 
ENDBRANCH  27  31
ENDBRANCH   1  23
TORSDOF 7
ENDMDL
