MODEL 1
REMARK VINA RESULT:      -7.5      0.000      0.000
REMARK  11 active torsions:
REMARK  status: ('A' for Active; 'I' for Inactive)
REMARK    1  A    between atoms: O_2  and  C_3 
REMARK    2  A    between atoms: C_3  and  C_4 
REMARK    3  A    between atoms: C_4  and  C_5 
REMARK    4  A    between atoms: C_5  and  O_6 
REMARK    5  A    between atoms: O_6  and  C_7 
REMARK    6  A    between atoms: C_7  and  C_9 
REMARK    7  A    between atoms: C_13  and  C_15 
REMARK    8  A    between atoms: C_17  and  C_23 
REMARK    9  A    between atoms: C_20  and  C_21 
REMARK   10  A    between atoms: C_21  and  N_22 
REMARK       I    between atoms: C_23  and  N_25 
REMARK   11  A    between atoms: N_25  and  C_26 
ROOT
HETATM    1  C   UNL     1     -41.369  57.027 -52.196  1.00  0.00    -0.017 A 
HETATM    2  C   UNL     1     -42.126  56.726 -53.348  1.00  0.00     0.030 A 
HETATM    3  C   UNL     1     -42.334  57.678 -54.355  1.00  0.00     0.033 A 
HETATM    4  C   UNL     1     -41.785  58.951 -54.221  1.00  0.00     0.017 A 
HETATM    5  C   UNL     1     -41.038  59.268 -53.087  1.00  0.00     0.011 A 
HETATM    6  C   UNL     1     -40.806  58.316 -52.072  1.00  0.00    -0.020 A 
ENDROOT
BRANCH   1   7
HETATM    7  C   UNL     1     -41.159  55.955 -51.209  1.00  0.00    -0.024 A 
HETATM    8  C   UNL     1     -41.436  56.143 -49.847  1.00  0.00     0.012 A 
HETATM    9  C   UNL     1     -41.242  55.107 -48.928  1.00  0.00     0.002 A 
HETATM   10  C   UNL     1     -40.782  53.863 -49.362  1.00  0.00     0.017 A 
HETATM   11  C   UNL     1     -40.515  53.647 -50.718  1.00  0.00     0.040 A 
HETATM   12  C   UNL     1     -40.699  54.696 -51.631  1.00  0.00     0.030 A 
BRANCH  11  13
HETATM   13  C   UNL     1     -40.029  52.308 -51.150  1.00  0.00     0.293 C 
HETATM   14  O   UNL     1     -40.153  51.294 -50.484  1.00  0.00    -0.259 OA
BRANCH  13  15
HETATM   15  O   UNL     1     -39.448  52.404 -52.370  1.00  0.00    -0.317 OA
BRANCH  15  16
HETATM   16  C   UNL     1     -39.774  51.386 -53.329  1.00  0.00     0.181 C 
BRANCH  16  17
HETATM   17  C   UNL     1     -40.563  51.974 -54.495  1.00  0.00     0.053 C 
BRANCH  17  18
HETATM   18  C   UNL     1     -40.203  53.435 -54.733  1.00  0.00     0.169 C 
BRANCH  18  19
HETATM   19  O   UNL     1     -41.244  54.070 -55.469  1.00  0.00    -0.396 OA
HETATM   20  C   UNL     1     -42.529  53.747 -54.952  1.00  0.00     0.201 C 
ENDBRANCH  18  19
ENDBRANCH  17  18
ENDBRANCH  16  17
ENDBRANCH  15  16
ENDBRANCH  13  15
ENDBRANCH  11  13
ENDBRANCH   1   7
BRANCH   6  21
HETATM   21  C   UNL     1     -39.913  58.725 -50.920  1.00  0.00     0.306 C 
BRANCH  21  22
HETATM   22  N   UNL     1     -40.582  59.674 -50.038  1.00  0.00     0.082 N 
HETATM   23  H   UNL     1     -41.255  59.173 -49.461  1.00  0.00     0.313 HD
HETATM   24  H   UNL     1     -39.896  60.070 -49.398  1.00  0.00     0.313 HD
ENDBRANCH  21  22
ENDBRANCH   6  21
BRANCH   3  25
HETATM   25  C   UNL     1     -43.062  57.334 -55.609  1.00  0.00     0.256 C 
HETATM   26  O   UNL     1     -44.281  57.463 -55.629  1.00  0.00    -0.267 OA
HETATM   27  N   UNL     1     -42.264  56.876 -56.644  1.00  0.00    -0.323 N 
HETATM   28  H   UNL     1     -41.304  56.649 -56.417  1.00  0.00     0.169 HD
BRANCH  27  29
HETATM   29  C   UNL     1     -42.663  56.630 -57.976  1.00  0.00     0.037 A 
HETATM   30  C   UNL     1     -43.382  55.508 -58.375  1.00  0.00     0.049 A 
HETATM   31  C   UNL     1     -43.741  55.393 -59.709  1.00  0.00     0.118 A 
HETATM   32  N   UNL     1     -43.437  56.308 -60.654  1.00  0.00    -0.273 NA
HETATM   33  C   UNL     1     -42.739  57.385 -60.244  1.00  0.00     0.118 A 
HETATM   34  C   UNL     1     -42.338  57.591 -58.933  1.00  0.00     0.049 A 
ENDBRANCH  27  29
ENDBRANCH   3  25
TORSDOF 11
ENDMDL
MODEL 2
REMARK VINA RESULT:      -7.2      2.820      7.114
REMARK  11 active torsions:
REMARK  status: ('A' for Active; 'I' for Inactive)
REMARK    1  A    between atoms: O_2  and  C_3 
REMARK    2  A    between atoms: C_3  and  C_4 
REMARK    3  A    between atoms: C_4  and  C_5 
REMARK    4  A    between atoms: C_5  and  O_6 
REMARK    5  A    between atoms: O_6  and  C_7 
REMARK    6  A    between atoms: C_7  and  C_9 
REMARK    7  A    between atoms: C_13  and  C_15 
REMARK    8  A    between atoms: C_17  and  C_23 
REMARK    9  A    between atoms: C_20  and  C_21 
REMARK   10  A    between atoms: C_21  and  N_22 
REMARK       I    between atoms: C_23  and  N_25 
REMARK   11  A    between atoms: N_25  and  C_26 
ROOT
HETATM    1  C   UNL     1     -42.165  57.628 -52.708  1.00  0.00    -0.017 A 
HETATM    2  C   UNL     1     -42.062  56.222 -52.770  1.00  0.00     0.030 A 
HETATM    3  C   UNL     1     -41.442  55.489 -51.750  1.00  0.00     0.033 A 
HETATM    4  C   UNL     1     -40.912  56.158 -50.648  1.00  0.00     0.017 A 
HETATM    5  C   UNL     1     -40.999  57.548 -50.572  1.00  0.00     0.011 A 
HETATM    6  C   UNL     1     -41.635  58.299 -51.583  1.00  0.00    -0.020 A 
ENDROOT
BRANCH   1   7
HETATM    7  C   UNL     1     -42.874  58.318 -53.799  1.00  0.00    -0.024 A 
HETATM    8  C   UNL     1     -44.238  58.630 -53.710  1.00  0.00     0.012 A 
HETATM    9  C   UNL     1     -44.889  59.296 -54.752  1.00  0.00     0.002 A 
HETATM   10  C   UNL     1     -44.179  59.674 -55.893  1.00  0.00     0.017 A 
HETATM   11  C   UNL     1     -42.813  59.389 -55.997  1.00  0.00     0.040 A 
HETATM   12  C   UNL     1     -42.172  58.707 -54.952  1.00  0.00     0.030 A 
BRANCH  11  13
HETATM   13  C   UNL     1     -42.083  59.809 -57.225  1.00  0.00     0.293 C 
HETATM   14  O   UNL     1     -41.160  60.605 -57.226  1.00  0.00    -0.259 OA
BRANCH  13  15
HETATM   15  O   UNL     1     -42.600  59.173 -58.303  1.00  0.00    -0.317 OA
BRANCH  15  16
HETATM   16  C   UNL     1     -41.895  58.014 -58.776  1.00  0.00     0.181 C 
BRANCH  16  17
HETATM   17  C   UNL     1     -42.328  57.660 -60.195  1.00  0.00     0.053 C 
BRANCH  17  18
HETATM   18  C   UNL     1     -43.788  57.227 -60.242  1.00  0.00     0.169 C 
BRANCH  18  19
HETATM   19  O   UNL     1     -43.895  55.980 -60.923  1.00  0.00    -0.396 OA
HETATM   20  C   UNL     1     -44.426  54.964 -60.083  1.00  0.00     0.201 C 
ENDBRANCH  18  19
ENDBRANCH  17  18
ENDBRANCH  16  17
ENDBRANCH  15  16
ENDBRANCH  13  15
ENDBRANCH  11  13
ENDBRANCH   1   7
BRANCH   6  21
HETATM   21  C   UNL     1     -41.756  59.793 -51.373  1.00  0.00     0.306 C 
BRANCH  21  22
HETATM   22  N   UNL     1     -42.662  60.104 -50.273  1.00  0.00     0.082 N 
HETATM   23  H   UNL     1     -43.024  59.235 -49.885  1.00  0.00     0.313 HD
HETATM   24  H   UNL     1     -42.132  60.551 -49.527  1.00  0.00     0.313 HD
ENDBRANCH  21  22
ENDBRANCH   6  21
BRANCH   3  25
HETATM   25  C   UNL     1     -41.408  54.000 -51.775  1.00  0.00     0.256 C 
HETATM   26  O   UNL     1     -42.382  53.389 -51.351  1.00  0.00    -0.267 OA
HETATM   27  N   UNL     1     -40.240  53.447 -52.271  1.00  0.00    -0.323 N 
HETATM   28  H   UNL     1     -39.457  54.074 -52.408  1.00  0.00     0.169 HD
BRANCH  27  29
HETATM   29  C   UNL     1     -40.000  52.084 -52.552  1.00  0.00     0.037 A 
HETATM   30  C   UNL     1     -39.640  51.147 -51.589  1.00  0.00     0.049 A 
HETATM   31  C   UNL     1     -39.461  49.830 -51.983  1.00  0.00     0.118 A 
HETATM   32  N   UNL     1     -39.614  49.394 -53.253  1.00  0.00    -0.273 NA
HETATM   33  C   UNL     1     -39.961  50.321 -54.167  1.00  0.00     0.118 A 
HETATM   34  C   UNL     1     -40.167  51.659 -53.870  1.00  0.00     0.049 A 
ENDBRANCH  27  29
ENDBRANCH   3  25
TORSDOF 11
ENDMDL
MODEL 3
REMARK VINA RESULT:      -7.1      3.112      7.949
REMARK  11 active torsions:
REMARK  status: ('A' for Active; 'I' for Inactive)
REMARK    1  A    between atoms: O_2  and  C_3 
REMARK    2  A    between atoms: C_3  and  C_4 
REMARK    3  A    between atoms: C_4  and  C_5 
REMARK    4  A    between atoms: C_5  and  O_6 
REMARK    5  A    between atoms: O_6  and  C_7 
REMARK    6  A    between atoms: C_7  and  C_9 
REMARK    7  A    between atoms: C_13  and  C_15 
REMARK    8  A    between atoms: C_17  and  C_23 
REMARK    9  A    between atoms: C_20  and  C_21 
REMARK   10  A    between atoms: C_21  and  N_22 
REMARK       I    between atoms: C_23  and  N_25 
REMARK   11  A    between atoms: N_25  and  C_26 
ROOT
HETATM    1  C   UNL     1     -42.223  56.929 -55.999  1.00  0.00    -0.017 A 
HETATM    2  C   UNL     1     -42.008  55.660 -55.421  1.00  0.00     0.030 A 
HETATM    3  C   UNL     1     -41.772  55.513 -54.047  1.00  0.00     0.033 A 
HETATM    4  C   UNL     1     -41.748  56.641 -53.230  1.00  0.00     0.017 A 
HETATM    5  C   UNL     1     -41.954  57.904 -53.785  1.00  0.00     0.011 A 
HETATM    6  C   UNL     1     -42.209  58.067 -55.162  1.00  0.00    -0.020 A 
ENDROOT
BRANCH   1   7
HETATM    7  C   UNL     1     -42.511  56.990 -57.441  1.00  0.00    -0.024 A 
HETATM    8  C   UNL     1     -41.917  57.953 -58.271  1.00  0.00     0.012 A 
HETATM    9  C   UNL     1     -42.194  57.985 -59.641  1.00  0.00     0.002 A 
HETATM   10  C   UNL     1     -43.058  57.044 -60.203  1.00  0.00     0.017 A 
HETATM   11  C   UNL     1     -43.648  56.064 -59.399  1.00  0.00     0.040 A 
HETATM   12  C   UNL     1     -43.376  56.048 -58.023  1.00  0.00     0.030 A 
BRANCH  11  13
HETATM   13  C   UNL     1     -44.563  55.073 -60.029  1.00  0.00     0.293 C 
HETATM   14  O   UNL     1     -44.689  53.924 -59.641  1.00  0.00    -0.259 OA
BRANCH  13  15
HETATM   15  O   UNL     1     -45.212  55.647 -61.070  1.00  0.00    -0.317 OA
BRANCH  15  16
HETATM   16  C   UNL     1     -46.613  55.911 -60.899  1.00  0.00     0.181 C 
BRANCH  16  17
HETATM   17  C   UNL     1     -46.849  56.824 -59.701  1.00  0.00     0.053 C 
BRANCH  17  18
HETATM   18  C   UNL     1     -46.705  58.293 -60.080  1.00  0.00     0.169 C 
BRANCH  18  19
HETATM   19  O   UNL     1     -47.228  59.110 -59.037  1.00  0.00    -0.396 OA
HETATM   20  C   UNL     1     -47.268  58.420 -57.795  1.00  0.00     0.201 C 
ENDBRANCH  18  19
ENDBRANCH  17  18
ENDBRANCH  16  17
ENDBRANCH  15  16
ENDBRANCH  13  15
ENDBRANCH  11  13
ENDBRANCH   1   7
BRANCH   6  21
HETATM   21  C   UNL     1     -42.505  59.466 -55.659  1.00  0.00     0.306 C 
BRANCH  21  22
HETATM   22  N   UNL     1     -41.982  60.477 -54.746  1.00  0.00     0.082 N 
HETATM   23  H   UNL     1     -42.761  60.973 -54.319  1.00  0.00     0.313 HD
HETATM   24  H   UNL     1     -41.488  60.012 -53.987  1.00  0.00     0.313 HD
ENDBRANCH  21  22
ENDBRANCH   6  21
BRANCH   3  25
HETATM   25  C   UNL     1     -41.628  54.167 -53.424  1.00  0.00     0.256 C 
HETATM   26  O   UNL     1     -42.520  53.769 -52.686  1.00  0.00    -0.267 OA
HETATM   27  N   UNL     1     -40.458  53.497 -53.740  1.00  0.00    -0.323 N 
HETATM   28  H   UNL     1     -39.737  54.028 -54.210  1.00  0.00     0.169 HD
BRANCH  27  29
HETATM   29  C   UNL     1     -40.136  52.160 -53.421  1.00  0.00     0.037 A 
HETATM   30  C   UNL     1     -39.733  51.740 -52.157  1.00  0.00     0.049 A 
HETATM   31  C   UNL     1     -39.472  50.393 -51.959  1.00  0.00     0.118 A 
HETATM   32  N   UNL     1     -39.585  49.453 -52.923  1.00  0.00    -0.273 NA
HETATM   33  C   UNL     1     -39.975  49.884 -54.138  1.00  0.00     0.118 A 
HETATM   34  C   UNL     1     -40.263  51.207 -54.433  1.00  0.00     0.049 A 
ENDBRANCH  27  29
ENDBRANCH   3  25
TORSDOF 11
ENDMDL
MODEL 4
REMARK VINA RESULT:      -6.8      3.098      7.583
REMARK  11 active torsions:
REMARK  status: ('A' for Active; 'I' for Inactive)
REMARK    1  A    between atoms: O_2  and  C_3 
REMARK    2  A    between atoms: C_3  and  C_4 
REMARK    3  A    between atoms: C_4  and  C_5 
REMARK    4  A    between atoms: C_5  and  O_6 
REMARK    5  A    between atoms: O_6  and  C_7 
REMARK    6  A    between atoms: C_7  and  C_9 
REMARK    7  A    between atoms: C_13  and  C_15 
REMARK    8  A    between atoms: C_17  and  C_23 
REMARK    9  A    between atoms: C_20  and  C_21 
REMARK   10  A    between atoms: C_21  and  N_22 
REMARK       I    between atoms: C_23  and  N_25 
REMARK   11  A    between atoms: N_25  and  C_26 
ROOT
HETATM    1  C   UNL     1     -42.920  57.611 -54.579  1.00  0.00    -0.017 A 
HETATM    2  C   UNL     1     -42.400  56.371 -54.151  1.00  0.00     0.030 A 
HETATM    3  C   UNL     1     -42.687  55.857 -52.879  1.00  0.00     0.033 A 
HETATM    4  C   UNL     1     -43.504  56.581 -52.014  1.00  0.00     0.017 A 
HETATM    5  C   UNL     1     -44.023  57.811 -52.418  1.00  0.00     0.011 A 
HETATM    6  C   UNL     1     -43.756  58.335 -53.700  1.00  0.00    -0.020 A 
ENDROOT
BRANCH   1   7
HETATM    7  C   UNL     1     -42.607  58.056 -55.946  1.00  0.00    -0.024 A 
HETATM    8  C   UNL     1     -42.127  59.347 -56.210  1.00  0.00     0.012 A 
HETATM    9  C   UNL     1     -41.824  59.745 -57.515  1.00  0.00     0.002 A 
HETATM   10  C   UNL     1     -41.982  58.850 -58.575  1.00  0.00     0.017 A 
HETATM   11  C   UNL     1     -42.442  57.552 -58.334  1.00  0.00     0.040 A 
HETATM   12  C   UNL     1     -42.758  57.166 -57.023  1.00  0.00     0.030 A 
BRANCH  11  13
HETATM   13  C   UNL     1     -42.597  56.620 -59.485  1.00  0.00     0.293 C 
HETATM   14  O   UNL     1     -41.867  56.621 -60.462  1.00  0.00    -0.259 OA
BRANCH  13  15
HETATM   15  O   UNL     1     -43.648  55.795 -59.267  1.00  0.00    -0.317 OA
BRANCH  15  16
HETATM   16  C   UNL     1     -44.618  55.682 -60.320  1.00  0.00     0.181 C 
BRANCH  16  17
HETATM   17  C   UNL     1     -45.474  56.942 -60.405  1.00  0.00     0.053 C 
BRANCH  17  18
HETATM   18  C   UNL     1     -46.786  56.778 -59.648  1.00  0.00     0.169 C 
BRANCH  18  19
HETATM   19  O   UNL     1     -47.726  56.085 -60.464  1.00  0.00    -0.396 OA
HETATM   20  C   UNL     1     -47.928  56.740 -61.709  1.00  0.00     0.201 C 
ENDBRANCH  18  19
ENDBRANCH  17  18
ENDBRANCH  16  17
ENDBRANCH  15  16
ENDBRANCH  13  15
ENDBRANCH  11  13
ENDBRANCH   1   7
BRANCH   6  21
HETATM   21  C   UNL     1     -44.432  59.635 -54.080  1.00  0.00     0.306 C 
BRANCH  21  22
HETATM   22  N   UNL     1     -45.710  59.397 -54.742  1.00  0.00     0.082 N 
HETATM   23  H   UNL     1     -46.358  60.140 -54.488  1.00  0.00     0.313 HD
HETATM   24  H   UNL     1     -45.578  59.465 -55.749  1.00  0.00     0.313 HD
ENDBRANCH  21  22
ENDBRANCH   6  21
BRANCH   3  25
HETATM   25  C   UNL     1     -42.207  54.510 -52.460  1.00  0.00     0.256 C 
HETATM   26  O   UNL     1     -42.815  53.926 -51.571  1.00  0.00    -0.267 OA
HETATM   27  N   UNL     1     -41.082  54.055 -53.125  1.00  0.00    -0.323 N 
HETATM   28  H   UNL     1     -40.585  54.725 -53.699  1.00  0.00     0.169 HD
BRANCH  27  29
HETATM   29  C   UNL     1     -40.511  52.766 -53.042  1.00  0.00     0.037 A 
HETATM   30  C   UNL     1     -39.924  52.252 -51.890  1.00  0.00     0.049 A 
HETATM   31  C   UNL     1     -39.424  50.960 -51.923  1.00  0.00     0.118 A 
HETATM   32  N   UNL     1     -39.470  50.160 -53.011  1.00  0.00    -0.273 NA
HETATM   33  C   UNL     1     -40.041  50.681 -54.114  1.00  0.00     0.118 A 
HETATM   34  C   UNL     1     -40.573  51.960 -54.178  1.00  0.00     0.049 A 
ENDBRANCH  27  29
ENDBRANCH   3  25
TORSDOF 11
ENDMDL
MODEL 5
REMARK VINA RESULT:      -6.8      3.617      8.690
REMARK  11 active torsions:
REMARK  status: ('A' for Active; 'I' for Inactive)
REMARK    1  A    between atoms: O_2  and  C_3 
REMARK    2  A    between atoms: C_3  and  C_4 
REMARK    3  A    between atoms: C_4  and  C_5 
REMARK    4  A    between atoms: C_5  and  O_6 
REMARK    5  A    between atoms: O_6  and  C_7 
REMARK    6  A    between atoms: C_7  and  C_9 
REMARK    7  A    between atoms: C_13  and  C_15 
REMARK    8  A    between atoms: C_17  and  C_23 
REMARK    9  A    between atoms: C_20  and  C_21 
REMARK   10  A    between atoms: C_21  and  N_22 
REMARK       I    between atoms: C_23  and  N_25 
REMARK   11  A    between atoms: N_25  and  C_26 
ROOT
HETATM    1  C   UNL     1     -43.621  56.921 -56.222  1.00  0.00    -0.017 A 
HETATM    2  C   UNL     1     -43.040  55.862 -55.492  1.00  0.00     0.030 A 
HETATM    3  C   UNL     1     -43.206  55.752 -54.105  1.00  0.00     0.033 A 
HETATM    4  C   UNL     1     -43.959  56.707 -53.426  1.00  0.00     0.017 A 
HETATM    5  C   UNL     1     -44.536  57.764 -54.129  1.00  0.00     0.011 A 
HETATM    6  C   UNL     1     -44.393  57.880 -55.528  1.00  0.00    -0.020 A 
ENDROOT
BRANCH   1   7
HETATM    7  C   UNL     1     -43.438  56.936 -57.682  1.00  0.00    -0.024 A 
HETATM    8  C   UNL     1     -42.349  57.586 -58.282  1.00  0.00     0.012 A 
HETATM    9  C   UNL     1     -42.187  57.577 -59.671  1.00  0.00     0.002 A 
HETATM   10  C   UNL     1     -43.105  56.904 -60.479  1.00  0.00     0.017 A 
HETATM   11  C   UNL     1     -44.189  56.234 -59.902  1.00  0.00     0.040 A 
HETATM   12  C   UNL     1     -44.351  56.261 -58.508  1.00  0.00     0.030 A 
BRANCH  11  13
HETATM   13  C   UNL     1     -45.148  55.522 -60.790  1.00  0.00     0.293 C 
HETATM   14  O   UNL     1     -44.819  54.911 -61.793  1.00  0.00    -0.259 OA
BRANCH  13  15
HETATM   15  O   UNL     1     -46.406  55.661 -60.308  1.00  0.00    -0.317 OA
BRANCH  15  16
HETATM   16  C   UNL     1     -47.283  56.548 -61.019  1.00  0.00     0.181 C 
BRANCH  16  17
HETATM   17  C   UNL     1     -47.287  57.933 -60.379  1.00  0.00     0.053 C 
BRANCH  17  18
HETATM   18  C   UNL     1     -47.519  59.026 -61.414  1.00  0.00     0.169 C 
BRANCH  18  19
HETATM   19  O   UNL     1     -48.901  59.073 -61.759  1.00  0.00    -0.396 OA
HETATM   20  C   UNL     1     -49.116  59.759 -62.985  1.00  0.00     0.201 C 
ENDBRANCH  18  19
ENDBRANCH  17  18
ENDBRANCH  16  17
ENDBRANCH  15  16
ENDBRANCH  13  15
ENDBRANCH  11  13
ENDBRANCH   1   7
BRANCH   6  21
HETATM   21  C   UNL     1     -45.126  59.012 -56.216  1.00  0.00     0.306 C 
BRANCH  21  22
HETATM   22  N   UNL     1     -46.470  58.611 -56.616  1.00  0.00     0.082 N 
HETATM   23  H   UNL     1     -46.543  58.660 -57.630  1.00  0.00     0.313 HD
HETATM   24  H   UNL     1     -46.610  57.633 -56.366  1.00  0.00     0.313 HD
ENDBRANCH  21  22
ENDBRANCH   6  21
BRANCH   3  25
HETATM   25  C   UNL     1     -42.663  54.589 -53.349  1.00  0.00     0.256 C 
HETATM   26  O   UNL     1     -43.341  54.116 -52.444  1.00  0.00    -0.267 OA
HETATM   27  N   UNL     1     -41.407  54.164 -53.747  1.00  0.00    -0.323 N 
HETATM   28  H   UNL     1     -40.897  54.768 -54.380  1.00  0.00     0.169 HD
BRANCH  27  29
HETATM   29  C   UNL     1     -40.729  53.003 -53.316  1.00  0.00     0.037 A 
HETATM   30  C   UNL     1     -40.236  52.827 -52.027  1.00  0.00     0.049 A 
HETATM   31  C   UNL     1     -39.614  51.629 -51.715  1.00  0.00     0.118 A 
HETATM   32  N   UNL     1     -39.453  50.611 -52.588  1.00  0.00    -0.273 NA
HETATM   33  C   UNL     1     -39.937  50.806 -53.831  1.00  0.00     0.118 A 
HETATM   34  C   UNL     1     -40.578  51.966 -54.237  1.00  0.00     0.049 A 
ENDBRANCH  27  29
ENDBRANCH   3  25
TORSDOF 11
ENDMDL
MODEL 6
REMARK VINA RESULT:      -6.6      3.046      7.736
REMARK  11 active torsions:
REMARK  status: ('A' for Active; 'I' for Inactive)
REMARK    1  A    between atoms: O_2  and  C_3 
REMARK    2  A    between atoms: C_3  and  C_4 
REMARK    3  A    between atoms: C_4  and  C_5 
REMARK    4  A    between atoms: C_5  and  O_6 
REMARK    5  A    between atoms: O_6  and  C_7 
REMARK    6  A    between atoms: C_7  and  C_9 
REMARK    7  A    between atoms: C_13  and  C_15 
REMARK    8  A    between atoms: C_17  and  C_23 
REMARK    9  A    between atoms: C_20  and  C_21 
REMARK   10  A    between atoms: C_21  and  N_22 
REMARK       I    between atoms: C_23  and  N_25 
REMARK   11  A    between atoms: N_25  and  C_26 
ROOT
HETATM    1  C   UNL     1     -42.667  57.150 -54.709  1.00  0.00    -0.017 A 
HETATM    2  C   UNL     1     -42.369  55.825 -54.325  1.00  0.00     0.030 A 
HETATM    3  C   UNL     1     -41.777  55.538 -53.088  1.00  0.00     0.033 A 
HETATM    4  C   UNL     1     -41.472  56.579 -52.214  1.00  0.00     0.017 A 
HETATM    5  C   UNL     1     -41.754  57.896 -52.579  1.00  0.00     0.011 A 
HETATM    6  C   UNL     1     -42.365  58.200 -53.813  1.00  0.00    -0.020 A 
ENDROOT
BRANCH   1   7
HETATM    7  C   UNL     1     -43.332  57.361 -56.005  1.00  0.00    -0.024 A 
HETATM    8  C   UNL     1     -44.671  57.768 -56.089  1.00  0.00     0.012 A 
HETATM    9  C   UNL     1     -45.280  57.974 -57.330  1.00  0.00     0.002 A 
HETATM   10  C   UNL     1     -44.551  57.792 -58.507  1.00  0.00     0.017 A 
HETATM   11  C   UNL     1     -43.209  57.403 -58.448  1.00  0.00     0.040 A 
HETATM   12  C   UNL     1     -42.611  57.184 -57.198  1.00  0.00     0.030 A 
BRANCH  11  13
HETATM   13  C   UNL     1     -42.458  57.220 -59.720  1.00  0.00     0.293 C 
HETATM   14  O   UNL     1     -42.574  56.243 -60.442  1.00  0.00    -0.259 OA
BRANCH  13  15
HETATM   15  O   UNL     1     -41.654  58.288 -59.934  1.00  0.00    -0.317 OA
BRANCH  15  16
HETATM   16  C   UNL     1     -42.154  59.318 -60.801  1.00  0.00     0.181 C 
BRANCH  16  17
HETATM   17  C   UNL     1     -41.752  60.698 -60.291  1.00  0.00     0.053 C 
BRANCH  17  18
HETATM   18  C   UNL     1     -42.106  60.876 -58.820  1.00  0.00     0.169 C 
BRANCH  18  19
HETATM   19  O   UNL     1     -43.520  60.975 -58.677  1.00  0.00    -0.396 OA
HETATM   20  C   UNL     1     -43.883  61.672 -57.492  1.00  0.00     0.201 C 
ENDBRANCH  18  19
ENDBRANCH  17  18
ENDBRANCH  16  17
ENDBRANCH  15  16
ENDBRANCH  13  15
ENDBRANCH  11  13
ENDBRANCH   1   7
BRANCH   6  21
HETATM   21  C   UNL     1     -42.711  59.649 -54.085  1.00  0.00     0.306 C 
BRANCH  21  22
HETATM   22  N   UNL     1     -41.726  60.276 -54.959  1.00  0.00     0.082 N 
HETATM   23  H   UNL     1     -41.152  59.552 -55.385  1.00  0.00     0.313 HD
HETATM   24  H   UNL     1     -42.212  60.742 -55.722  1.00  0.00     0.313 HD
ENDBRANCH  21  22
ENDBRANCH   6  21
BRANCH   3  25
HETATM   25  C   UNL     1     -41.540  54.134 -52.649  1.00  0.00     0.256 C 
HETATM   26  O   UNL     1     -42.260  53.669 -51.773  1.00  0.00    -0.267 OA
HETATM   27  N   UNL     1     -40.489  53.491 -53.280  1.00  0.00    -0.323 N 
HETATM   28  H   UNL     1     -39.873  54.063 -53.844  1.00  0.00     0.169 HD
BRANCH  27  29
HETATM   29  C   UNL     1     -40.145  52.126 -53.174  1.00  0.00     0.037 A 
HETATM   30  C   UNL     1     -39.685  51.531 -52.003  1.00  0.00     0.049 A 
HETATM   31  C   UNL     1     -39.408  50.173 -52.016  1.00  0.00     0.118 A 
HETATM   32  N   UNL     1     -39.557  49.382 -53.101  1.00  0.00    -0.273 NA
HETATM   33  C   UNL     1     -40.001  49.981 -54.223  1.00  0.00     0.118 A 
HETATM   34  C   UNL     1     -40.310  51.330 -54.308  1.00  0.00     0.049 A 
ENDBRANCH  27  29
ENDBRANCH   3  25
TORSDOF 11
ENDMDL
MODEL 7
REMARK VINA RESULT:      -6.4     15.013     17.610
REMARK  11 active torsions:
REMARK  status: ('A' for Active; 'I' for Inactive)
REMARK    1  A    between atoms: O_2  and  C_3 
REMARK    2  A    between atoms: C_3  and  C_4 
REMARK    3  A    between atoms: C_4  and  C_5 
REMARK    4  A    between atoms: C_5  and  O_6 
REMARK    5  A    between atoms: O_6  and  C_7 
REMARK    6  A    between atoms: C_7  and  C_9 
REMARK    7  A    between atoms: C_13  and  C_15 
REMARK    8  A    between atoms: C_17  and  C_23 
REMARK    9  A    between atoms: C_20  and  C_21 
REMARK   10  A    between atoms: C_21  and  N_22 
REMARK       I    between atoms: C_23  and  N_25 
REMARK   11  A    between atoms: N_25  and  C_26 
ROOT
HETATM    1  C   UNL     1     -35.134  40.863 -56.275  1.00  0.00    -0.017 A 
HETATM    2  C   UNL     1     -35.528  40.488 -57.577  1.00  0.00     0.030 A 
HETATM    3  C   UNL     1     -36.687  41.009 -58.168  1.00  0.00     0.033 A 
HETATM    4  C   UNL     1     -37.472  41.916 -57.460  1.00  0.00     0.017 A 
HETATM    5  C   UNL     1     -37.101  42.295 -56.170  1.00  0.00     0.011 A 
HETATM    6  C   UNL     1     -35.929  41.793 -55.567  1.00  0.00    -0.020 A 
ENDROOT
BRANCH   1   7
HETATM    7  C   UNL     1     -33.878  40.306 -55.746  1.00  0.00    -0.024 A 
HETATM    8  C   UNL     1     -32.677  40.381 -56.467  1.00  0.00     0.012 A 
HETATM    9  C   UNL     1     -31.493  39.857 -55.941  1.00  0.00     0.002 A 
HETATM   10  C   UNL     1     -31.491  39.264 -54.677  1.00  0.00     0.017 A 
HETATM   11  C   UNL     1     -32.673  39.193 -53.932  1.00  0.00     0.040 A 
HETATM   12  C   UNL     1     -33.859  39.709 -54.475  1.00  0.00     0.030 A 
BRANCH  11  13
HETATM   13  C   UNL     1     -32.637  38.558 -52.586  1.00  0.00     0.293 C 
HETATM   14  O   UNL     1     -31.633  38.486 -51.896  1.00  0.00    -0.259 OA
BRANCH  13  15
HETATM   15  O   UNL     1     -33.868  38.092 -52.268  1.00  0.00    -0.317 OA
BRANCH  15  16
HETATM   16  C   UNL     1     -34.084  37.698 -50.904  1.00  0.00     0.181 C 
BRANCH  16  17
HETATM   17  C   UNL     1     -34.778  38.809 -50.123  1.00  0.00     0.053 C 
BRANCH  17  18
HETATM   18  C   UNL     1     -35.642  39.675 -51.032  1.00  0.00     0.169 C 
BRANCH  18  19
HETATM   19  O   UNL     1     -35.434  41.050 -50.723  1.00  0.00    -0.396 OA
HETATM   20  C   UNL     1     -34.079  41.435 -50.917  1.00  0.00     0.201 C 
ENDBRANCH  18  19
ENDBRANCH  17  18
ENDBRANCH  16  17
ENDBRANCH  15  16
ENDBRANCH  13  15
ENDBRANCH  11  13
ENDBRANCH   1   7
BRANCH   6  21
HETATM   21  C   UNL     1     -35.562  42.326 -54.198  1.00  0.00     0.306 C 
BRANCH  21  22
HETATM   22  N   UNL     1     -36.693  42.260 -53.280  1.00  0.00     0.082 N 
HETATM   23  H   UNL     1     -37.356  42.994 -53.518  1.00  0.00     0.313 HD
HETATM   24  H   UNL     1     -37.181  41.377 -53.421  1.00  0.00     0.313 HD
ENDBRANCH  21  22
ENDBRANCH   6  21
BRANCH   3  25
HETATM   25  C   UNL     1     -37.057  40.677 -59.573  1.00  0.00     0.256 C 
HETATM   26  O   UNL     1     -37.348  41.595 -60.330  1.00  0.00    -0.267 OA
HETATM   27  N   UNL     1     -37.052  39.327 -59.878  1.00  0.00    -0.323 N 
HETATM   28  H   UNL     1     -36.972  38.681 -59.103  1.00  0.00     0.169 HD
BRANCH  27  29
HETATM   29  C   UNL     1     -37.207  38.747 -61.156  1.00  0.00     0.037 A 
HETATM   30  C   UNL     1     -38.441  38.462 -61.733  1.00  0.00     0.049 A 
HETATM   31  C   UNL     1     -38.465  37.919 -63.008  1.00  0.00     0.118 A 
HETATM   32  N   UNL     1     -37.359  37.646 -63.734  1.00  0.00    -0.273 NA
HETATM   33  C   UNL     1     -36.176  37.929 -63.153  1.00  0.00     0.118 A 
HETATM   34  C   UNL     1     -36.049  38.476 -61.886  1.00  0.00     0.049 A 
ENDBRANCH  27  29
ENDBRANCH   3  25
TORSDOF 11
ENDMDL
MODEL 8
REMARK VINA RESULT:      -6.4      4.449      7.909
REMARK  11 active torsions:
REMARK  status: ('A' for Active; 'I' for Inactive)
REMARK    1  A    between atoms: O_2  and  C_3 
REMARK    2  A    between atoms: C_3  and  C_4 
REMARK    3  A    between atoms: C_4  and  C_5 
REMARK    4  A    between atoms: C_5  and  O_6 
REMARK    5  A    between atoms: O_6  and  C_7 
REMARK    6  A    between atoms: C_7  and  C_9 
REMARK    7  A    between atoms: C_13  and  C_15 
REMARK    8  A    between atoms: C_17  and  C_23 
REMARK    9  A    between atoms: C_20  and  C_21 
REMARK   10  A    between atoms: C_21  and  N_22 
REMARK       I    between atoms: C_23  and  N_25 
REMARK   11  A    between atoms: N_25  and  C_26 
ROOT
HETATM    1  C   UNL     1     -42.401  58.278 -53.560  1.00  0.00    -0.017 A 
HETATM    2  C   UNL     1     -42.312  56.875 -53.438  1.00  0.00     0.030 A 
HETATM    3  C   UNL     1     -42.185  56.050 -54.563  1.00  0.00     0.033 A 
HETATM    4  C   UNL     1     -42.145  56.621 -55.833  1.00  0.00     0.017 A 
HETATM    5  C   UNL     1     -42.237  58.006 -55.974  1.00  0.00     0.011 A 
HETATM    6  C   UNL     1     -42.349  58.852 -54.850  1.00  0.00    -0.020 A 
ENDROOT
BRANCH   1   7
HETATM    7  C   UNL     1     -42.485  59.076 -52.325  1.00  0.00    -0.024 A 
HETATM    8  C   UNL     1     -41.337  59.516 -51.652  1.00  0.00     0.012 A 
HETATM    9  C   UNL     1     -41.439  60.283 -50.488  1.00  0.00     0.002 A 
HETATM   10  C   UNL     1     -42.695  60.634 -49.989  1.00  0.00     0.017 A 
HETATM   11  C   UNL     1     -43.855  60.220 -50.652  1.00  0.00     0.040 A 
HETATM   12  C   UNL     1     -43.742  59.438 -51.812  1.00  0.00     0.030 A 
BRANCH  11  13
HETATM   13  C   UNL     1     -45.179  60.613 -50.097  1.00  0.00     0.293 C 
HETATM   14  O   UNL     1     -46.229  60.068 -50.396  1.00  0.00    -0.259 OA
BRANCH  13  15
HETATM   15  O   UNL     1     -45.024  61.641 -49.229  1.00  0.00    -0.317 OA
BRANCH  15  16
HETATM   16  C   UNL     1     -46.130  61.935 -48.361  1.00  0.00     0.181 C 
BRANCH  16  17
HETATM   17  C   UNL     1     -45.680  61.968 -46.904  1.00  0.00     0.053 C 
BRANCH  17  18
HETATM   18  C   UNL     1     -45.710  60.580 -46.278  1.00  0.00     0.169 C 
BRANCH  18  19
HETATM   19  O   UNL     1     -47.054  60.110 -46.218  1.00  0.00    -0.396 OA
HETATM   20  C   UNL     1     -47.133  58.806 -45.660  1.00  0.00     0.201 C 
ENDBRANCH  18  19
ENDBRANCH  17  18
ENDBRANCH  16  17
ENDBRANCH  15  16
ENDBRANCH  13  15
ENDBRANCH  11  13
ENDBRANCH   1   7
BRANCH   6  21
HETATM   21  C   UNL     1     -42.356  60.345 -55.096  1.00  0.00     0.306 C 
BRANCH  21  22
HETATM   22  N   UNL     1     -41.956  60.662 -56.463  1.00  0.00     0.082 N 
HETATM   23  H   UNL     1     -41.558  59.830 -56.893  1.00  0.00     0.313 HD
HETATM   24  H   UNL     1     -42.786  60.895 -57.004  1.00  0.00     0.313 HD
ENDBRANCH  21  22
ENDBRANCH   6  21
BRANCH   3  25
HETATM   25  C   UNL     1     -42.007  54.577 -54.428  1.00  0.00     0.256 C 
HETATM   26  O   UNL     1     -42.740  53.840 -55.078  1.00  0.00    -0.267 OA
HETATM   27  N   UNL     1     -41.017  54.184 -53.544  1.00  0.00    -0.323 N 
HETATM   28  H   UNL     1     -40.625  54.900 -52.945  1.00  0.00     0.169 HD
BRANCH  27  29
HETATM   29  C   UNL     1     -40.534  52.873 -53.341  1.00  0.00     0.037 A 
HETATM   30  C   UNL     1     -40.428  51.921 -54.350  1.00  0.00     0.049 A 
HETATM   31  C   UNL     1     -39.909  50.676 -54.033  1.00  0.00     0.118 A 
HETATM   32  N   UNL     1     -39.496  50.322 -52.796  1.00  0.00    -0.273 NA
HETATM   33  C   UNL     1     -39.610  51.260 -51.835  1.00  0.00     0.118 A 
HETATM   34  C   UNL     1     -40.112  52.534 -52.055  1.00  0.00     0.049 A 
ENDBRANCH  27  29
ENDBRANCH   3  25
TORSDOF 11
ENDMDL
MODEL 9
REMARK VINA RESULT:      -6.3      3.216      7.503
REMARK  11 active torsions:
REMARK  status: ('A' for Active; 'I' for Inactive)
REMARK    1  A    between atoms: O_2  and  C_3 
REMARK    2  A    between atoms: C_3  and  C_4 
REMARK    3  A    between atoms: C_4  and  C_5 
REMARK    4  A    between atoms: C_5  and  O_6 
REMARK    5  A    between atoms: O_6  and  C_7 
REMARK    6  A    between atoms: C_7  and  C_9 
REMARK    7  A    between atoms: C_13  and  C_15 
REMARK    8  A    between atoms: C_17  and  C_23 
REMARK    9  A    between atoms: C_20  and  C_21 
REMARK   10  A    between atoms: C_21  and  N_22 
REMARK       I    between atoms: C_23  and  N_25 
REMARK   11  A    between atoms: N_25  and  C_26 
ROOT
HETATM    1  C   UNL     1     -44.447  57.766 -54.303  1.00  0.00    -0.017 A 
HETATM    2  C   UNL     1     -43.835  56.512 -54.096  1.00  0.00     0.030 A 
HETATM    3  C   UNL     1     -43.492  56.069 -52.812  1.00  0.00     0.033 A 
HETATM    4  C   UNL     1     -43.758  56.880 -51.711  1.00  0.00     0.017 A 
HETATM    5  C   UNL     1     -44.358  58.126 -51.897  1.00  0.00     0.011 A 
HETATM    6  C   UNL     1     -44.724  58.579 -53.181  1.00  0.00    -0.020 A 
ENDROOT
BRANCH   1   7
HETATM    7  C   UNL     1     -44.817  58.135 -55.679  1.00  0.00    -0.024 A 
HETATM    8  C   UNL     1     -46.109  57.915 -56.180  1.00  0.00     0.012 A 
HETATM    9  C   UNL     1     -46.443  58.285 -57.485  1.00  0.00     0.002 A 
HETATM   10  C   UNL     1     -45.493  58.896 -58.305  1.00  0.00     0.017 A 
HETATM   11  C   UNL     1     -44.203  59.141 -57.823  1.00  0.00     0.040 A 
HETATM   12  C   UNL     1     -43.873  58.753 -56.515  1.00  0.00     0.030 A 
BRANCH  11  13
HETATM   13  C   UNL     1     -43.213  59.797 -58.721  1.00  0.00     0.293 C 
HETATM   14  O   UNL     1     -42.839  60.951 -58.590  1.00  0.00    -0.259 OA
BRANCH  13  15
HETATM   15  O   UNL     1     -42.809  58.922 -59.672  1.00  0.00    -0.317 OA
BRANCH  15  16
HETATM   16  C   UNL     1     -41.735  58.033 -59.326  1.00  0.00     0.181 C 
BRANCH  16  17
HETATM   17  C   UNL     1     -41.941  56.663 -59.963  1.00  0.00     0.053 C 
BRANCH  17  18
HETATM   18  C   UNL     1     -43.281  56.057 -59.563  1.00  0.00     0.169 C 
BRANCH  18  19
HETATM   19  O   UNL     1     -44.111  55.930 -60.714  1.00  0.00    -0.396 OA
HETATM   20  C   UNL     1     -45.420  55.493 -60.375  1.00  0.00     0.201 C 
ENDBRANCH  18  19
ENDBRANCH  17  18
ENDBRANCH  16  17
ENDBRANCH  15  16
ENDBRANCH  13  15
ENDBRANCH  11  13
ENDBRANCH   1   7
BRANCH   6  21
HETATM   21  C   UNL     1     -45.446  59.906 -53.276  1.00  0.00     0.306 C 
BRANCH  21  22
HETATM   22  N   UNL     1     -45.576  60.537 -51.967  1.00  0.00     0.082 N 
HETATM   23  H   UNL     1     -46.348  60.103 -51.465  1.00  0.00     0.313 HD
HETATM   24  H   UNL     1     -44.737  60.343 -51.423  1.00  0.00     0.313 HD
ENDBRANCH  21  22
ENDBRANCH   6  21
BRANCH   3  25
HETATM   25  C   UNL     1     -42.923  54.710 -52.586  1.00  0.00     0.256 C 
HETATM   26  O   UNL     1     -43.576  53.908 -51.928  1.00  0.00    -0.267 OA
HETATM   27  N   UNL     1     -41.674  54.497 -53.143  1.00  0.00    -0.323 N 
HETATM   28  H   UNL     1     -41.184  55.309 -53.496  1.00  0.00     0.169 HD
BRANCH  27  29
HETATM   29  C   UNL     1     -40.978  53.271 -53.218  1.00  0.00     0.037 A 
HETATM   30  C   UNL     1     -40.979  52.445 -54.338  1.00  0.00     0.049 A 
HETATM   31  C   UNL     1     -40.231  51.279 -54.301  1.00  0.00     0.118 A 
HETATM   32  N   UNL     1     -39.494  50.888 -53.238  1.00  0.00    -0.273 NA
HETATM   33  C   UNL     1     -39.510  51.703 -52.165  1.00  0.00     0.118 A 
HETATM   34  C   UNL     1     -40.222  52.891 -52.108  1.00  0.00     0.049 A 
ENDBRANCH  27  29
ENDBRANCH   3  25
TORSDOF 11
ENDMDL
MODEL 10
REMARK VINA RESULT:      -6.3     15.354     17.757
REMARK  11 active torsions:
REMARK  status: ('A' for Active; 'I' for Inactive)
REMARK    1  A    between atoms: O_2  and  C_3 
REMARK    2  A    between atoms: C_3  and  C_4 
REMARK    3  A    between atoms: C_4  and  C_5 
REMARK    4  A    between atoms: C_5  and  O_6 
REMARK    5  A    between atoms: O_6  and  C_7 
REMARK    6  A    between atoms: C_7  and  C_9 
REMARK    7  A    between atoms: C_13  and  C_15 
REMARK    8  A    between atoms: C_17  and  C_23 
REMARK    9  A    between atoms: C_20  and  C_21 
REMARK   10  A    between atoms: C_21  and  N_22 
REMARK       I    between atoms: C_23  and  N_25 
REMARK   11  A    between atoms: N_25  and  C_26 
ROOT
HETATM    1  C   UNL     1     -35.594  40.180 -56.163  1.00  0.00    -0.017 A 
HETATM    2  C   UNL     1     -36.172  39.237 -57.039  1.00  0.00     0.030 A 
HETATM    3  C   UNL     1     -37.500  39.358 -57.470  1.00  0.00     0.033 A 
HETATM    4  C   UNL     1     -38.271  40.431 -57.027  1.00  0.00     0.017 A 
HETATM    5  C   UNL     1     -37.718  41.370 -56.156  1.00  0.00     0.011 A 
HETATM    6  C   UNL     1     -36.378  41.271 -55.726  1.00  0.00    -0.020 A 
ENDROOT
BRANCH   1   7
HETATM    7  C   UNL     1     -34.179  40.005 -55.797  1.00  0.00    -0.024 A 
HETATM    8  C   UNL     1     -33.145  40.237 -56.715  1.00  0.00     0.012 A 
HETATM    9  C   UNL     1     -31.807  40.078 -56.343  1.00  0.00     0.002 A 
HETATM   10  C   UNL     1     -31.484  39.698 -55.039  1.00  0.00     0.017 A 
HETATM   11  C   UNL     1     -32.497  39.478 -54.100  1.00  0.00     0.040 A 
HETATM   12  C   UNL     1     -33.837  39.626 -54.488  1.00  0.00     0.030 A 
BRANCH  11  13
HETATM   13  C   UNL     1     -32.120  39.077 -52.717  1.00  0.00     0.293 C 
HETATM   14  O   UNL     1     -31.981  37.919 -52.360  1.00  0.00    -0.259 OA
BRANCH  13  15
HETATM   15  O   UNL     1     -31.959  40.181 -51.949  1.00  0.00    -0.317 OA
BRANCH  15  16
HETATM   16  C   UNL     1     -32.786  40.289 -50.780  1.00  0.00     0.181 C 
BRANCH  16  17
HETATM   17  C   UNL     1     -33.953  41.239 -51.029  1.00  0.00     0.053 C 
BRANCH  17  18
HETATM   18  C   UNL     1     -35.280  40.612 -50.620  1.00  0.00     0.169 C 
BRANCH  18  19
HETATM   19  O   UNL     1     -35.891  40.003 -51.753  1.00  0.00    -0.396 OA
HETATM   20  C   UNL     1     -37.140  39.409 -51.425  1.00  0.00     0.201 C 
ENDBRANCH  18  19
ENDBRANCH  17  18
ENDBRANCH  16  17
ENDBRANCH  15  16
ENDBRANCH  13  15
ENDBRANCH  11  13
ENDBRANCH   1   7
BRANCH   6  21
HETATM   21  C   UNL     1     -35.840  42.383 -54.850  1.00  0.00     0.306 C 
BRANCH  21  22
HETATM   22  N   UNL     1     -36.459  42.367 -53.530  1.00  0.00     0.082 N 
HETATM   23  H   UNL     1     -35.778  42.041 -52.848  1.00  0.00     0.313 HD
HETATM   24  H   UNL     1     -36.694  43.322 -53.265  1.00  0.00     0.313 HD
ENDBRANCH  21  22
ENDBRANCH   6  21
BRANCH   3  25
HETATM   25  C   UNL     1     -38.084  38.410 -58.460  1.00  0.00     0.256 C 
HETATM   26  O   UNL     1     -38.069  37.213 -58.199  1.00  0.00    -0.267 OA
HETATM   27  N   UNL     1     -38.579  38.996 -59.612  1.00  0.00    -0.323 N 
HETATM   28  H   UNL     1     -38.352  39.971 -59.766  1.00  0.00     0.169 HD
BRANCH  27  29
HETATM   29  C   UNL     1     -39.318  38.362 -60.635  1.00  0.00     0.037 A 
HETATM   30  C   UNL     1     -40.653  37.992 -60.511  1.00  0.00     0.049 A 
HETATM   31  C   UNL     1     -41.280  37.403 -61.597  1.00  0.00     0.118 A 
HETATM   32  N   UNL     1     -40.673  37.162 -62.780  1.00  0.00    -0.273 NA
HETATM   33  C   UNL     1     -39.380  37.528 -62.876  1.00  0.00     0.118 A 
HETATM   34  C   UNL     1     -38.669  38.127 -61.847  1.00  0.00     0.049 A 
ENDBRANCH  27  29
ENDBRANCH   3  25
TORSDOF 11
ENDMDL
