MODEL 1
REMARK VINA RESULT:      -7.2      0.000      0.000
REMARK  4 active torsions:
REMARK  status: ('A' for Active; 'I' for Inactive)
REMARK    1  A    between atoms: C_5  and  N_6 
REMARK    2  A    between atoms: N_10  and  C_11 
REMARK    3  A    between atoms: C_11  and  C_12 
REMARK    4  A    between atoms: C_13  and  O_14 
ROOT
HETATM    1  N   UNL     1     -43.470  57.204 -54.802  1.00  0.00    -0.312 N 
HETATM    2  C   UNL     1     -43.549  56.194 -53.828  1.00  0.00     0.253 C 
HETATM    3  O   UNL     1     -43.852  56.381 -52.647  1.00  0.00    -0.271 OA
HETATM    4  C   UNL     1     -43.380  54.747 -54.312  1.00  0.00     0.375 C 
HETATM    5  N   UNL     1     -42.429  54.555 -55.426  1.00  0.00     0.103 N 
HETATM    6  C   UNL     1     -42.815  55.459 -56.512  1.00  0.00     0.293 C 
HETATM    7  C   UNL     1     -42.843  56.932 -56.101  1.00  0.00     0.162 C 
ENDROOT
BRANCH   5   8
HETATM    8  C   UNL     1     -41.028  54.739 -55.008  1.00  0.00     0.314 C 
BRANCH   8   9
HETATM    9  C   UNL     1     -40.578  53.690 -54.012  1.00  0.00     0.006 A 
HETATM   10  C   UNL     1     -40.514  53.953 -52.639  1.00  0.00     0.095 A 
HETATM   11  C   UNL     1     -40.122  52.956 -51.737  1.00  0.00     0.069 A 
HETATM   12 CL   UNL     1     -40.058  53.289 -50.045  1.00  0.00    -0.081 Cl
HETATM   13  C   UNL     1     -39.782  51.684 -52.192  1.00  0.00     0.050 A 
HETATM   14  C   UNL     1     -39.835  51.417 -53.557  1.00  0.00     0.036 A 
HETATM   15 CL   UNL     1     -39.423  49.848 -54.132  1.00  0.00    -0.084 Cl
HETATM   16  C   UNL     1     -40.225  52.405 -54.462  1.00  0.00     0.035 A 
BRANCH  10  17
HETATM   17  O   UNL     1     -40.854  55.204 -52.196  1.00  0.00    -0.358 OA
HETATM   18  H   UNL     1     -40.120  55.532 -51.643  1.00  0.00     0.218 HD
ENDBRANCH  10  17
ENDBRANCH   8   9
ENDBRANCH   5   8
BRANCH   1  19
HETATM   19  C   UNL     1     -43.832  58.525 -54.464  1.00  0.00     0.073 A 
HETATM   20  C   UNL     1     -45.097  59.170 -54.446  1.00  0.00     0.169 A 
HETATM   21  N   UNL     1     -45.025  60.457 -54.091  1.00  0.00    -0.183 NA
HETATM   22  N   UNL     1     -43.716  60.648 -53.878  1.00  0.00    -0.283 N 
HETATM   23  C   UNL     1     -43.230  61.951 -53.495  1.00  0.00     0.179 C 
HETATM   24  C   UNL     1     -42.963  59.526 -54.076  1.00  0.00     0.143 A 
ENDBRANCH   1  19
TORSDOF 4
ENDMDL
MODEL 2
REMARK VINA RESULT:      -7.1      2.490      3.332
REMARK  4 active torsions:
REMARK  status: ('A' for Active; 'I' for Inactive)
REMARK    1  A    between atoms: C_5  and  N_6 
REMARK    2  A    between atoms: N_10  and  C_11 
REMARK    3  A    between atoms: C_11  and  C_12 
REMARK    4  A    between atoms: C_13  and  O_14 
ROOT
HETATM    1  N   UNL     1     -42.826  56.871 -56.942  1.00  0.00    -0.312 N 
HETATM    2  C   UNL     1     -42.597  57.517 -55.715  1.00  0.00     0.253 C 
HETATM    3  O   UNL     1     -42.331  58.716 -55.593  1.00  0.00    -0.271 OA
HETATM    4  C   UNL     1     -42.833  56.695 -54.440  1.00  0.00     0.375 C 
HETATM    5  N   UNL     1     -42.493  55.260 -54.536  1.00  0.00     0.103 N 
HETATM    6  C   UNL     1     -43.198  54.703 -55.692  1.00  0.00     0.293 C 
HETATM    7  C   UNL     1     -42.864  55.405 -57.010  1.00  0.00     0.162 C 
ENDROOT
BRANCH   5   8
HETATM    8  C   UNL     1     -41.038  55.031 -54.597  1.00  0.00     0.314 C 
BRANCH   8   9
HETATM    9  C   UNL     1     -40.599  53.864 -53.738  1.00  0.00     0.006 A 
HETATM   10  C   UNL     1     -40.578  53.941 -52.340  1.00  0.00     0.095 A 
HETATM   11  C   UNL     1     -40.195  52.836 -51.568  1.00  0.00     0.069 A 
HETATM   12 CL   UNL     1     -40.184  52.940 -49.845  1.00  0.00    -0.081 Cl
HETATM   13  C   UNL     1     -39.823  51.641 -52.179  1.00  0.00     0.050 A 
HETATM   14  C   UNL     1     -39.833  51.559 -53.568  1.00  0.00     0.036 A 
HETATM   15 CL   UNL     1     -39.380  50.087 -54.336  1.00  0.00    -0.084 Cl
HETATM   16  C   UNL     1     -40.213  52.654 -54.344  1.00  0.00     0.035 A 
BRANCH  10  17
HETATM   17  O   UNL     1     -40.949  55.117 -51.744  1.00  0.00    -0.358 OA
HETATM   18  H   UNL     1     -40.139  55.634 -51.577  1.00  0.00     0.218 HD
ENDBRANCH  10  17
ENDBRANCH   8   9
ENDBRANCH   5   8
BRANCH   1  19
HETATM   19  C   UNL     1     -42.840  57.626 -58.133  1.00  0.00     0.073 A 
HETATM   20  C   UNL     1     -41.785  58.027 -58.995  1.00  0.00     0.169 A 
HETATM   21  N   UNL     1     -42.203  58.772 -60.024  1.00  0.00    -0.183 NA
HETATM   22  N   UNL     1     -43.527  58.854 -59.831  1.00  0.00    -0.283 N 
HETATM   23  C   UNL     1     -44.343  59.616 -60.745  1.00  0.00     0.179 C 
HETATM   24  C   UNL     1     -43.958  58.180 -58.725  1.00  0.00     0.143 A 
ENDBRANCH   1  19
TORSDOF 4
ENDMDL
MODEL 3
REMARK VINA RESULT:      -6.9      3.766      7.401
REMARK  4 active torsions:
REMARK  status: ('A' for Active; 'I' for Inactive)
REMARK    1  A    between atoms: C_5  and  N_6 
REMARK    2  A    between atoms: N_10  and  C_11 
REMARK    3  A    between atoms: C_11  and  C_12 
REMARK    4  A    between atoms: C_13  and  O_14 
ROOT
HETATM    1  N   UNL     1     -41.167  54.371 -53.158  1.00  0.00    -0.312 N 
HETATM    2  C   UNL     1     -42.312  54.666 -52.398  1.00  0.00     0.253 C 
HETATM    3  O   UNL     1     -42.936  53.844 -51.722  1.00  0.00    -0.271 OA
HETATM    4  C   UNL     1     -42.722  56.143 -52.303  1.00  0.00     0.375 C 
HETATM    5  N   UNL     1     -42.471  56.952 -53.513  1.00  0.00     0.103 N 
HETATM    6  C   UNL     1     -41.063  56.793 -53.881  1.00  0.00     0.293 C 
HETATM    7  C   UNL     1     -40.658  55.340 -54.136  1.00  0.00     0.162 C 
ENDROOT
BRANCH   5   8
HETATM    8  C   UNL     1     -43.387  56.613 -54.616  1.00  0.00     0.314 C 
BRANCH   8   9
HETATM    9  C   UNL     1     -42.976  57.249 -55.928  1.00  0.00     0.006 A 
HETATM   10  C   UNL     1     -42.935  56.520 -57.122  1.00  0.00     0.095 A 
HETATM   11  C   UNL     1     -42.580  57.140 -58.327  1.00  0.00     0.069 A 
HETATM   12 CL   UNL     1     -42.543  56.233 -59.795  1.00  0.00    -0.081 Cl
HETATM   13  C   UNL     1     -42.255  58.494 -58.357  1.00  0.00     0.050 A 
HETATM   14  C   UNL     1     -42.286  59.224 -57.172  1.00  0.00     0.036 A 
HETATM   15 CL   UNL     1     -41.891  60.899 -57.196  1.00  0.00    -0.084 Cl
HETATM   16  C   UNL     1     -42.639  58.614 -55.968  1.00  0.00     0.035 A 
BRANCH  10  17
HETATM   17  O   UNL     1     -43.260  55.190 -57.088  1.00  0.00    -0.358 OA
HETATM   18  H   UNL     1     -43.504  54.921 -57.994  1.00  0.00     0.218 HD
ENDBRANCH  10  17
ENDBRANCH   8   9
ENDBRANCH   5   8
BRANCH   1  19
HETATM   19  C   UNL     1     -40.614  53.074 -53.106  1.00  0.00     0.073 A 
HETATM   20  C   UNL     1     -39.922  52.396 -52.067  1.00  0.00     0.169 A 
HETATM   21  N   UNL     1     -39.523  51.169 -52.417  1.00  0.00    -0.183 NA
HETATM   22  N   UNL     1     -39.955  51.050 -53.680  1.00  0.00    -0.283 N 
HETATM   23  C   UNL     1     -39.686  49.843 -54.423  1.00  0.00     0.179 C 
HETATM   24  C   UNL     1     -40.620  52.152 -54.134  1.00  0.00     0.143 A 
ENDBRANCH   1  19
TORSDOF 4
ENDMDL
MODEL 4
REMARK VINA RESULT:      -6.9      1.793      1.973
REMARK  4 active torsions:
REMARK  status: ('A' for Active; 'I' for Inactive)
REMARK    1  A    between atoms: C_5  and  N_6 
REMARK    2  A    between atoms: N_10  and  C_11 
REMARK    3  A    between atoms: C_11  and  C_12 
REMARK    4  A    between atoms: C_13  and  O_14 
ROOT
HETATM    1  N   UNL     1     -43.155  57.319 -53.041  1.00  0.00    -0.312 N 
HETATM    2  C   UNL     1     -43.329  55.993 -52.609  1.00  0.00     0.253 C 
HETATM    3  O   UNL     1     -43.744  55.668 -51.493  1.00  0.00    -0.271 OA
HETATM    4  C   UNL     1     -43.116  54.887 -53.652  1.00  0.00     0.375 C 
HETATM    5  N   UNL     1     -42.063  55.152 -54.654  1.00  0.00     0.103 N 
HETATM    6  C   UNL     1     -42.341  56.449 -55.273  1.00  0.00     0.293 C 
HETATM    7  C   UNL     1     -42.406  57.604 -54.271  1.00  0.00     0.162 C 
ENDROOT
BRANCH   5   8
HETATM    8  C   UNL     1     -40.708  55.078 -54.078  1.00  0.00     0.314 C 
BRANCH   8   9
HETATM    9  C   UNL     1     -40.424  53.737 -53.433  1.00  0.00     0.006 A 
HETATM   10  C   UNL     1     -40.442  53.566 -52.044  1.00  0.00     0.095 A 
HETATM   11  C   UNL     1     -40.204  52.308 -51.475  1.00  0.00     0.069 A 
HETATM   12 CL   UNL     1     -40.240  52.108 -49.762  1.00  0.00    -0.081 Cl
HETATM   13  C   UNL     1     -39.940  51.205 -52.283  1.00  0.00     0.050 A 
HETATM   14  C   UNL     1     -39.913  51.368 -53.665  1.00  0.00     0.036 A 
HETATM   15 CL   UNL     1     -39.592  50.013 -54.675  1.00  0.00    -0.084 Cl
HETATM   16  C   UNL     1     -40.149  52.618 -54.240  1.00  0.00     0.035 A 
BRANCH  10  17
HETATM   17  O   UNL     1     -40.707  54.653 -51.254  1.00  0.00    -0.358 OA
HETATM   18  H   UNL     1     -41.533  54.472 -50.768  1.00  0.00     0.218 HD
ENDBRANCH  10  17
ENDBRANCH   8   9
ENDBRANCH   5   8
BRANCH   1  19
HETATM   19  C   UNL     1     -43.546  58.381 -52.198  1.00  0.00     0.073 A 
HETATM   20  C   UNL     1     -42.797  59.170 -51.284  1.00  0.00     0.169 A 
HETATM   21  N   UNL     1     -43.542  60.074 -50.640  1.00  0.00    -0.183 NA
HETATM   22  N   UNL     1     -44.771  59.874 -51.134  1.00  0.00    -0.283 N 
HETATM   23  C   UNL     1     -45.879  60.661 -50.653  1.00  0.00     0.179 C 
HETATM   24  C   UNL     1     -44.825  58.884 -52.073  1.00  0.00     0.143 A 
ENDBRANCH   1  19
TORSDOF 4
ENDMDL
MODEL 5
REMARK VINA RESULT:      -6.9      2.515      3.849
REMARK  4 active torsions:
REMARK  status: ('A' for Active; 'I' for Inactive)
REMARK    1  A    between atoms: C_5  and  N_6 
REMARK    2  A    between atoms: N_10  and  C_11 
REMARK    3  A    between atoms: C_11  and  C_12 
REMARK    4  A    between atoms: C_13  and  O_14 
ROOT
HETATM    1  N   UNL     1     -43.202  56.553 -56.434  1.00  0.00    -0.312 N 
HETATM    2  C   UNL     1     -43.517  57.110 -55.182  1.00  0.00     0.253 C 
HETATM    3  O   UNL     1     -43.699  58.313 -54.976  1.00  0.00    -0.271 OA
HETATM    4  C   UNL     1     -43.784  56.130 -54.032  1.00  0.00     0.375 C 
HETATM    5  N   UNL     1     -42.979  54.891 -54.051  1.00  0.00     0.103 N 
HETATM    6  C   UNL     1     -43.145  54.262 -55.363  1.00  0.00     0.293 C 
HETATM    7  C   UNL     1     -42.739  55.164 -56.530  1.00  0.00     0.162 C 
ENDROOT
BRANCH   5   8
HETATM    8  C   UNL     1     -41.564  55.135 -53.716  1.00  0.00     0.314 C 
BRANCH   8   9
HETATM    9  C   UNL     1     -41.106  54.334 -52.516  1.00  0.00     0.006 A 
HETATM   10  C   UNL     1     -40.519  53.070 -52.651  1.00  0.00     0.095 A 
HETATM   11  C   UNL     1     -40.077  52.362 -51.525  1.00  0.00     0.069 A 
HETATM   12 CL   UNL     1     -39.345  50.810 -51.706  1.00  0.00    -0.081 Cl
HETATM   13  C   UNL     1     -40.219  52.902 -50.250  1.00  0.00     0.050 A 
HETATM   14  C   UNL     1     -40.809  54.154 -50.106  1.00  0.00     0.036 A 
HETATM   15 CL   UNL     1     -40.988  54.835 -48.535  1.00  0.00    -0.084 Cl
HETATM   16  C   UNL     1     -41.252  54.866 -51.222  1.00  0.00     0.035 A 
BRANCH  10  17
HETATM   17  O   UNL     1     -40.377  52.546 -53.908  1.00  0.00    -0.358 OA
HETATM   18  H   UNL     1     -41.080  52.925 -54.469  1.00  0.00     0.218 HD
ENDBRANCH  10  17
ENDBRANCH   8   9
ENDBRANCH   5   8
BRANCH   1  19
HETATM   19  C   UNL     1     -43.162  57.384 -57.574  1.00  0.00     0.073 A 
HETATM   20  C   UNL     1     -42.107  58.158 -58.126  1.00  0.00     0.169 A 
HETATM   21  N   UNL     1     -42.474  58.845 -59.213  1.00  0.00    -0.183 NA
HETATM   22  N   UNL     1     -43.764  58.516 -59.367  1.00  0.00    -0.283 N 
HETATM   23  C   UNL     1     -44.531  59.091 -60.445  1.00  0.00     0.179 C 
HETATM   24  C   UNL     1     -44.219  57.641 -58.423  1.00  0.00     0.143 A 
ENDBRANCH   1  19
TORSDOF 4
ENDMDL
MODEL 6
REMARK VINA RESULT:      -6.5     15.450     17.781
REMARK  4 active torsions:
REMARK  status: ('A' for Active; 'I' for Inactive)
REMARK    1  A    between atoms: C_5  and  N_6 
REMARK    2  A    between atoms: N_10  and  C_11 
REMARK    3  A    between atoms: C_11  and  C_12 
REMARK    4  A    between atoms: C_13  and  O_14 
ROOT
HETATM    1  N   UNL     1     -34.469  40.883 -53.408  1.00  0.00    -0.312 N 
HETATM    2  C   UNL     1     -35.450  41.887 -53.484  1.00  0.00     0.253 C 
HETATM    3  O   UNL     1     -36.119  42.288 -52.527  1.00  0.00    -0.271 OA
HETATM    4  C   UNL     1     -35.592  42.622 -54.824  1.00  0.00     0.375 C 
HETATM    5  N   UNL     1     -35.353  41.801 -56.029  1.00  0.00     0.103 N 
HETATM    6  C   UNL     1     -34.046  41.157 -55.888  1.00  0.00     0.293 C 
HETATM    7  C   UNL     1     -33.925  40.287 -54.634  1.00  0.00     0.162 C 
ENDROOT
BRANCH   5   8
HETATM    8  C   UNL     1     -36.438  40.833 -56.272  1.00  0.00     0.314 C 
BRANCH   8   9
HETATM    9  C   UNL     1     -36.803  40.729 -57.738  1.00  0.00     0.006 A 
HETATM   10  C   UNL     1     -37.064  39.496 -58.349  1.00  0.00     0.095 A 
HETATM   11  C   UNL     1     -37.429  39.430 -59.700  1.00  0.00     0.069 A 
HETATM   12 CL   UNL     1     -37.759  37.906 -60.438  1.00  0.00    -0.081 Cl
HETATM   13  C   UNL     1     -37.533  40.591 -60.462  1.00  0.00     0.050 A 
HETATM   14  C   UNL     1     -37.267  41.819 -59.865  1.00  0.00     0.036 A 
HETATM   15 CL   UNL     1     -37.397  43.262 -60.794  1.00  0.00    -0.084 Cl
HETATM   16  C   UNL     1     -36.904  41.894 -58.520  1.00  0.00     0.035 A 
BRANCH  10  17
HETATM   17  O   UNL     1     -36.965  38.358 -57.594  1.00  0.00    -0.358 OA
HETATM   18  H   UNL     1     -37.695  37.765 -57.854  1.00  0.00     0.218 HD
ENDBRANCH  10  17
ENDBRANCH   8   9
ENDBRANCH   5   8
BRANCH   1  19
HETATM   19  C   UNL     1     -34.141  40.326 -52.154  1.00  0.00     0.073 A 
HETATM   20  C   UNL     1     -34.819  39.368 -51.354  1.00  0.00     0.169 A 
HETATM   21  N   UNL     1     -34.194  39.114 -50.199  1.00  0.00    -0.183 NA
HETATM   22  N   UNL     1     -33.114  39.905 -50.249  1.00  0.00    -0.283 N 
HETATM   23  C   UNL     1     -32.186  39.930 -49.145  1.00  0.00     0.179 C 
HETATM   24  C   UNL     1     -33.030  40.639 -51.397  1.00  0.00     0.143 A 
ENDBRANCH   1  19
TORSDOF 4
ENDMDL
MODEL 7
REMARK VINA RESULT:      -6.4      4.293      6.970
REMARK  4 active torsions:
REMARK  status: ('A' for Active; 'I' for Inactive)
REMARK    1  A    between atoms: C_5  and  N_6 
REMARK    2  A    between atoms: N_10  and  C_11 
REMARK    3  A    between atoms: C_11  and  C_12 
REMARK    4  A    between atoms: C_13  and  O_14 
ROOT
HETATM    1  N   UNL     1     -41.814  55.791 -52.431  1.00  0.00    -0.312 N 
HETATM    2  C   UNL     1     -42.927  55.280 -53.121  1.00  0.00     0.253 C 
HETATM    3  O   UNL     1     -43.400  54.153 -52.953  1.00  0.00    -0.271 OA
HETATM    4  C   UNL     1     -43.678  56.250 -54.044  1.00  0.00     0.375 C 
HETATM    5  N   UNL     1     -42.839  57.250 -54.735  1.00  0.00     0.103 N 
HETATM    6  C   UNL     1     -42.045  57.952 -53.725  1.00  0.00     0.293 C 
HETATM    7  C   UNL     1     -41.162  57.025 -52.887  1.00  0.00     0.162 C 
ENDROOT
BRANCH   5   8
HETATM    8  C   UNL     1     -42.006  56.650 -55.794  1.00  0.00     0.314 C 
BRANCH   8   9
HETATM    9  C   UNL     1     -42.602  56.833 -57.174  1.00  0.00     0.006 A 
HETATM   10  C   UNL     1     -43.339  55.821 -57.801  1.00  0.00     0.095 A 
HETATM   11  C   UNL     1     -43.904  56.026 -59.066  1.00  0.00     0.069 A 
HETATM   12 CL   UNL     1     -44.820  54.775 -59.824  1.00  0.00    -0.081 Cl
HETATM   13  C   UNL     1     -43.738  57.241 -59.726  1.00  0.00     0.050 A 
HETATM   14  C   UNL     1     -43.000  58.250 -59.113  1.00  0.00     0.036 A 
HETATM   15 CL   UNL     1     -42.791  59.758 -59.915  1.00  0.00    -0.084 Cl
HETATM   16  C   UNL     1     -42.434  58.053 -57.853  1.00  0.00     0.035 A 
BRANCH  10  17
HETATM   17  O   UNL     1     -43.503  54.629 -57.146  1.00  0.00    -0.358 OA
HETATM   18  H   UNL     1     -43.073  53.935 -57.680  1.00  0.00     0.218 HD
ENDBRANCH  10  17
ENDBRANCH   8   9
ENDBRANCH   5   8
BRANCH   1  19
HETATM   19  C   UNL     1     -41.217  55.022 -51.410  1.00  0.00     0.073 A 
HETATM   20  C   UNL     1     -40.458  53.823 -51.469  1.00  0.00     0.169 A 
HETATM   21  N   UNL     1     -40.085  53.378 -50.264  1.00  0.00    -0.183 NA
HETATM   22  N   UNL     1     -40.601  54.287 -49.424  1.00  0.00    -0.283 N 
HETATM   23  C   UNL     1     -40.428  54.133 -48.001  1.00  0.00     0.179 C 
HETATM   24  C   UNL     1     -41.275  55.291 -50.057  1.00  0.00     0.143 A 
ENDBRANCH   1  19
TORSDOF 4
ENDMDL
MODEL 8
REMARK VINA RESULT:      -6.4      3.824      7.329
REMARK  4 active torsions:
REMARK  status: ('A' for Active; 'I' for Inactive)
REMARK    1  A    between atoms: C_5  and  N_6 
REMARK    2  A    between atoms: N_10  and  C_11 
REMARK    3  A    between atoms: C_11  and  C_12 
REMARK    4  A    between atoms: C_13  and  O_14 
ROOT
HETATM    1  N   UNL     1     -41.310  54.325 -53.260  1.00  0.00    -0.312 N 
HETATM    2  C   UNL     1     -42.450  54.605 -52.487  1.00  0.00     0.253 C 
HETATM    3  O   UNL     1     -42.993  53.802 -51.723  1.00  0.00    -0.271 OA
HETATM    4  C   UNL     1     -42.962  56.052 -52.500  1.00  0.00     0.375 C 
HETATM    5  N   UNL     1     -42.806  56.771 -53.781  1.00  0.00     0.103 N 
HETATM    6  C   UNL     1     -41.401  56.678 -54.185  1.00  0.00     0.293 C 
HETATM    7  C   UNL     1     -40.901  55.240 -54.333  1.00  0.00     0.162 C 
ENDROOT
BRANCH   5   8
HETATM    8  C   UNL     1     -43.728  56.276 -54.819  1.00  0.00     0.314 C 
BRANCH   8   9
HETATM    9  C   UNL     1     -43.615  57.053 -56.114  1.00  0.00     0.006 A 
HETATM   10  C   UNL     1     -43.993  58.398 -56.203  1.00  0.00     0.095 A 
HETATM   11  C   UNL     1     -43.852  59.103 -57.406  1.00  0.00     0.069 A 
HETATM   12 CL   UNL     1     -44.311  60.764 -57.500  1.00  0.00    -0.081 Cl
HETATM   13  C   UNL     1     -43.336  58.475 -58.537  1.00  0.00     0.050 A 
HETATM   14  C   UNL     1     -42.965  57.136 -58.458  1.00  0.00     0.036 A 
HETATM   15 CL   UNL     1     -42.322  56.349 -59.847  1.00  0.00    -0.084 Cl
HETATM   16  C   UNL     1     -43.102  56.427 -57.264  1.00  0.00     0.035 A 
BRANCH  10  17
HETATM   17  O   UNL     1     -44.496  59.012 -55.087  1.00  0.00    -0.358 OA
HETATM   18  H   UNL     1     -45.283  59.521 -55.357  1.00  0.00     0.218 HD
ENDBRANCH  10  17
ENDBRANCH   8   9
ENDBRANCH   5   8
BRANCH   1  19
HETATM   19  C   UNL     1     -40.664  53.079 -53.120  1.00  0.00     0.073 A 
HETATM   20  C   UNL     1     -39.942  52.519 -52.032  1.00  0.00     0.169 A 
HETATM   21  N   UNL     1     -39.448  51.306 -52.300  1.00  0.00    -0.183 NA
HETATM   22  N   UNL     1     -39.848  51.078 -53.558  1.00  0.00    -0.283 N 
HETATM   23  C   UNL     1     -39.478  49.851 -54.221  1.00  0.00     0.179 C 
HETATM   24  C   UNL     1     -40.584  52.098 -54.089  1.00  0.00     0.143 A 
ENDBRANCH   1  19
TORSDOF 4
ENDMDL
MODEL 9
REMARK VINA RESULT:      -6.4      1.889      2.826
REMARK  4 active torsions:
REMARK  status: ('A' for Active; 'I' for Inactive)
REMARK    1  A    between atoms: C_5  and  N_6 
REMARK    2  A    between atoms: N_10  and  C_11 
REMARK    3  A    between atoms: C_11  and  C_12 
REMARK    4  A    between atoms: C_13  and  O_14 
ROOT
HETATM    1  N   UNL     1     -43.341  58.018 -52.967  1.00  0.00    -0.312 N 
HETATM    2  C   UNL     1     -43.524  56.746 -52.397  1.00  0.00     0.253 C 
HETATM    3  O   UNL     1     -43.916  56.544 -51.244  1.00  0.00    -0.271 OA
HETATM    4  C   UNL     1     -43.353  55.536 -53.326  1.00  0.00     0.375 C 
HETATM    5  N   UNL     1     -42.322  55.679 -54.374  1.00  0.00     0.103 N 
HETATM    6  C   UNL     1     -42.597  56.911 -55.117  1.00  0.00     0.293 C 
HETATM    7  C   UNL     1     -42.620  58.162 -54.237  1.00  0.00     0.162 C 
ENDROOT
BRANCH   5   8
HETATM    8  C   UNL     1     -40.954  55.641 -53.826  1.00  0.00     0.314 C 
BRANCH   8   9
HETATM    9  C   UNL     1     -40.641  54.329 -53.138  1.00  0.00     0.006 A 
HETATM   10  C   UNL     1     -40.278  53.184 -53.859  1.00  0.00     0.095 A 
HETATM   11  C   UNL     1     -39.965  51.991 -53.196  1.00  0.00     0.069 A 
HETATM   12 CL   UNL     1     -39.508  50.590 -54.095  1.00  0.00    -0.081 Cl
HETATM   13  C   UNL     1     -40.015  51.920 -51.806  1.00  0.00     0.050 A 
HETATM   14  C   UNL     1     -40.382  53.050 -51.082  1.00  0.00     0.036 A 
HETATM   15 CL   UNL     1     -40.443  52.977 -49.364  1.00  0.00    -0.084 Cl
HETATM   16  C   UNL     1     -40.696  54.243 -51.735  1.00  0.00     0.035 A 
BRANCH  10  17
HETATM   17  O   UNL     1     -40.226  53.261 -55.225  1.00  0.00    -0.358 OA
HETATM   18  H   UNL     1     -40.534  52.407 -55.582  1.00  0.00     0.218 HD
ENDBRANCH  10  17
ENDBRANCH   8   9
ENDBRANCH   5   8
BRANCH   1  19
HETATM   19  C   UNL     1     -43.695  59.167 -52.229  1.00  0.00     0.073 A 
HETATM   20  C   UNL     1     -42.933  59.980 -51.348  1.00  0.00     0.169 A 
HETATM   21  N   UNL     1     -43.643  60.978 -50.811  1.00  0.00    -0.183 NA
HETATM   22  N   UNL     1     -44.862  60.813 -51.341  1.00  0.00    -0.283 N 
HETATM   23  C   UNL     1     -45.935  61.704 -50.973  1.00  0.00     0.179 C 
HETATM   24  C   UNL     1     -44.944  59.756 -52.200  1.00  0.00     0.143 A 
ENDBRANCH   1  19
TORSDOF 4
ENDMDL
MODEL 10
REMARK VINA RESULT:      -6.3      4.372      6.885
REMARK  4 active torsions:
REMARK  status: ('A' for Active; 'I' for Inactive)
REMARK    1  A    between atoms: C_5  and  N_6 
REMARK    2  A    between atoms: N_10  and  C_11 
REMARK    3  A    between atoms: C_11  and  C_12 
REMARK    4  A    between atoms: C_13  and  O_14 
ROOT
HETATM    1  N   UNL     1     -41.906  55.796 -52.930  1.00  0.00    -0.312 N 
HETATM    2  C   UNL     1     -43.060  55.284 -53.548  1.00  0.00     0.253 C 
HETATM    3  O   UNL     1     -43.571  54.192 -53.285  1.00  0.00    -0.271 OA
HETATM    4  C   UNL     1     -43.804  56.217 -54.514  1.00  0.00     0.375 C 
HETATM    5  N   UNL     1     -42.950  57.130 -55.301  1.00  0.00     0.103 N 
HETATM    6  C   UNL     1     -42.095  57.868 -54.369  1.00  0.00     0.293 C 
HETATM    7  C   UNL     1     -41.222  56.966 -53.493  1.00  0.00     0.162 C 
ENDROOT
BRANCH   5   8
HETATM    8  C   UNL     1     -42.177  56.423 -56.338  1.00  0.00     0.314 C 
BRANCH   8   9
HETATM    9  C   UNL     1     -42.760  56.610 -57.723  1.00  0.00     0.006 A 
HETATM   10  C   UNL     1     -42.540  57.775 -58.467  1.00  0.00     0.095 A 
HETATM   11  C   UNL     1     -43.067  57.910 -59.758  1.00  0.00     0.069 A 
HETATM   12 CL   UNL     1     -42.780  59.348 -60.669  1.00  0.00    -0.081 Cl
HETATM   13  C   UNL     1     -43.824  56.887 -60.324  1.00  0.00     0.050 A 
HETATM   14  C   UNL     1     -44.053  55.728 -59.588  1.00  0.00     0.036 A 
HETATM   15 CL   UNL     1     -44.983  54.454 -60.277  1.00  0.00    -0.084 Cl
HETATM   16  C   UNL     1     -43.532  55.585 -58.302  1.00  0.00     0.035 A 
BRANCH  10  17
HETATM   17  O   UNL     1     -41.791  58.776 -57.908  1.00  0.00    -0.358 OA
HETATM   18  H   UNL     1     -42.264  59.093 -57.115  1.00  0.00     0.218 HD
ENDBRANCH  10  17
ENDBRANCH   8   9
ENDBRANCH   5   8
BRANCH   1  19
HETATM   19  C   UNL     1     -41.306  55.077 -51.875  1.00  0.00     0.073 A 
HETATM   20  C   UNL     1     -40.488  53.915 -51.886  1.00  0.00     0.169 A 
HETATM   21  N   UNL     1     -40.133  53.513 -50.660  1.00  0.00    -0.183 NA
HETATM   22  N   UNL     1     -40.720  54.411 -49.856  1.00  0.00    -0.283 N 
HETATM   23  C   UNL     1     -40.586  54.293 -48.425  1.00  0.00     0.179 C 
HETATM   24  C   UNL     1     -41.421  55.368 -50.530  1.00  0.00     0.143 A 
ENDBRANCH   1  19
TORSDOF 4
ENDMDL
