MODEL 1
REMARK VINA RESULT:      -8.3      0.000      0.000
REMARK  3 active torsions:
REMARK  status: ('A' for Active; 'I' for Inactive)
REMARK    1  A    between atoms: C_12  and  C_13 
REMARK       I    between atoms: C_13  and  N_14 
REMARK    2  A    between atoms: N_14  and  C_15 
REMARK    3  A    between atoms: C_15  and  C_16 
ROOT
HETATM    1  C   UNL     1     -39.525  49.919 -51.369  1.00  0.00     0.001 A 
HETATM    2  C   UNL     1     -39.875  51.253 -51.146  1.00  0.00     0.016 A 
HETATM    3  C   UNL     1     -40.118  52.097 -52.233  1.00  0.00     0.026 A 
HETATM    4  C   UNL     1     -40.010  51.602 -53.548  1.00  0.00     0.081 A 
HETATM    5  O   UNL     1     -40.228  52.345 -54.688  1.00  0.00    -0.346 OA
HETATM    6  C   UNL     1     -40.606  53.748 -54.580  1.00  0.00     0.219 A 
HETATM    7  C   UNL     1     -40.721  54.271 -53.202  1.00  0.00     0.031 A 
HETATM    8  C   UNL     1     -40.487  53.483 -52.109  1.00  0.00     0.074 A 
HETATM    9  N   UNL     1     -40.678  54.271 -51.020  1.00  0.00    -0.276 N 
HETATM   10  H   UNL     1     -40.590  54.024 -50.040  1.00  0.00     0.189 HD
HETATM   11  N   UNL     1     -41.031  55.538 -51.335  1.00  0.00    -0.168 NA
HETATM   12  C   UNL     1     -41.059  55.545 -52.689  1.00  0.00     0.155 A 
HETATM   13  C   UNL     1     -39.659  50.268 -53.759  1.00  0.00     0.038 A 
HETATM   14  C   UNL     1     -39.417  49.428 -52.671  1.00  0.00     0.003 A 
ENDROOT
BRANCH  12  15
HETATM   15  C   UNL     1     -41.407  56.748 -53.461  1.00  0.00     0.272 C 
HETATM   16  N   UNL     1     -42.600  56.638 -54.132  1.00  0.00    -0.351 N 
HETATM   17  H   UNL     1     -43.104  55.766 -54.001  1.00  0.00     0.163 HD
HETATM   18  O   UNL     1     -40.691  57.743 -53.491  1.00  0.00    -0.266 OA
BRANCH  16  19
HETATM   19  C   UNL     1     -43.146  57.684 -54.955  1.00  0.00     0.161 C 
BRANCH  19  20
HETATM   20  C   UNL     1     -43.437  57.192 -56.351  1.00  0.00    -0.040 A 
HETATM   21  C   UNL     1     -42.867  55.996 -56.813  1.00  0.00     0.010 A 
HETATM   22  C   UNL     1     -43.146  55.526 -58.100  1.00  0.00     0.024 A 
HETATM   23  C   UNL     1     -44.001  56.249 -58.927  1.00  0.00     0.034 A 
HETATM   24 CL   UNL     1     -44.351  55.669 -60.509  1.00  0.00    -0.084 Cl
HETATM   25  C   UNL     1     -44.578  57.436 -58.482  1.00  0.00     0.024 A 
HETATM   26  C   UNL     1     -44.296  57.907 -57.197  1.00  0.00     0.010 A 
ENDBRANCH  19  20
ENDBRANCH  16  19
ENDBRANCH  12  15
TORSDOF 3
ENDMDL
MODEL 2
REMARK VINA RESULT:      -8.2      3.012      7.551
REMARK  3 active torsions:
REMARK  status: ('A' for Active; 'I' for Inactive)
REMARK    1  A    between atoms: C_12  and  C_13 
REMARK       I    between atoms: C_13  and  N_14 
REMARK    2  A    between atoms: N_14  and  C_15 
REMARK    3  A    between atoms: C_15  and  C_16 
ROOT
HETATM    1  C   UNL     1     -42.085  59.756 -59.996  1.00  0.00     0.001 A 
HETATM    2  C   UNL     1     -42.031  59.759 -58.599  1.00  0.00     0.016 A 
HETATM    3  C   UNL     1     -42.249  58.573 -57.895  1.00  0.00     0.026 A 
HETATM    4  C   UNL     1     -42.522  57.379 -58.592  1.00  0.00     0.081 A 
HETATM    5  O   UNL     1     -42.751  56.156 -57.998  1.00  0.00    -0.346 OA
HETATM    6  C   UNL     1     -42.713  56.036 -56.546  1.00  0.00     0.219 A 
HETATM    7  C   UNL     1     -42.427  57.286 -55.811  1.00  0.00     0.031 A 
HETATM    8  C   UNL     1     -42.212  58.471 -56.459  1.00  0.00     0.074 A 
HETATM    9  N   UNL     1     -41.982  59.399 -55.496  1.00  0.00    -0.276 N 
HETATM   10  H   UNL     1     -41.787  60.388 -55.606  1.00  0.00     0.189 HD
HETATM   11  N   UNL     1     -42.029  58.889 -54.244  1.00  0.00    -0.168 NA
HETATM   12  C   UNL     1     -42.304  57.576 -54.432  1.00  0.00     0.155 A 
HETATM   13  C   UNL     1     -42.574  57.387 -59.986  1.00  0.00     0.038 A 
HETATM   14  C   UNL     1     -42.356  58.574 -60.686  1.00  0.00     0.003 A 
ENDROOT
BRANCH  12  15
HETATM   15  C   UNL     1     -42.441  56.634 -53.311  1.00  0.00     0.272 C 
HETATM   16  N   UNL     1     -41.284  55.949 -53.032  1.00  0.00    -0.351 N 
HETATM   17  H   UNL     1     -40.479  56.186 -53.603  1.00  0.00     0.163 HD
HETATM   18  O   UNL     1     -43.493  56.486 -52.698  1.00  0.00    -0.266 OA
BRANCH  16  19
HETATM   19  C   UNL     1     -41.175  54.972 -51.981  1.00  0.00     0.161 C 
BRANCH  19  20
HETATM   20  C   UNL     1     -40.712  53.640 -52.514  1.00  0.00    -0.040 A 
HETATM   21  C   UNL     1     -40.929  53.300 -53.858  1.00  0.00     0.010 A 
HETATM   22  C   UNL     1     -40.486  52.074 -54.362  1.00  0.00     0.024 A 
HETATM   23  C   UNL     1     -39.819  51.184 -53.524  1.00  0.00     0.034 A 
HETATM   24 CL   UNL     1     -39.269  49.676 -54.144  1.00  0.00    -0.084 Cl
HETATM   25  C   UNL     1     -39.592  51.507 -52.189  1.00  0.00     0.024 A 
HETATM   26  C   UNL     1     -40.038  52.733 -51.684  1.00  0.00     0.010 A 
ENDBRANCH  19  20
ENDBRANCH  16  19
ENDBRANCH  12  15
TORSDOF 3
ENDMDL
MODEL 3
REMARK VINA RESULT:      -8.2      2.411      3.028
REMARK  3 active torsions:
REMARK  status: ('A' for Active; 'I' for Inactive)
REMARK    1  A    between atoms: C_12  and  C_13 
REMARK       I    between atoms: C_13  and  N_14 
REMARK    2  A    between atoms: N_14  and  C_15 
REMARK    3  A    between atoms: C_15  and  C_16 
ROOT
HETATM    1  C   UNL     1     -39.485  49.661 -51.819  1.00  0.00     0.001 A 
HETATM    2  C   UNL     1     -39.778  50.773 -51.025  1.00  0.00     0.016 A 
HETATM    3  C   UNL     1     -40.118  51.985 -51.629  1.00  0.00     0.026 A 
HETATM    4  C   UNL     1     -40.166  52.085 -53.034  1.00  0.00     0.081 A 
HETATM    5  O   UNL     1     -40.490  53.229 -53.731  1.00  0.00    -0.346 OA
HETATM    6  C   UNL     1     -40.821  54.450 -53.009  1.00  0.00     0.219 A 
HETATM    7  C   UNL     1     -40.773  54.351 -51.534  1.00  0.00     0.031 A 
HETATM    8  C   UNL     1     -40.440  53.185 -50.900  1.00  0.00     0.074 A 
HETATM    9  N   UNL     1     -40.494  53.444 -49.569  1.00  0.00    -0.276 N 
HETATM   10  H   UNL     1     -40.306  52.815 -48.796  1.00  0.00     0.189 HD
HETATM   11  N   UNL     1     -40.849  54.718 -49.289  1.00  0.00    -0.168 NA
HETATM   12  C   UNL     1     -41.025  55.287 -50.505  1.00  0.00     0.155 A 
HETATM   13  C   UNL     1     -39.871  50.968 -53.817  1.00  0.00     0.038 A 
HETATM   14  C   UNL     1     -39.531  49.759 -53.210  1.00  0.00     0.003 A 
ENDROOT
BRANCH  12  15
HETATM   15  C   UNL     1     -41.427  56.693 -50.664  1.00  0.00     0.272 C 
HETATM   16  N   UNL     1     -42.750  56.846 -50.999  1.00  0.00    -0.351 N 
HETATM   17  H   UNL     1     -43.291  55.990 -51.073  1.00  0.00     0.163 HD
HETATM   18  O   UNL     1     -40.645  57.625 -50.509  1.00  0.00    -0.266 OA
BRANCH  16  19
HETATM   19  C   UNL     1     -43.371  58.127 -51.210  1.00  0.00     0.161 C 
BRANCH  19  20
HETATM   20  C   UNL     1     -44.037  58.199 -52.561  1.00  0.00    -0.040 A 
HETATM   21  C   UNL     1     -44.557  59.416 -53.031  1.00  0.00     0.010 A 
HETATM   22  C   UNL     1     -45.160  59.493 -54.289  1.00  0.00     0.024 A 
HETATM   23  C   UNL     1     -45.241  58.354 -55.086  1.00  0.00     0.034 A 
HETATM   24 CL   UNL     1     -45.977  58.449 -56.639  1.00  0.00    -0.084 Cl
HETATM   25  C   UNL     1     -44.726  57.141 -54.638  1.00  0.00     0.024 A 
HETATM   26  C   UNL     1     -44.126  57.063 -53.377  1.00  0.00     0.010 A 
ENDBRANCH  19  20
ENDBRANCH  16  19
ENDBRANCH  12  15
TORSDOF 3
ENDMDL
MODEL 4
REMARK VINA RESULT:      -8.2      3.554      8.388
REMARK  3 active torsions:
REMARK  status: ('A' for Active; 'I' for Inactive)
REMARK    1  A    between atoms: C_12  and  C_13 
REMARK       I    between atoms: C_13  and  N_14 
REMARK    2  A    between atoms: N_14  and  C_15 
REMARK    3  A    between atoms: C_15  and  C_16 
ROOT
HETATM    1  C   UNL     1     -41.937  60.050 -61.088  1.00  0.00     0.001 A 
HETATM    2  C   UNL     1     -42.184  58.879 -60.367  1.00  0.00     0.016 A 
HETATM    3  C   UNL     1     -42.132  58.900 -58.972  1.00  0.00     0.026 A 
HETATM    4  C   UNL     1     -41.832  60.099 -58.295  1.00  0.00     0.081 A 
HETATM    5  O   UNL     1     -41.755  60.232 -56.925  1.00  0.00    -0.346 OA
HETATM    6  C   UNL     1     -42.001  59.078 -56.069  1.00  0.00     0.219 A 
HETATM    7  C   UNL     1     -42.317  57.818 -56.775  1.00  0.00     0.031 A 
HETATM    8  C   UNL     1     -42.373  57.749 -58.140  1.00  0.00     0.074 A 
HETATM    9  N   UNL     1     -42.684  56.465 -58.447  1.00  0.00    -0.276 N 
HETATM   10  H   UNL     1     -42.806  56.047 -59.363  1.00  0.00     0.189 HD
HETATM   11  N   UNL     1     -42.839  55.679 -57.357  1.00  0.00    -0.168 NA
HETATM   12  C   UNL     1     -42.613  56.514 -56.314  1.00  0.00     0.155 A 
HETATM   13  C   UNL     1     -41.586  61.263 -59.025  1.00  0.00     0.038 A 
HETATM   14  C   UNL     1     -41.639  61.238 -60.419  1.00  0.00     0.003 A 
ENDROOT
BRANCH  12  15
HETATM   15  C   UNL     1     -42.686  56.062 -54.916  1.00  0.00     0.272 C 
HETATM   16  N   UNL     1     -41.486  55.602 -54.431  1.00  0.00    -0.351 N 
HETATM   17  H   UNL     1     -40.700  55.649 -55.072  1.00  0.00     0.163 HD
HETATM   18  O   UNL     1     -43.723  56.098 -54.263  1.00  0.00    -0.266 OA
BRANCH  16  19
HETATM   19  C   UNL     1     -41.311  55.105 -53.092  1.00  0.00     0.161 C 
BRANCH  19  20
HETATM   20  C   UNL     1     -40.789  53.690 -53.093  1.00  0.00    -0.040 A 
HETATM   21  C   UNL     1     -40.241  53.136 -51.927  1.00  0.00     0.010 A 
HETATM   22  C   UNL     1     -39.772  51.820 -51.917  1.00  0.00     0.024 A 
HETATM   23  C   UNL     1     -39.854  51.050 -53.074  1.00  0.00     0.034 A 
HETATM   24 CL   UNL     1     -39.282  49.427 -53.064  1.00  0.00    -0.084 Cl
HETATM   25  C   UNL     1     -40.398  51.583 -54.240  1.00  0.00     0.024 A 
HETATM   26  C   UNL     1     -40.865  52.901 -54.250  1.00  0.00     0.010 A 
ENDBRANCH  19  20
ENDBRANCH  16  19
ENDBRANCH  12  15
TORSDOF 3
ENDMDL
MODEL 5
REMARK VINA RESULT:      -8.1      4.058      4.924
REMARK  3 active torsions:
REMARK  status: ('A' for Active; 'I' for Inactive)
REMARK    1  A    between atoms: C_12  and  C_13 
REMARK       I    between atoms: C_13  and  N_14 
REMARK    2  A    between atoms: N_14  and  C_15 
REMARK    3  A    between atoms: C_15  and  C_16 
ROOT
HETATM    1  C   UNL     1     -39.793  50.089 -54.355  1.00  0.00     0.001 A 
HETATM    2  C   UNL     1     -40.205  51.423 -54.312  1.00  0.00     0.016 A 
HETATM    3  C   UNL     1     -40.266  52.090 -53.086  1.00  0.00     0.026 A 
HETATM    4  C   UNL     1     -39.914  51.417 -51.899  1.00  0.00     0.081 A 
HETATM    5  O   UNL     1     -39.937  51.979 -50.640  1.00  0.00    -0.346 OA
HETATM    6  C   UNL     1     -40.343  53.368 -50.472  1.00  0.00     0.219 A 
HETATM    7  C   UNL     1     -40.713  54.078 -51.715  1.00  0.00     0.031 A 
HETATM    8  C   UNL     1     -40.673  53.463 -52.936  1.00  0.00     0.074 A 
HETATM    9  N   UNL     1     -41.069  54.390 -53.845  1.00  0.00    -0.276 N 
HETATM   10  H   UNL     1     -41.163  54.288 -54.850  1.00  0.00     0.189 HD
HETATM   11  N   UNL     1     -41.365  55.588 -53.291  1.00  0.00    -0.168 NA
HETATM   12  C   UNL     1     -41.145  55.401 -51.967  1.00  0.00     0.155 A 
HETATM   13  C   UNL     1     -39.505  50.085 -51.953  1.00  0.00     0.038 A 
HETATM   14  C   UNL     1     -39.445  49.422 -53.180  1.00  0.00     0.003 A 
ENDROOT
BRANCH  12  15
HETATM   15  C   UNL     1     -41.346  56.472 -50.979  1.00  0.00     0.272 C 
HETATM   16  N   UNL     1     -40.768  57.663 -51.344  1.00  0.00    -0.351 N 
HETATM   17  H   UNL     1     -40.301  57.673 -52.246  1.00  0.00     0.163 HD
HETATM   18  O   UNL     1     -41.969  56.301 -49.937  1.00  0.00    -0.266 OA
BRANCH  16  19
HETATM   19  C   UNL     1     -40.828  58.854 -50.538  1.00  0.00     0.161 C 
BRANCH  19  20
HETATM   20  C   UNL     1     -41.707  59.903 -51.169  1.00  0.00    -0.040 A 
HETATM   21  C   UNL     1     -41.860  59.955 -52.563  1.00  0.00     0.010 A 
HETATM   22  C   UNL     1     -42.686  60.915 -53.153  1.00  0.00     0.024 A 
HETATM   23  C   UNL     1     -43.368  61.825 -52.351  1.00  0.00     0.034 A 
HETATM   24 CL   UNL     1     -44.391  63.004 -53.075  1.00  0.00    -0.084 Cl
HETATM   25  C   UNL     1     -43.231  61.785 -50.965  1.00  0.00     0.024 A 
HETATM   26  C   UNL     1     -42.402  60.827 -50.376  1.00  0.00     0.010 A 
ENDBRANCH  19  20
ENDBRANCH  16  19
ENDBRANCH  12  15
TORSDOF 3
ENDMDL
MODEL 6
REMARK VINA RESULT:      -8.0      1.612      2.210
REMARK  3 active torsions:
REMARK  status: ('A' for Active; 'I' for Inactive)
REMARK    1  A    between atoms: C_12  and  C_13 
REMARK       I    between atoms: C_13  and  N_14 
REMARK    2  A    between atoms: N_14  and  C_15 
REMARK    3  A    between atoms: C_15  and  C_16 
ROOT
HETATM    1  C   UNL     1     -39.850  51.804 -51.069  1.00  0.00     0.001 A 
HETATM    2  C   UNL     1     -40.696  52.914 -51.139  1.00  0.00     0.016 A 
HETATM    3  C   UNL     1     -41.122  53.382 -52.384  1.00  0.00     0.026 A 
HETATM    4  C   UNL     1     -40.699  52.737 -53.563  1.00  0.00     0.081 A 
HETATM    5  O   UNL     1     -41.059  53.115 -54.839  1.00  0.00    -0.346 OA
HETATM    6  C   UNL     1     -41.945  54.255 -55.036  1.00  0.00     0.219 A 
HETATM    7  C   UNL     1     -42.392  54.935 -53.802  1.00  0.00     0.031 A 
HETATM    8  C   UNL     1     -41.996  54.514 -52.562  1.00  0.00     0.074 A 
HETATM    9  N   UNL     1     -42.582  55.349 -51.668  1.00  0.00    -0.276 N 
HETATM   10  H   UNL     1     -42.512  55.340 -50.656  1.00  0.00     0.189 HD
HETATM   11  N   UNL     1     -43.349  56.298 -52.250  1.00  0.00    -0.168 NA
HETATM   12  C   UNL     1     -43.236  56.047 -53.576  1.00  0.00     0.155 A 
HETATM   13  C   UNL     1     -39.853  51.631 -53.482  1.00  0.00     0.038 A 
HETATM   14  C   UNL     1     -39.429  51.165 -52.236  1.00  0.00     0.003 A 
ENDROOT
BRANCH  12  15
HETATM   15  C   UNL     1     -43.927  56.857 -54.591  1.00  0.00     0.272 C 
HETATM   16  N   UNL     1     -43.081  57.381 -55.537  1.00  0.00    -0.351 N 
HETATM   17  H   UNL     1     -42.100  57.133 -55.442  1.00  0.00     0.163 HD
HETATM   18  O   UNL     1     -45.140  57.037 -54.578  1.00  0.00    -0.266 OA
BRANCH  16  19
HETATM   19  C   UNL     1     -43.525  58.208 -56.627  1.00  0.00     0.161 C 
BRANCH  19  20
HETATM   20  C   UNL     1     -43.906  57.380 -57.828  1.00  0.00    -0.040 A 
HETATM   21  C   UNL     1     -45.127  57.603 -58.484  1.00  0.00     0.010 A 
HETATM   22  C   UNL     1     -45.478  56.850 -59.607  1.00  0.00     0.024 A 
HETATM   23  C   UNL     1     -44.607  55.874 -60.083  1.00  0.00     0.034 A 
HETATM   24 CL   UNL     1     -45.035  54.950 -61.470  1.00  0.00    -0.084 Cl
HETATM   25  C   UNL     1     -43.391  55.642 -59.447  1.00  0.00     0.024 A 
HETATM   26  C   UNL     1     -43.041  56.394 -58.321  1.00  0.00     0.010 A 
ENDBRANCH  19  20
ENDBRANCH  16  19
ENDBRANCH  12  15
TORSDOF 3
ENDMDL
MODEL 7
REMARK VINA RESULT:      -7.8      3.964      5.060
REMARK  3 active torsions:
REMARK  status: ('A' for Active; 'I' for Inactive)
REMARK    1  A    between atoms: C_12  and  C_13 
REMARK       I    between atoms: C_13  and  N_14 
REMARK    2  A    between atoms: N_14  and  C_15 
REMARK    3  A    between atoms: C_15  and  C_16 
ROOT
HETATM    1  C   UNL     1     -39.483  49.986 -51.991  1.00  0.00     0.001 A 
HETATM    2  C   UNL     1     -39.795  51.256 -51.498  1.00  0.00     0.016 A 
HETATM    3  C   UNL     1     -40.189  52.264 -52.380  1.00  0.00     0.026 A 
HETATM    4  C   UNL     1     -40.269  52.000 -53.762  1.00  0.00     0.081 A 
HETATM    5  O   UNL     1     -40.646  52.919 -54.718  1.00  0.00    -0.346 OA
HETATM    6  C   UNL     1     -41.002  54.276 -54.321  1.00  0.00     0.219 A 
HETATM    7  C   UNL     1     -40.919  54.557 -52.871  1.00  0.00     0.031 A 
HETATM    8  C   UNL     1     -40.534  53.601 -51.972  1.00  0.00     0.074 A 
HETATM    9  N   UNL     1     -40.567  54.190 -50.749  1.00  0.00    -0.276 N 
HETATM   10  H   UNL     1     -40.342  53.784 -49.847  1.00  0.00     0.189 HD
HETATM   11  N   UNL     1     -40.959  55.484 -50.792  1.00  0.00    -0.168 NA
HETATM   12  C   UNL     1     -41.180  55.718 -52.108  1.00  0.00     0.155 A 
HETATM   13  C   UNL     1     -39.955  50.729 -54.244  1.00  0.00     0.038 A 
HETATM   14  C   UNL     1     -39.562  49.724 -53.359  1.00  0.00     0.003 A 
ENDROOT
BRANCH  12  15
HETATM   15  C   UNL     1     -41.631  57.026 -52.607  1.00  0.00     0.272 C 
HETATM   16  N   UNL     1     -42.973  57.247 -52.416  1.00  0.00    -0.351 N 
HETATM   17  H   UNL     1     -43.482  56.508 -51.940  1.00  0.00     0.163 HD
HETATM   18  O   UNL     1     -40.871  57.828 -53.140  1.00  0.00    -0.266 OA
BRANCH  16  19
HETATM   19  C   UNL     1     -43.644  58.453 -52.824  1.00  0.00     0.161 C 
BRANCH  19  20
HETATM   20  C   UNL     1     -43.908  59.361 -51.650  1.00  0.00    -0.040 A 
HETATM   21  C   UNL     1     -42.920  60.254 -51.208  1.00  0.00     0.010 A 
HETATM   22  C   UNL     1     -43.165  61.110 -50.131  1.00  0.00     0.024 A 
HETATM   23  C   UNL     1     -44.403  61.081 -49.495  1.00  0.00     0.034 A 
HETATM   24 CL   UNL     1     -44.709  62.138 -48.172  1.00  0.00    -0.084 Cl
HETATM   25  C   UNL     1     -45.396  60.204 -49.923  1.00  0.00     0.024 A 
HETATM   26  C   UNL     1     -45.149  59.345 -50.998  1.00  0.00     0.010 A 
ENDBRANCH  19  20
ENDBRANCH  16  19
ENDBRANCH  12  15
TORSDOF 3
ENDMDL
MODEL 8
REMARK VINA RESULT:      -7.7      2.673      7.594
REMARK  3 active torsions:
REMARK  status: ('A' for Active; 'I' for Inactive)
REMARK    1  A    between atoms: C_12  and  C_13 
REMARK       I    between atoms: C_13  and  N_14 
REMARK    2  A    between atoms: N_14  and  C_15 
REMARK    3  A    between atoms: C_15  and  C_16 
ROOT
HETATM    1  C   UNL     1     -46.383  58.599 -58.909  1.00  0.00     0.001 A 
HETATM    2  C   UNL     1     -46.112  58.431 -57.549  1.00  0.00     0.016 A 
HETATM    3  C   UNL     1     -44.870  57.936 -57.146  1.00  0.00     0.026 A 
HETATM    4  C   UNL     1     -43.896  57.606 -58.109  1.00  0.00     0.081 A 
HETATM    5  O   UNL     1     -42.642  57.112 -57.822  1.00  0.00    -0.346 OA
HETATM    6  C   UNL     1     -42.243  56.902 -56.437  1.00  0.00     0.219 A 
HETATM    7  C   UNL     1     -43.262  57.247 -55.422  1.00  0.00     0.031 A 
HETATM    8  C   UNL     1     -44.493  57.730 -55.771  1.00  0.00     0.074 A 
HETATM    9  N   UNL     1     -45.167  57.937 -54.612  1.00  0.00    -0.276 N 
HETATM   10  H   UNL     1     -46.110  58.288 -54.484  1.00  0.00     0.189 HD
HETATM   11  N   UNL     1     -44.445  57.620 -53.513  1.00  0.00    -0.168 NA
HETATM   12  C   UNL     1     -43.260  57.191 -54.009  1.00  0.00     0.155 A 
HETATM   13  C   UNL     1     -44.178  57.777 -59.465  1.00  0.00     0.038 A 
HETATM   14  C   UNL     1     -45.420  58.272 -59.864  1.00  0.00     0.003 A 
ENDROOT
BRANCH  12  15
HETATM   15  C   UNL     1     -42.161  56.743 -53.140  1.00  0.00     0.272 C 
HETATM   16  N   UNL     1     -42.324  55.463 -52.672  1.00  0.00    -0.351 N 
HETATM   17  H   UNL     1     -43.156  54.976 -52.992  1.00  0.00     0.163 HD
HETATM   18  O   UNL     1     -41.200  57.457 -52.871  1.00  0.00    -0.266 OA
BRANCH  16  19
HETATM   19  C   UNL     1     -41.381  54.810 -51.803  1.00  0.00     0.161 C 
BRANCH  19  20
HETATM   20  C   UNL     1     -40.819  53.563 -52.438  1.00  0.00    -0.040 A 
HETATM   21  C   UNL     1     -39.991  52.704 -51.700  1.00  0.00     0.010 A 
HETATM   22  C   UNL     1     -39.480  51.539 -52.278  1.00  0.00     0.024 A 
HETATM   23  C   UNL     1     -39.802  51.224 -53.595  1.00  0.00     0.034 A 
HETATM   24 CL   UNL     1     -39.180  49.786 -54.307  1.00  0.00    -0.084 Cl
HETATM   25  C   UNL     1     -40.626  52.063 -54.340  1.00  0.00     0.024 A 
HETATM   26  C   UNL     1     -41.134  53.231 -53.763  1.00  0.00     0.010 A 
ENDBRANCH  19  20
ENDBRANCH  16  19
ENDBRANCH  12  15
TORSDOF 3
ENDMDL
MODEL 9
REMARK VINA RESULT:      -7.5      2.509      3.846
REMARK  3 active torsions:
REMARK  status: ('A' for Active; 'I' for Inactive)
REMARK    1  A    between atoms: C_12  and  C_13 
REMARK       I    between atoms: C_13  and  N_14 
REMARK    2  A    between atoms: N_14  and  C_15 
REMARK    3  A    between atoms: C_15  and  C_16 
ROOT
HETATM    1  C   UNL     1     -41.930  53.587 -50.283  1.00  0.00     0.001 A 
HETATM    2  C   UNL     1     -42.620  54.300 -51.267  1.00  0.00     0.016 A 
HETATM    3  C   UNL     1     -42.089  54.393 -52.555  1.00  0.00     0.026 A 
HETATM    4  C   UNL     1     -40.862  53.770 -52.859  1.00  0.00     0.081 A 
HETATM    5  O   UNL     1     -40.250  53.798 -54.094  1.00  0.00    -0.346 OA
HETATM    6  C   UNL     1     -40.880  54.506 -55.201  1.00  0.00     0.219 A 
HETATM    7  C   UNL     1     -42.168  55.161 -54.887  1.00  0.00     0.031 A 
HETATM    8  C   UNL     1     -42.723  55.101 -53.638  1.00  0.00     0.074 A 
HETATM    9  N   UNL     1     -43.885  55.798 -53.700  1.00  0.00    -0.276 N 
HETATM   10  H   UNL     1     -44.559  55.968 -52.962  1.00  0.00     0.189 HD
HETATM   11  N   UNL     1     -44.131  56.314 -54.926  1.00  0.00    -0.168 NA
HETATM   12  C   UNL     1     -43.068  55.922 -55.668  1.00  0.00     0.155 A 
HETATM   13  C   UNL     1     -40.182  53.061 -51.868  1.00  0.00     0.038 A 
HETATM   14  C   UNL     1     -40.716  52.970 -50.582  1.00  0.00     0.003 A 
ENDROOT
BRANCH  12  15
HETATM   15  C   UNL     1     -42.932  56.271 -57.091  1.00  0.00     0.272 C 
HETATM   16  N   UNL     1     -43.629  55.434 -57.925  1.00  0.00    -0.351 N 
HETATM   17  H   UNL     1     -44.167  54.701 -57.472  1.00  0.00     0.163 HD
HETATM   18  O   UNL     1     -42.257  57.220 -57.476  1.00  0.00    -0.266 OA
BRANCH  16  19
HETATM   19  C   UNL     1     -43.646  55.574 -59.357  1.00  0.00     0.161 C 
BRANCH  19  20
HETATM   20  C   UNL     1     -44.824  56.396 -59.817  1.00  0.00    -0.040 A 
HETATM   21  C   UNL     1     -44.725  57.794 -59.895  1.00  0.00     0.010 A 
HETATM   22  C   UNL     1     -45.808  58.559 -60.336  1.00  0.00     0.024 A 
HETATM   23  C   UNL     1     -46.993  57.929 -60.707  1.00  0.00     0.034 A 
HETATM   24 CL   UNL     1     -48.325  58.869 -61.256  1.00  0.00    -0.084 Cl
HETATM   25  C   UNL     1     -47.106  56.542 -60.640  1.00  0.00     0.024 A 
HETATM   26  C   UNL     1     -46.024  55.777 -60.195  1.00  0.00     0.010 A 
ENDBRANCH  19  20
ENDBRANCH  16  19
ENDBRANCH  12  15
TORSDOF 3
ENDMDL
MODEL 10
REMARK VINA RESULT:      -7.4      4.438      8.328
REMARK  3 active torsions:
REMARK  status: ('A' for Active; 'I' for Inactive)
REMARK    1  A    between atoms: C_12  and  C_13 
REMARK       I    between atoms: C_13  and  N_14 
REMARK    2  A    between atoms: N_14  and  C_15 
REMARK    3  A    between atoms: C_15  and  C_16 
ROOT
HETATM    1  C   UNL     1     -44.913  62.084 -49.493  1.00  0.00     0.001 A 
HETATM    2  C   UNL     1     -44.846  60.715 -49.763  1.00  0.00     0.016 A 
HETATM    3  C   UNL     1     -44.212  60.268 -50.925  1.00  0.00     0.026 A 
HETATM    4  C   UNL     1     -43.643  61.197 -51.819  1.00  0.00     0.081 A 
HETATM    5  O   UNL     1     -42.996  60.866 -52.991  1.00  0.00    -0.346 OA
HETATM    6  C   UNL     1     -42.858  59.467 -53.374  1.00  0.00     0.219 A 
HETATM    7  C   UNL     1     -43.453  58.489 -52.439  1.00  0.00     0.031 A 
HETATM    8  C   UNL     1     -44.088  58.881 -51.292  1.00  0.00     0.074 A 
HETATM    9  N   UNL     1     -44.507  57.746 -50.679  1.00  0.00    -0.276 N 
HETATM   10  H   UNL     1     -45.016  57.651 -49.806  1.00  0.00     0.189 HD
HETATM   11  N   UNL     1     -44.180  56.622 -51.357  1.00  0.00    -0.168 NA
HETATM   12  C   UNL     1     -43.524  57.077 -52.451  1.00  0.00     0.155 A 
HETATM   13  C   UNL     1     -43.717  62.562 -51.540  1.00  0.00     0.038 A 
HETATM   14  C   UNL     1     -44.350  63.004 -50.378  1.00  0.00     0.003 A 
ENDROOT
BRANCH  12  15
HETATM   15  C   UNL     1     -42.982  56.170 -53.475  1.00  0.00     0.272 C 
HETATM   16  N   UNL     1     -41.713  55.728 -53.192  1.00  0.00    -0.351 N 
HETATM   17  H   UNL     1     -41.314  56.052 -52.316  1.00  0.00     0.163 HD
HETATM   18  O   UNL     1     -43.615  55.851 -54.476  1.00  0.00    -0.266 OA
BRANCH  16  19
HETATM   19  C   UNL     1     -40.976  54.836 -54.047  1.00  0.00     0.161 C 
BRANCH  19  20
HETATM   20  C   UNL     1     -40.524  53.606 -53.301  1.00  0.00    -0.040 A 
HETATM   21  C   UNL     1     -40.505  53.595 -51.898  1.00  0.00     0.010 A 
HETATM   22  C   UNL     1     -40.103  52.453 -51.201  1.00  0.00     0.024 A 
HETATM   23  C   UNL     1     -39.724  51.313 -51.904  1.00  0.00     0.034 A 
HETATM   24 CL   UNL     1     -39.235  49.903 -51.048  1.00  0.00    -0.084 Cl
HETATM   25  C   UNL     1     -39.741  51.305 -53.297  1.00  0.00     0.024 A 
HETATM   26  C   UNL     1     -40.140  52.449 -53.994  1.00  0.00     0.010 A 
ENDBRANCH  19  20
ENDBRANCH  16  19
ENDBRANCH  12  15
TORSDOF 3
ENDMDL
