MODEL 1
REMARK VINA RESULT:      -7.9      0.000      0.000
REMARK  5 active torsions:
REMARK  status: ('A' for Active; 'I' for Inactive)
REMARK    1  A    between atoms: C_9  and  C_10 
REMARK    2  A    between atoms: C_11  and  O_12 
REMARK    3  A    between atoms: O_12  and  C_13 
REMARK    4  A    between atoms: C_20  and  C_21 
REMARK       I    between atoms: C_21  and  N_22 
REMARK    5  A    between atoms: N_22  and  C_23 
ROOT
HETATM    1  C   UNL     1     -43.538  55.427 -59.087  1.00  0.00     0.070 C 
HETATM    2  C   UNL     1     -43.148  56.674 -58.335  1.00  0.00     0.037 C 
HETATM    3  N   UNL     1     -43.192  57.855 -59.073  1.00  0.00    -0.192 N 
HETATM    4  C   UNL     1     -42.591  58.991 -58.664  1.00  0.00     0.725 A 
HETATM    5  N   UNL     1     -42.087  59.066 -57.393  1.00  0.00    -0.084 N 
HETATM    6  N   UNL     1     -41.409  60.220 -57.203  1.00  0.00    -0.149 NA
HETATM    7  C   UNL     1     -41.613  60.820 -58.382  1.00  0.00     0.275 A 
HETATM    8  N   UNL     1     -42.329  60.100 -59.305  1.00  0.00    -0.054 NA
HETATM    9  C   UNL     1     -42.204  57.992 -56.400  1.00  0.00     0.205 C 
HETATM   10  C   UNL     1     -42.701  56.702 -57.054  1.00  0.00     0.063 C 
HETATM   11  H   UNL     1     -43.430  57.781 -60.059  1.00  0.00     0.184 HD
ENDROOT
BRANCH   9  12
HETATM   12  C   UNL     1     -43.092  58.476 -55.250  1.00  0.00     0.005 A 
HETATM   13  C   UNL     1     -42.573  58.577 -53.942  1.00  0.00     0.083 A 
HETATM   14  C   UNL     1     -43.388  59.037 -52.902  1.00  0.00     0.037 A 
HETATM   15  C   UNL     1     -44.699  59.443 -53.155  1.00  0.00     0.003 A 
HETATM   16  C   UNL     1     -45.207  59.389 -54.448  1.00  0.00     0.001 A 
HETATM   17  C   UNL     1     -44.412  58.912 -55.488  1.00  0.00     0.012 A 
BRANCH  13  18
HETATM   18  O   UNL     1     -41.276  58.180 -53.769  1.00  0.00    -0.290 OA
BRANCH  18  19
HETATM   19  C   UNL     1     -40.574  58.685 -52.638  1.00  0.00     0.505 C 
HETATM   20  F   UNL     1     -40.569  57.783 -51.628  1.00  0.00    -0.184 F 
HETATM   21  F   UNL     1     -39.288  58.936 -52.984  1.00  0.00    -0.184 F 
ENDBRANCH  18  19
ENDBRANCH  13  18
ENDBRANCH   9  12
BRANCH  10  22
HETATM   22  C   UNL     1     -42.516  55.488 -56.213  1.00  0.00     0.256 C 
HETATM   23  N   UNL     1     -41.316  55.466 -55.535  1.00  0.00    -0.323 N 
HETATM   24  H   UNL     1     -40.677  56.231 -55.704  1.00  0.00     0.169 HD
HETATM   25  O   UNL     1     -43.395  54.636 -56.206  1.00  0.00    -0.267 OA
BRANCH  23  26
HETATM   26  C   UNL     1     -40.894  54.518 -54.578  1.00  0.00     0.035 A 
HETATM   27  C   UNL     1     -40.330  53.282 -54.900  1.00  0.00     0.029 A 
HETATM   28  C   UNL     1     -39.967  52.383 -53.891  1.00  0.00     0.002 A 
HETATM   29  C   UNL     1     -40.171  52.710 -52.552  1.00  0.00     0.000 A 
HETATM   30  C   UNL     1     -40.729  53.941 -52.221  1.00  0.00     0.002 A 
HETATM   31  C   UNL     1     -41.085  54.842 -53.228  1.00  0.00     0.029 A 
ENDBRANCH  23  26
ENDBRANCH  10  22
TORSDOF 5
ENDMDL
MODEL 2
REMARK VINA RESULT:      -7.8      1.317      1.766
REMARK  5 active torsions:
REMARK  status: ('A' for Active; 'I' for Inactive)
REMARK    1  A    between atoms: C_9  and  C_10 
REMARK    2  A    between atoms: C_11  and  O_12 
REMARK    3  A    between atoms: O_12  and  C_13 
REMARK    4  A    between atoms: C_20  and  C_21 
REMARK       I    between atoms: C_21  and  N_22 
REMARK    5  A    between atoms: N_22  and  C_23 
ROOT
HETATM    1  C   UNL     1     -43.327  55.101 -57.712  1.00  0.00     0.070 C 
HETATM    2  C   UNL     1     -43.064  56.347 -56.904  1.00  0.00     0.037 C 
HETATM    3  N   UNL     1     -43.130  57.544 -57.614  1.00  0.00    -0.192 N 
HETATM    4  C   UNL     1     -42.628  58.701 -57.137  1.00  0.00     0.725 A 
HETATM    5  N   UNL     1     -42.216  58.769 -55.834  1.00  0.00    -0.084 N 
HETATM    6  N   UNL     1     -41.623  59.955 -55.569  1.00  0.00    -0.149 NA
HETATM    7  C   UNL     1     -41.783  60.575 -56.744  1.00  0.00     0.275 A 
HETATM    8  N   UNL     1     -42.392  59.842 -57.731  1.00  0.00    -0.054 NA
HETATM    9  C   UNL     1     -42.333  57.662 -54.877  1.00  0.00     0.205 C 
HETATM   10  C   UNL     1     -42.707  56.364 -55.595  1.00  0.00     0.063 C 
HETATM   11  H   UNL     1     -43.298  57.485 -58.615  1.00  0.00     0.184 HD
ENDROOT
BRANCH   9  12
HETATM   12  C   UNL     1     -43.323  58.060 -53.779  1.00  0.00     0.005 A 
HETATM   13  C   UNL     1     -43.009  57.838 -52.421  1.00  0.00     0.083 A 
HETATM   14  C   UNL     1     -43.914  58.222 -51.425  1.00  0.00     0.037 A 
HETATM   15  C   UNL     1     -45.105  58.865 -51.759  1.00  0.00     0.003 A 
HETATM   16  C   UNL     1     -45.406  59.127 -53.091  1.00  0.00     0.001 A 
HETATM   17  C   UNL     1     -44.522  58.731 -54.094  1.00  0.00     0.012 A 
BRANCH  13  18
HETATM   18  O   UNL     1     -41.817  57.221 -52.165  1.00  0.00    -0.290 OA
BRANCH  18  19
HETATM   19  C   UNL     1     -41.076  57.657 -51.031  1.00  0.00     0.505 C 
HETATM   20  F   UNL     1     -40.526  56.606 -50.376  1.00  0.00    -0.184 F 
HETATM   21  F   UNL     1     -40.070  58.471 -51.437  1.00  0.00    -0.184 F 
ENDBRANCH  18  19
ENDBRANCH  13  18
ENDBRANCH   9  12
BRANCH  10  22
HETATM   22  C   UNL     1     -42.504  55.139 -54.774  1.00  0.00     0.256 C 
HETATM   23  N   UNL     1     -41.179  54.860 -54.520  1.00  0.00    -0.323 N 
HETATM   24  H   UNL     1     -40.490  55.470 -54.940  1.00  0.00     0.169 HD
HETATM   25  O   UNL     1     -43.485  54.497 -54.423  1.00  0.00    -0.267 OA
BRANCH  23  26
HETATM   26  C   UNL     1     -40.667  53.844 -53.684  1.00  0.00     0.035 A 
HETATM   27  C   UNL     1     -40.553  53.957 -52.297  1.00  0.00     0.029 A 
HETATM   28  C   UNL     1     -40.005  52.915 -51.542  1.00  0.00     0.002 A 
HETATM   29  C   UNL     1     -39.561  51.752 -52.168  1.00  0.00     0.000 A 
HETATM   30  C   UNL     1     -39.673  51.628 -53.550  1.00  0.00     0.002 A 
HETATM   31  C   UNL     1     -40.227  52.666 -54.303  1.00  0.00     0.029 A 
ENDBRANCH  23  26
ENDBRANCH  10  22
TORSDOF 5
ENDMDL
MODEL 3
REMARK VINA RESULT:      -7.8      2.959      5.883
REMARK  5 active torsions:
REMARK  status: ('A' for Active; 'I' for Inactive)
REMARK    1  A    between atoms: C_9  and  C_10 
REMARK    2  A    between atoms: C_11  and  O_12 
REMARK    3  A    between atoms: O_12  and  C_13 
REMARK    4  A    between atoms: C_20  and  C_21 
REMARK       I    between atoms: C_21  and  N_22 
REMARK    5  A    between atoms: N_22  and  C_23 
ROOT
HETATM    1  C   UNL     1     -45.117  59.714 -53.669  1.00  0.00     0.070 C 
HETATM    2  C   UNL     1     -43.893  59.126 -53.015  1.00  0.00     0.037 C 
HETATM    3  N   UNL     1     -43.480  59.756 -51.844  1.00  0.00    -0.192 N 
HETATM    4  C   UNL     1     -42.256  59.569 -51.310  1.00  0.00     0.725 A 
HETATM    5  N   UNL     1     -41.451  58.579 -51.804  1.00  0.00    -0.084 N 
HETATM    6  N   UNL     1     -40.221  58.622 -51.242  1.00  0.00    -0.149 NA
HETATM    7  C   UNL     1     -40.388  59.619 -50.366  1.00  0.00     0.275 A 
HETATM    8  N   UNL     1     -41.618  60.227 -50.376  1.00  0.00    -0.054 NA
HETATM    9  C   UNL     1     -41.852  57.647 -52.864  1.00  0.00     0.205 C 
HETATM   10  C   UNL     1     -43.155  58.106 -53.522  1.00  0.00     0.063 C 
HETATM   11  H   UNL     1     -43.996  60.582 -51.551  1.00  0.00     0.184 HD
ENDROOT
BRANCH   9  12
HETATM   12  C   UNL     1     -41.927  56.234 -52.280  1.00  0.00     0.005 A 
HETATM   13  C   UNL     1     -41.166  55.188 -52.844  1.00  0.00     0.083 A 
HETATM   14  C   UNL     1     -41.228  53.904 -52.290  1.00  0.00     0.037 A 
HETATM   15  C   UNL     1     -42.001  53.658 -51.156  1.00  0.00     0.003 A 
HETATM   16  C   UNL     1     -42.721  54.690 -50.566  1.00  0.00     0.001 A 
HETATM   17  C   UNL     1     -42.684  55.969 -51.120  1.00  0.00     0.012 A 
BRANCH  13  18
HETATM   18  O   UNL     1     -40.416  55.504 -53.942  1.00  0.00    -0.290 OA
BRANCH  18  19
HETATM   19  C   UNL     1     -40.726  54.847 -55.167  1.00  0.00     0.505 C 
HETATM   20  F   UNL     1     -39.925  53.772 -55.358  1.00  0.00    -0.184 F 
HETATM   21  F   UNL     1     -42.010  54.413 -55.131  1.00  0.00    -0.184 F 
ENDBRANCH  18  19
ENDBRANCH  13  18
ENDBRANCH   9  12
BRANCH  10  22
HETATM   22  C   UNL     1     -43.447  57.434 -54.818  1.00  0.00     0.256 C 
HETATM   23  N   UNL     1     -42.719  57.937 -55.875  1.00  0.00    -0.323 N 
HETATM   24  H   UNL     1     -42.109  58.720 -55.683  1.00  0.00     0.169 HD
HETATM   25  O   UNL     1     -44.285  56.542 -54.843  1.00  0.00    -0.267 OA
BRANCH  23  26
HETATM   26  C   UNL     1     -42.684  57.443 -57.197  1.00  0.00     0.035 A 
HETATM   27  C   UNL     1     -43.184  56.196 -57.578  1.00  0.00     0.029 A 
HETATM   28  C   UNL     1     -43.083  55.766 -58.906  1.00  0.00     0.002 A 
HETATM   29  C   UNL     1     -42.475  56.577 -59.862  1.00  0.00     0.000 A 
HETATM   30  C   UNL     1     -41.976  57.823 -59.493  1.00  0.00     0.002 A 
HETATM   31  C   UNL     1     -42.084  58.255 -58.168  1.00  0.00     0.029 A 
ENDBRANCH  23  26
ENDBRANCH  10  22
TORSDOF 5
ENDMDL
MODEL 4
REMARK VINA RESULT:      -7.7      2.886      6.345
REMARK  5 active torsions:
REMARK  status: ('A' for Active; 'I' for Inactive)
REMARK    1  A    between atoms: C_9  and  C_10 
REMARK    2  A    between atoms: C_11  and  O_12 
REMARK    3  A    between atoms: O_12  and  C_13 
REMARK    4  A    between atoms: C_20  and  C_21 
REMARK       I    between atoms: C_21  and  N_22 
REMARK    5  A    between atoms: N_22  and  C_23 
ROOT
HETATM    1  C   UNL     1     -40.696  52.974 -54.490  1.00  0.00     0.070 C 
HETATM    2  C   UNL     1     -40.957  53.820 -53.270  1.00  0.00     0.037 C 
HETATM    3  N   UNL     1     -40.158  53.538 -52.164  1.00  0.00    -0.192 N 
HETATM    4  C   UNL     1     -40.457  53.970 -50.922  1.00  0.00     0.725 A 
HETATM    5  N   UNL     1     -41.462  54.882 -50.750  1.00  0.00    -0.084 N 
HETATM    6  N   UNL     1     -41.708  55.098 -49.438  1.00  0.00    -0.149 NA
HETATM    7  C   UNL     1     -40.761  54.333 -48.883  1.00  0.00     0.275 A 
HETATM    8  N   UNL     1     -39.975  53.625 -49.756  1.00  0.00    -0.054 NA
HETATM    9  C   UNL     1     -42.222  55.483 -51.852  1.00  0.00     0.205 C 
HETATM   10  C   UNL     1     -41.938  54.753 -53.166  1.00  0.00     0.063 C 
HETATM   11  H   UNL     1     -39.505  52.763 -52.245  1.00  0.00     0.184 HD
ENDROOT
BRANCH   9  12
HETATM   12  C   UNL     1     -41.915  56.982 -51.907  1.00  0.00     0.005 A 
HETATM   13  C   UNL     1     -42.828  57.917 -51.375  1.00  0.00     0.083 A 
HETATM   14  C   UNL     1     -42.529  59.283 -51.414  1.00  0.00     0.037 A 
HETATM   15  C   UNL     1     -41.313  59.728 -51.934  1.00  0.00     0.003 A 
HETATM   16  C   UNL     1     -40.387  58.813 -52.421  1.00  0.00     0.001 A 
HETATM   17  C   UNL     1     -40.683  57.450 -52.407  1.00  0.00     0.012 A 
BRANCH  13  18
HETATM   18  O   UNL     1     -43.991  57.410 -50.865  1.00  0.00    -0.290 OA
BRANCH  18  19
HETATM   19  C   UNL     1     -45.191  57.646 -51.593  1.00  0.00     0.505 C 
HETATM   20  F   UNL     1     -45.692  58.875 -51.319  1.00  0.00    -0.184 F 
HETATM   21  F   UNL     1     -44.930  57.586 -52.922  1.00  0.00    -0.184 F 
ENDBRANCH  18  19
ENDBRANCH  13  18
ENDBRANCH   9  12
BRANCH  10  22
HETATM   22  C   UNL     1     -42.913  55.056 -54.249  1.00  0.00     0.256 C 
HETATM   23  N   UNL     1     -42.445  55.970 -55.170  1.00  0.00    -0.323 N 
HETATM   24  H   UNL     1     -41.530  56.367 -55.002  1.00  0.00     0.169 HD
HETATM   25  O   UNL     1     -44.008  54.511 -54.226  1.00  0.00    -0.267 OA
BRANCH  23  26
HETATM   26  C   UNL     1     -43.078  56.376 -56.365  1.00  0.00     0.035 A 
HETATM   27  C   UNL     1     -43.853  57.531 -56.484  1.00  0.00     0.029 A 
HETATM   28  C   UNL     1     -44.475  57.847 -57.697  1.00  0.00     0.002 A 
HETATM   29  C   UNL     1     -44.330  57.008 -58.800  1.00  0.00     0.000 A 
HETATM   30  C   UNL     1     -43.556  55.856 -58.692  1.00  0.00     0.002 A 
HETATM   31  C   UNL     1     -42.930  55.544 -57.482  1.00  0.00     0.029 A 
ENDBRANCH  23  26
ENDBRANCH  10  22
TORSDOF 5
ENDMDL
MODEL 5
REMARK VINA RESULT:      -7.6      3.115      5.100
REMARK  5 active torsions:
REMARK  status: ('A' for Active; 'I' for Inactive)
REMARK    1  A    between atoms: C_9  and  C_10 
REMARK    2  A    between atoms: C_11  and  O_12 
REMARK    3  A    between atoms: O_12  and  C_13 
REMARK    4  A    between atoms: C_20  and  C_21 
REMARK       I    between atoms: C_21  and  N_22 
REMARK    5  A    between atoms: N_22  and  C_23 
ROOT
HETATM    1  C   UNL     1     -40.585  57.243 -50.338  1.00  0.00     0.070 C 
HETATM    2  C   UNL     1     -41.687  57.642 -51.288  1.00  0.00     0.037 C 
HETATM    3  N   UNL     1     -42.559  58.619 -50.814  1.00  0.00    -0.192 N 
HETATM    4  C   UNL     1     -43.755  58.865 -51.387  1.00  0.00     0.725 A 
HETATM    5  N   UNL     1     -44.056  58.289 -52.591  1.00  0.00    -0.084 N 
HETATM    6  N   UNL     1     -45.337  58.538 -52.947  1.00  0.00    -0.149 NA
HETATM    7  C   UNL     1     -45.719  59.333 -51.940  1.00  0.00     0.275 A 
HETATM    8  N   UNL     1     -44.782  59.556 -50.964  1.00  0.00    -0.054 NA
HETATM    9  C   UNL     1     -43.128  57.444 -53.351  1.00  0.00     0.205 C 
HETATM   10  C   UNL     1     -41.913  57.072 -52.499  1.00  0.00     0.063 C 
HETATM   11  H   UNL     1     -42.421  58.947 -49.862  1.00  0.00     0.184 HD
ENDROOT
BRANCH   9  12
HETATM   12  C   UNL     1     -42.763  58.158 -54.656  1.00  0.00     0.005 A 
HETATM   13  C   UNL     1     -43.001  57.536 -55.900  1.00  0.00     0.083 A 
HETATM   14  C   UNL     1     -42.681  58.205 -57.086  1.00  0.00     0.037 A 
HETATM   15  C   UNL     1     -42.170  59.503 -57.053  1.00  0.00     0.003 A 
HETATM   16  C   UNL     1     -41.972  60.142 -55.834  1.00  0.00     0.001 A 
HETATM   17  C   UNL     1     -42.267  59.478 -54.644  1.00  0.00     0.012 A 
BRANCH  13  18
HETATM   18  O   UNL     1     -43.521  56.272 -55.859  1.00  0.00    -0.290 OA
BRANCH  18  19
HETATM   19  C   UNL     1     -42.870  55.264 -56.625  1.00  0.00     0.505 C 
HETATM   20  F   UNL     1     -41.563  55.164 -56.285  1.00  0.00    -0.184 F 
HETATM   21  F   UNL     1     -43.459  54.067 -56.383  1.00  0.00    -0.184 F 
ENDBRANCH  18  19
ENDBRANCH  13  18
ENDBRANCH   9  12
BRANCH  10  22
HETATM   22  C   UNL     1     -41.106  55.950 -53.052  1.00  0.00     0.256 C 
HETATM   23  N   UNL     1     -41.368  54.737 -52.452  1.00  0.00    -0.323 N 
HETATM   24  H   UNL     1     -42.029  54.733 -51.687  1.00  0.00     0.169 HD
HETATM   25  O   UNL     1     -40.300  56.188 -53.941  1.00  0.00    -0.267 OA
BRANCH  23  26
HETATM   26  C   UNL     1     -40.856  53.475 -52.824  1.00  0.00     0.035 A 
HETATM   27  C   UNL     1     -41.171  52.827 -54.020  1.00  0.00     0.029 A 
HETATM   28  C   UNL     1     -40.646  51.560 -54.301  1.00  0.00     0.002 A 
HETATM   29  C   UNL     1     -39.806  50.929 -53.386  1.00  0.00     0.000 A 
HETATM   30  C   UNL     1     -39.483  51.569 -52.192  1.00  0.00     0.002 A 
HETATM   31  C   UNL     1     -40.002  52.836 -51.915  1.00  0.00     0.029 A 
ENDBRANCH  23  26
ENDBRANCH  10  22
TORSDOF 5
ENDMDL
MODEL 6
REMARK VINA RESULT:      -7.5      1.780      2.489
REMARK  5 active torsions:
REMARK  status: ('A' for Active; 'I' for Inactive)
REMARK    1  A    between atoms: C_9  and  C_10 
REMARK    2  A    between atoms: C_11  and  O_12 
REMARK    3  A    between atoms: O_12  and  C_13 
REMARK    4  A    between atoms: C_20  and  C_21 
REMARK       I    between atoms: C_21  and  N_22 
REMARK    5  A    between atoms: N_22  and  C_23 
ROOT
HETATM    1  C   UNL     1     -43.195  54.180 -55.826  1.00  0.00     0.070 C 
HETATM    2  C   UNL     1     -43.094  55.684 -55.808  1.00  0.00     0.037 C 
HETATM    3  N   UNL     1     -43.832  56.345 -56.787  1.00  0.00    -0.192 N 
HETATM    4  C   UNL     1     -43.620  57.636 -57.111  1.00  0.00     0.725 A 
HETATM    5  N   UNL     1     -42.797  58.399 -56.328  1.00  0.00    -0.084 N 
HETATM    6  N   UNL     1     -42.597  59.621 -56.873  1.00  0.00    -0.149 NA
HETATM    7  C   UNL     1     -43.393  59.542 -57.946  1.00  0.00     0.275 A 
HETATM    8  N   UNL     1     -44.036  58.344 -58.129  1.00  0.00    -0.054 NA
HETATM    9  C   UNL     1     -42.154  57.917 -55.100  1.00  0.00     0.205 C 
HETATM   10  C   UNL     1     -42.298  56.400 -54.974  1.00  0.00     0.063 C 
HETATM   11  H   UNL     1     -44.335  55.771 -57.461  1.00  0.00     0.184 HD
ENDROOT
BRANCH   9  12
HETATM   12  C   UNL     1     -42.726  58.687 -53.907  1.00  0.00     0.005 A 
HETATM   13  C   UNL     1     -41.894  59.518 -53.128  1.00  0.00     0.083 A 
HETATM   14  C   UNL     1     -42.431  60.231 -52.051  1.00  0.00     0.037 A 
HETATM   15  C   UNL     1     -43.795  60.164 -51.766  1.00  0.00     0.003 A 
HETATM   16  C   UNL     1     -44.633  59.382 -52.553  1.00  0.00     0.001 A 
HETATM   17  C   UNL     1     -44.106  58.651 -53.617  1.00  0.00     0.012 A 
BRANCH  13  18
HETATM   18  O   UNL     1     -40.571  59.551 -53.474  1.00  0.00    -0.290 OA
BRANCH  18  19
HETATM   19  C   UNL     1     -39.680  58.697 -52.765  1.00  0.00     0.505 C 
HETATM   20  F   UNL     1     -38.431  59.219 -52.731  1.00  0.00    -0.184 F 
HETATM   21  F   UNL     1     -40.112  58.559 -51.487  1.00  0.00    -0.184 F 
ENDBRANCH  18  19
ENDBRANCH  13  18
ENDBRANCH   9  12
BRANCH  10  22
HETATM   22  C   UNL     1     -41.391  55.788 -53.964  1.00  0.00     0.256 C 
HETATM   23  N   UNL     1     -41.993  55.573 -52.743  1.00  0.00    -0.323 N 
HETATM   24  H   UNL     1     -42.950  55.883 -52.639  1.00  0.00     0.169 HD
HETATM   25  O   UNL     1     -40.232  55.555 -54.280  1.00  0.00    -0.267 OA
BRANCH  23  26
HETATM   26  C   UNL     1     -41.440  54.911 -51.626  1.00  0.00     0.035 A 
HETATM   27  C   UNL     1     -41.010  53.583 -51.639  1.00  0.00     0.029 A 
HETATM   28  C   UNL     1     -40.502  52.989 -50.478  1.00  0.00     0.002 A 
HETATM   29  C   UNL     1     -40.424  53.717 -49.294  1.00  0.00     0.000 A 
HETATM   30  C   UNL     1     -40.846  55.043 -49.270  1.00  0.00     0.002 A 
HETATM   31  C   UNL     1     -41.347  55.638 -50.431  1.00  0.00     0.029 A 
ENDBRANCH  23  26
ENDBRANCH  10  22
TORSDOF 5
ENDMDL
MODEL 7
REMARK VINA RESULT:      -7.3      3.323      5.231
REMARK  5 active torsions:
REMARK  status: ('A' for Active; 'I' for Inactive)
REMARK    1  A    between atoms: C_9  and  C_10 
REMARK    2  A    between atoms: C_11  and  O_12 
REMARK    3  A    between atoms: O_12  and  C_13 
REMARK    4  A    between atoms: C_20  and  C_21 
REMARK       I    between atoms: C_21  and  N_22 
REMARK    5  A    between atoms: N_22  and  C_23 
ROOT
HETATM    1  C   UNL     1     -44.244  60.003 -53.918  1.00  0.00     0.070 C 
HETATM    2  C   UNL     1     -44.600  59.405 -55.256  1.00  0.00     0.037 C 
HETATM    3  N   UNL     1     -45.660  60.017 -55.921  1.00  0.00    -0.192 N 
HETATM    4  C   UNL     1     -46.303  59.435 -56.955  1.00  0.00     0.725 A 
HETATM    5  N   UNL     1     -45.785  58.299 -57.515  1.00  0.00    -0.084 N 
HETATM    6  N   UNL     1     -46.623  57.786 -58.444  1.00  0.00    -0.149 NA
HETATM    7  C   UNL     1     -47.590  58.712 -58.438  1.00  0.00     0.275 A 
HETATM    8  N   UNL     1     -47.433  59.737 -57.540  1.00  0.00    -0.054 NA
HETATM    9  C   UNL     1     -44.522  57.681 -57.098  1.00  0.00     0.205 C 
HETATM   10  C   UNL     1     -44.020  58.303 -55.794  1.00  0.00     0.063 C 
HETATM   11  H   UNL     1     -46.139  60.775 -55.440  1.00  0.00     0.184 HD
ENDROOT
BRANCH   9  12
HETATM   12  C   UNL     1     -43.517  57.781 -58.249  1.00  0.00     0.005 A 
HETATM   13  C   UNL     1     -43.165  56.635 -58.992  1.00  0.00     0.083 A 
HETATM   14  C   UNL     1     -42.260  56.742 -60.054  1.00  0.00     0.037 A 
HETATM   15  C   UNL     1     -41.735  57.982 -60.415  1.00  0.00     0.003 A 
HETATM   16  C   UNL     1     -42.108  59.127 -59.718  1.00  0.00     0.001 A 
HETATM   17  C   UNL     1     -42.993  59.030 -58.645  1.00  0.00     0.012 A 
BRANCH  13  18
HETATM   18  O   UNL     1     -43.731  55.456 -58.594  1.00  0.00    -0.290 OA
BRANCH  18  19
HETATM   19  C   UNL     1     -44.361  54.655 -59.589  1.00  0.00     0.505 C 
HETATM   20  F   UNL     1     -44.635  53.417 -59.114  1.00  0.00    -0.184 F 
HETATM   21  F   UNL     1     -45.531  55.233 -59.956  1.00  0.00    -0.184 F 
ENDBRANCH  18  19
ENDBRANCH  13  18
ENDBRANCH   9  12
BRANCH  10  22
HETATM   22  C   UNL     1     -42.953  57.513 -55.119  1.00  0.00     0.256 C 
HETATM   23  N   UNL     1     -43.247  56.171 -55.012  1.00  0.00    -0.323 N 
HETATM   24  H   UNL     1     -44.150  55.867 -55.352  1.00  0.00     0.169 HD
HETATM   25  O   UNL     1     -41.956  58.096 -54.714  1.00  0.00    -0.267 OA
BRANCH  23  26
HETATM   26  C   UNL     1     -42.400  55.149 -54.531  1.00  0.00     0.035 A 
HETATM   27  C   UNL     1     -41.340  54.605 -55.260  1.00  0.00     0.029 A 
HETATM   28  C   UNL     1     -40.566  53.571 -54.723  1.00  0.00     0.002 A 
HETATM   29  C   UNL     1     -40.848  53.068 -53.455  1.00  0.00     0.000 A 
HETATM   30  C   UNL     1     -41.900  53.606 -52.718  1.00  0.00     0.002 A 
HETATM   31  C   UNL     1     -42.669  54.643 -53.252  1.00  0.00     0.029 A 
ENDBRANCH  23  26
ENDBRANCH  10  22
TORSDOF 5
ENDMDL
MODEL 8
REMARK VINA RESULT:      -7.2      3.125      4.824
REMARK  5 active torsions:
REMARK  status: ('A' for Active; 'I' for Inactive)
REMARK    1  A    between atoms: C_9  and  C_10 
REMARK    2  A    between atoms: C_11  and  O_12 
REMARK    3  A    between atoms: O_12  and  C_13 
REMARK    4  A    between atoms: C_20  and  C_21 
REMARK       I    between atoms: C_21  and  N_22 
REMARK    5  A    between atoms: N_22  and  C_23 
ROOT
HETATM    1  C   UNL     1     -41.018  56.248 -49.877  1.00  0.00     0.070 C 
HETATM    2  C   UNL     1     -42.017  56.873 -50.818  1.00  0.00     0.037 C 
HETATM    3  N   UNL     1     -42.342  58.200 -50.549  1.00  0.00    -0.192 N 
HETATM    4  C   UNL     1     -43.423  58.807 -51.080  1.00  0.00     0.725 A 
HETATM    5  N   UNL     1     -44.124  58.181 -52.075  1.00  0.00    -0.084 N 
HETATM    6  N   UNL     1     -45.243  58.870 -52.393  1.00  0.00    -0.149 NA
HETATM    7  C   UNL     1     -45.107  59.937 -51.597  1.00  0.00     0.275 A 
HETATM    8  N   UNL     1     -44.008  59.936 -50.776  1.00  0.00    -0.054 NA
HETATM    9  C   UNL     1     -43.744  56.889 -52.658  1.00  0.00     0.205 C 
HETATM   10  C   UNL     1     -42.649  56.220 -51.826  1.00  0.00     0.063 C 
HETATM   11  H   UNL     1     -41.927  58.625 -49.723  1.00  0.00     0.184 HD
ENDROOT
BRANCH   9  12
HETATM   12  C   UNL     1     -43.354  57.102 -54.124  1.00  0.00     0.005 A 
HETATM   13  C   UNL     1     -42.045  57.504 -54.463  1.00  0.00     0.083 A 
HETATM   14  C   UNL     1     -41.695  57.678 -55.806  1.00  0.00     0.037 A 
HETATM   15  C   UNL     1     -42.617  57.414 -56.819  1.00  0.00     0.003 A 
HETATM   16  C   UNL     1     -43.897  56.976 -56.499  1.00  0.00     0.001 A 
HETATM   17  C   UNL     1     -44.264  56.818 -55.163  1.00  0.00     0.012 A 
BRANCH  13  18
HETATM   18  O   UNL     1     -41.189  57.728 -53.421  1.00  0.00    -0.290 OA
BRANCH  18  19
HETATM   19  C   UNL     1     -40.510  58.979 -53.378  1.00  0.00     0.505 C 
HETATM   20  F   UNL     1     -41.390  60.007 -53.333  1.00  0.00    -0.184 F 
HETATM   21  F   UNL     1     -39.741  59.034 -52.264  1.00  0.00    -0.184 F 
ENDBRANCH  18  19
ENDBRANCH  13  18
ENDBRANCH   9  12
BRANCH  10  22
HETATM   22  C   UNL     1     -42.454  54.777 -52.131  1.00  0.00     0.256 C 
HETATM   23  N   UNL     1     -41.221  54.491 -52.676  1.00  0.00    -0.323 N 
HETATM   24  H   UNL     1     -40.602  55.272 -52.853  1.00  0.00     0.169 HD
HETATM   25  O   UNL     1     -43.370  53.998 -51.902  1.00  0.00    -0.267 OA
BRANCH  23  26
HETATM   26  C   UNL     1     -40.692  53.215 -52.967  1.00  0.00     0.035 A 
HETATM   27  C   UNL     1     -40.808  52.586 -54.207  1.00  0.00     0.029 A 
HETATM   28  C   UNL     1     -40.283  51.304 -54.406  1.00  0.00     0.002 A 
HETATM   29  C   UNL     1     -39.642  50.639 -53.363  1.00  0.00     0.000 A 
HETATM   30  C   UNL     1     -39.518  51.259 -52.123  1.00  0.00     0.002 A 
HETATM   31  C   UNL     1     -40.036  52.542 -51.927  1.00  0.00     0.029 A 
ENDBRANCH  23  26
ENDBRANCH  10  22
TORSDOF 5
ENDMDL
MODEL 9
REMARK VINA RESULT:      -7.2      2.895      4.921
REMARK  5 active torsions:
REMARK  status: ('A' for Active; 'I' for Inactive)
REMARK    1  A    between atoms: C_9  and  C_10 
REMARK    2  A    between atoms: C_11  and  O_12 
REMARK    3  A    between atoms: O_12  and  C_13 
REMARK    4  A    between atoms: C_20  and  C_21 
REMARK       I    between atoms: C_21  and  N_22 
REMARK    5  A    between atoms: N_22  and  C_23 
ROOT
HETATM    1  C   UNL     1     -41.049  59.710 -51.050  1.00  0.00     0.070 C 
HETATM    2  C   UNL     1     -42.010  59.771 -52.210  1.00  0.00     0.037 C 
HETATM    3  N   UNL     1     -42.977  60.770 -52.133  1.00  0.00    -0.192 N 
HETATM    4  C   UNL     1     -44.083  60.772 -52.906  1.00  0.00     0.725 A 
HETATM    5  N   UNL     1     -44.180  59.887 -53.945  1.00  0.00    -0.084 N 
HETATM    6  N   UNL     1     -45.401  59.942 -54.523  1.00  0.00    -0.149 NA
HETATM    7  C   UNL     1     -45.957  60.938 -53.822  1.00  0.00     0.275 A 
HETATM    8  N   UNL     1     -45.185  61.472 -52.822  1.00  0.00    -0.054 NA
HETATM    9  C   UNL     1     -43.119  58.947 -54.323  1.00  0.00     0.205 C 
HETATM   10  C   UNL     1     -42.032  58.895 -53.247  1.00  0.00     0.063 C 
HETATM   11  H   UNL     1     -42.994  61.340 -51.291  1.00  0.00     0.184 HD
ENDROOT
BRANCH   9  12
HETATM   12  C   UNL     1     -42.589  59.328 -55.708  1.00  0.00     0.005 A 
HETATM   13  C   UNL     1     -42.500  58.359 -56.729  1.00  0.00     0.083 A 
HETATM   14  C   UNL     1     -42.032  58.722 -57.997  1.00  0.00     0.037 A 
HETATM   15  C   UNL     1     -41.695  60.047 -58.275  1.00  0.00     0.003 A 
HETATM   16  C   UNL     1     -41.820  61.019 -57.289  1.00  0.00     0.001 A 
HETATM   17  C   UNL     1     -42.266  60.665 -56.016  1.00  0.00     0.012 A 
BRANCH  13  18
HETATM   18  O   UNL     1     -42.863  57.085 -56.393  1.00  0.00    -0.290 OA
BRANCH  18  19
HETATM   19  C   UNL     1     -43.062  56.151 -57.449  1.00  0.00     0.505 C 
HETATM   20  F   UNL     1     -43.156  54.888 -56.971  1.00  0.00    -0.184 F 
HETATM   21  F   UNL     1     -44.218  56.443 -58.094  1.00  0.00    -0.184 F 
ENDBRANCH  18  19
ENDBRANCH  13  18
ENDBRANCH   9  12
BRANCH  10  22
HETATM   22  C   UNL     1     -41.113  57.732 -53.371  1.00  0.00     0.256 C 
HETATM   23  N   UNL     1     -41.765  56.519 -53.430  1.00  0.00    -0.323 N 
HETATM   24  H   UNL     1     -42.773  56.532 -53.340  1.00  0.00     0.169 HD
HETATM   25  O   UNL     1     -39.906  57.934 -53.391  1.00  0.00    -0.267 OA
BRANCH  23  26
HETATM   26  C   UNL     1     -41.189  55.251 -53.660  1.00  0.00     0.035 A 
HETATM   27  C   UNL     1     -40.625  54.859 -54.876  1.00  0.00     0.029 A 
HETATM   28  C   UNL     1     -40.101  53.571 -55.034  1.00  0.00     0.002 A 
HETATM   29  C   UNL     1     -40.141  52.663 -53.978  1.00  0.00     0.000 A 
HETATM   30  C   UNL     1     -40.698  53.045 -52.761  1.00  0.00     0.002 A 
HETATM   31  C   UNL     1     -41.215  54.333 -52.601  1.00  0.00     0.029 A 
ENDBRANCH  23  26
ENDBRANCH  10  22
TORSDOF 5
ENDMDL
MODEL 10
REMARK VINA RESULT:      -7.1      2.882      6.324
REMARK  5 active torsions:
REMARK  status: ('A' for Active; 'I' for Inactive)
REMARK    1  A    between atoms: C_9  and  C_10 
REMARK    2  A    between atoms: C_11  and  O_12 
REMARK    3  A    between atoms: O_12  and  C_13 
REMARK    4  A    between atoms: C_20  and  C_21 
REMARK       I    between atoms: C_21  and  N_22 
REMARK    5  A    between atoms: N_22  and  C_23 
ROOT
HETATM    1  C   UNL     1     -45.202  58.294 -51.589  1.00  0.00     0.070 C 
HETATM    2  C   UNL     1     -43.747  58.102 -51.932  1.00  0.00     0.037 C 
HETATM    3  N   UNL     1     -42.842  58.548 -50.971  1.00  0.00    -0.192 N 
HETATM    4  C   UNL     1     -41.534  58.739 -51.237  1.00  0.00     0.725 A 
HETATM    5  N   UNL     1     -41.017  58.295 -52.424  1.00  0.00    -0.084 N 
HETATM    6  N   UNL     1     -39.732  58.687 -52.575  1.00  0.00    -0.149 NA
HETATM    7  C   UNL     1     -39.524  59.299 -51.403  1.00  0.00     0.275 A 
HETATM    8  N   UNL     1     -40.602  59.355 -50.556  1.00  0.00    -0.054 NA
HETATM    9  C   UNL     1     -41.790  57.561 -53.432  1.00  0.00     0.205 C 
HETATM   10  C   UNL     1     -43.284  57.608 -53.108  1.00  0.00     0.063 C 
HETATM   11  H   UNL     1     -43.224  59.008 -50.148  1.00  0.00     0.184 HD
ENDROOT
BRANCH   9  12
HETATM   12  C   UNL     1     -41.233  56.138 -53.543  1.00  0.00     0.005 A 
HETATM   13  C   UNL     1     -41.374  55.231 -52.473  1.00  0.00     0.083 A 
HETATM   14  C   UNL     1     -40.878  53.928 -52.592  1.00  0.00     0.037 A 
HETATM   15  C   UNL     1     -40.283  53.502 -53.780  1.00  0.00     0.003 A 
HETATM   16  C   UNL     1     -40.177  54.375 -54.858  1.00  0.00     0.001 A 
HETATM   17  C   UNL     1     -40.650  55.682 -54.743  1.00  0.00     0.012 A 
BRANCH  13  18
HETATM   18  O   UNL     1     -41.983  55.709 -51.346  1.00  0.00    -0.290 OA
BRANCH  18  19
HETATM   19  C   UNL     1     -41.598  55.147 -50.096  1.00  0.00     0.505 C 
HETATM   20  F   UNL     1     -41.341  56.116 -49.185  1.00  0.00    -0.184 F 
HETATM   21  F   UNL     1     -42.608  54.379 -49.618  1.00  0.00    -0.184 F 
ENDBRANCH  18  19
ENDBRANCH  13  18
ENDBRANCH   9  12
BRANCH  10  22
HETATM   22  C   UNL     1     -44.161  57.202 -54.240  1.00  0.00     0.256 C 
HETATM   23  N   UNL     1     -44.288  58.170 -55.212  1.00  0.00    -0.323 N 
HETATM   24  H   UNL     1     -43.824  59.054 -55.047  1.00  0.00     0.169 HD
HETATM   25  O   UNL     1     -44.690  56.099 -54.209  1.00  0.00    -0.267 OA
BRANCH  23  26
HETATM   26  C   UNL     1     -44.951  58.051 -56.453  1.00  0.00     0.035 A 
HETATM   27  C   UNL     1     -46.303  58.342 -56.647  1.00  0.00     0.029 A 
HETATM   28  C   UNL     1     -46.894  58.167 -57.904  1.00  0.00     0.002 A 
HETATM   29  C   UNL     1     -46.139  57.694 -58.975  1.00  0.00     0.000 A 
HETATM   30  C   UNL     1     -44.789  57.404 -58.793  1.00  0.00     0.002 A 
HETATM   31  C   UNL     1     -44.198  57.586 -57.540  1.00  0.00     0.029 A 
ENDBRANCH  23  26
ENDBRANCH  10  22
TORSDOF 5
ENDMDL
