MODEL 1
REMARK VINA RESULT:      -8.1      0.000      0.000
REMARK  5 active torsions:
REMARK  status: ('A' for Active; 'I' for Inactive)
REMARK    1  A    between atoms: C_8  and  C_9 
REMARK    2  A    between atoms: C_9  and  N_10 
REMARK       I    between atoms: N_10  and  C_11 
REMARK       I    between atoms: C_11  and  N_12 
REMARK    3  A    between atoms: N_12  and  C_13 
REMARK    4  A    between atoms: C_15  and  N_16 
REMARK       I    between atoms: N_16  and  C_17 
REMARK    5  A    between atoms: C_17  and  C_18 
ROOT
HETATM    1  C   UNL     1     -43.817  56.767 -54.110  1.00  0.00     0.038 A 
HETATM    2  C   UNL     1     -43.270  55.487 -54.046  1.00  0.00     0.059 A 
HETATM    3  C   UNL     1     -42.033  55.245 -53.441  1.00  0.00     0.036 A 
HETATM    4  C   UNL     1     -41.275  56.316 -52.977  1.00  0.00     0.029 A 
HETATM    5  C   UNL     1     -41.793  57.611 -53.058  1.00  0.00     0.004 A 
HETATM    6  C   UNL     1     -43.059  57.833 -53.612  1.00  0.00     0.029 A 
ENDROOT
BRANCH   1   7
HETATM    7  N   UNL     1     -45.059  57.065 -54.707  1.00  0.00    -0.309 N 
HETATM    8  C   UNL     1     -45.392  57.488 -55.961  1.00  0.00     0.320 C 
HETATM    9  N   UNL     1     -44.497  57.284 -56.956  1.00  0.00    -0.338 N 
HETATM   10  O   UNL     1     -46.480  58.030 -56.137  1.00  0.00    -0.247 OA
HETATM   11  H   UNL     1     -43.836  56.527 -56.858  1.00  0.00     0.164 HD
HETATM   12  H   UNL     1     -45.857  57.107 -54.086  1.00  0.00     0.170 HD
BRANCH   9  13
HETATM   13  C   UNL     1     -44.576  57.928 -58.245  1.00  0.00     0.167 C 
BRANCH  13  14
HETATM   14  C   UNL     1     -43.380  57.512 -59.038  1.00  0.00     0.009 A 
HETATM   15  C   UNL     1     -42.197  58.211 -59.224  1.00  0.00     0.034 A 
HETATM   16  C   UNL     1     -41.737  59.525 -58.717  1.00  0.00     0.070 C 
HETATM   17  N   UNL     1     -41.412  57.423 -60.016  1.00  0.00    -0.282 N 
HETATM   18  H   UNL     1     -40.477  57.616 -60.358  1.00  0.00     0.189 HD
HETATM   19  N   UNL     1     -41.984  56.262 -60.359  1.00  0.00    -0.179 NA
HETATM   20  C   UNL     1     -43.185  56.304 -59.770  1.00  0.00     0.060 A 
HETATM   21  C   UNL     1     -44.122  55.164 -59.923  1.00  0.00     0.073 C 
ENDBRANCH  13  14
ENDBRANCH   9  13
ENDBRANCH   1   7
BRANCH   3  22
HETATM   22  N   UNL     1     -41.525  53.933 -53.357  1.00  0.00    -0.327 N 
HETATM   23  C   UNL     1     -40.566  53.434 -54.227  1.00  0.00     0.226 C 
HETATM   24  O   UNL     1     -40.266  53.958 -55.300  1.00  0.00    -0.273 OA
HETATM   25  H   UNL     1     -42.045  53.270 -52.799  1.00  0.00     0.169 HD
BRANCH  23  26
HETATM   26  C   UNL     1     -39.802  52.221 -53.716  1.00  0.00     0.078 C 
HETATM   27  C   UNL     1     -39.888  51.897 -52.230  1.00  0.00     0.014 C 
HETATM   28  C   UNL     1     -39.339  50.481 -52.165  1.00  0.00     0.001 C 
HETATM   29  C   UNL     1     -39.850  49.801 -53.431  1.00  0.00     0.001 C 
HETATM   30  C   UNL     1     -40.290  50.926 -54.369  1.00  0.00     0.014 C 
ENDBRANCH  23  26
ENDBRANCH   3  22
TORSDOF 5
ENDMDL
MODEL 2
REMARK VINA RESULT:      -8.1      1.130      1.761
REMARK  5 active torsions:
REMARK  status: ('A' for Active; 'I' for Inactive)
REMARK    1  A    between atoms: C_8  and  C_9 
REMARK    2  A    between atoms: C_9  and  N_10 
REMARK       I    between atoms: N_10  and  C_11 
REMARK       I    between atoms: C_11  and  N_12 
REMARK    3  A    between atoms: N_12  and  C_13 
REMARK    4  A    between atoms: C_15  and  N_16 
REMARK       I    between atoms: N_16  and  C_17 
REMARK    5  A    between atoms: C_17  and  C_18 
ROOT
HETATM    1  C   UNL     1     -43.855  56.625 -54.064  1.00  0.00     0.038 A 
HETATM    2  C   UNL     1     -43.279  55.356 -54.080  1.00  0.00     0.059 A 
HETATM    3  C   UNL     1     -42.104  55.073 -53.378  1.00  0.00     0.036 A 
HETATM    4  C   UNL     1     -41.430  56.101 -52.725  1.00  0.00     0.029 A 
HETATM    5  C   UNL     1     -41.974  57.386 -52.722  1.00  0.00     0.004 A 
HETATM    6  C   UNL     1     -43.183  57.644 -53.379  1.00  0.00     0.029 A 
ENDROOT
BRANCH   1   7
HETATM    7  N   UNL     1     -45.037  56.963 -54.753  1.00  0.00    -0.309 N 
HETATM    8  C   UNL     1     -45.253  57.510 -55.984  1.00  0.00     0.320 C 
HETATM    9  N   UNL     1     -44.258  57.426 -56.897  1.00  0.00    -0.338 N 
HETATM   10  O   UNL     1     -46.333  58.048 -56.215  1.00  0.00    -0.247 OA
HETATM   11  H   UNL     1     -43.589  56.674 -56.810  1.00  0.00     0.164 HD
HETATM   12  H   UNL     1     -45.895  56.926 -54.216  1.00  0.00     0.170 HD
BRANCH   9  13
HETATM   13  C   UNL     1     -44.223  58.200 -58.115  1.00  0.00     0.167 C 
BRANCH  13  14
HETATM   14  C   UNL     1     -44.438  57.263 -59.258  1.00  0.00     0.009 A 
HETATM   15  C   UNL     1     -45.643  56.837 -59.794  1.00  0.00     0.034 A 
HETATM   16  C   UNL     1     -47.047  57.159 -59.447  1.00  0.00     0.070 C 
HETATM   17  N   UNL     1     -45.324  55.996 -60.821  1.00  0.00    -0.282 N 
HETATM   18  H   UNL     1     -45.955  55.495 -61.438  1.00  0.00     0.189 HD
HETATM   19  N   UNL     1     -44.007  55.841 -61.004  1.00  0.00    -0.179 NA
HETATM   20  C   UNL     1     -43.455  56.608 -60.056  1.00  0.00     0.060 A 
HETATM   21  C   UNL     1     -41.977  56.696 -59.947  1.00  0.00     0.073 C 
ENDBRANCH  13  14
ENDBRANCH   9  13
ENDBRANCH   1   7
BRANCH   3  22
HETATM   22  N   UNL     1     -41.568  53.769 -53.382  1.00  0.00    -0.327 N 
HETATM   23  C   UNL     1     -40.468  53.403 -54.145  1.00  0.00     0.226 C 
HETATM   24  O   UNL     1     -40.024  54.068 -55.080  1.00  0.00    -0.273 OA
HETATM   25  H   UNL     1     -42.144  53.030 -53.002  1.00  0.00     0.169 HD
BRANCH  23  26
HETATM   26  C   UNL     1     -39.749  52.145 -53.676  1.00  0.00     0.078 C 
HETATM   27  C   UNL     1     -39.832  51.784 -52.199  1.00  0.00     0.014 C 
HETATM   28  C   UNL     1     -39.342  50.345 -52.179  1.00  0.00     0.001 C 
HETATM   29  C   UNL     1     -39.896  49.723 -53.458  1.00  0.00     0.001 C 
HETATM   30  C   UNL     1     -40.298  50.890 -54.359  1.00  0.00     0.014 C 
ENDBRANCH  23  26
ENDBRANCH   3  22
TORSDOF 5
ENDMDL
MODEL 3
REMARK VINA RESULT:      -8.0      1.076      1.508
REMARK  5 active torsions:
REMARK  status: ('A' for Active; 'I' for Inactive)
REMARK    1  A    between atoms: C_8  and  C_9 
REMARK    2  A    between atoms: C_9  and  N_10 
REMARK       I    between atoms: N_10  and  C_11 
REMARK       I    between atoms: C_11  and  N_12 
REMARK    3  A    between atoms: N_12  and  C_13 
REMARK    4  A    between atoms: C_15  and  N_16 
REMARK       I    between atoms: N_16  and  C_17 
REMARK    5  A    between atoms: C_17  and  C_18 
ROOT
HETATM    1  C   UNL     1     -44.763  57.791 -54.764  1.00  0.00     0.038 A 
HETATM    2  C   UNL     1     -44.357  56.476 -54.546  1.00  0.00     0.059 A 
HETATM    3  C   UNL     1     -43.250  56.171 -53.748  1.00  0.00     0.036 A 
HETATM    4  C   UNL     1     -42.467  57.203 -53.237  1.00  0.00     0.029 A 
HETATM    5  C   UNL     1     -42.841  58.528 -53.469  1.00  0.00     0.004 A 
HETATM    6  C   UNL     1     -43.986  58.819 -54.219  1.00  0.00     0.029 A 
ENDROOT
BRANCH   1   7
HETATM    7  N   UNL     1     -45.871  58.152 -55.557  1.00  0.00    -0.309 N 
HETATM    8  C   UNL     1     -46.016  58.316 -56.904  1.00  0.00     0.320 C 
HETATM    9  N   UNL     1     -45.107  57.726 -57.715  1.00  0.00    -0.338 N 
HETATM   10  O   UNL     1     -46.957  58.984 -57.324  1.00  0.00    -0.247 OA
HETATM   11  H   UNL     1     -44.620  56.910 -57.374  1.00  0.00     0.164 HD
HETATM   12  H   UNL     1     -46.690  58.481 -55.061  1.00  0.00     0.170 HD
BRANCH   9  13
HETATM   13  C   UNL     1     -44.957  58.048 -59.114  1.00  0.00     0.167 C 
BRANCH  13  14
HETATM   14  C   UNL     1     -43.624  57.540 -59.559  1.00  0.00     0.009 A 
HETATM   15  C   UNL     1     -42.467  58.269 -59.782  1.00  0.00     0.034 A 
HETATM   16  C   UNL     1     -42.168  59.714 -59.646  1.00  0.00     0.070 C 
HETATM   17  N   UNL     1     -41.519  57.366 -60.169  1.00  0.00    -0.282 N 
HETATM   18  H   UNL     1     -40.551  57.543 -60.417  1.00  0.00     0.189 HD
HETATM   19  N   UNL     1     -41.962  56.103 -60.214  1.00  0.00    -0.179 NA
HETATM   20  C   UNL     1     -43.245  56.195 -59.845  1.00  0.00     0.060 A 
HETATM   21  C   UNL     1     -44.081  54.971 -59.769  1.00  0.00     0.073 C 
ENDBRANCH  13  14
ENDBRANCH   9  13
ENDBRANCH   1   7
BRANCH   3  22
HETATM   22  N   UNL     1     -42.887  54.829 -53.515  1.00  0.00    -0.327 N 
HETATM   23  C   UNL     1     -41.949  54.152 -54.281  1.00  0.00     0.226 C 
HETATM   24  O   UNL     1     -41.548  54.534 -55.380  1.00  0.00    -0.273 OA
HETATM   25  H   UNL     1     -43.499  54.281 -52.926  1.00  0.00     0.169 HD
BRANCH  23  26
HETATM   26  C   UNL     1     -41.340  52.924 -53.617  1.00  0.00     0.078 C 
HETATM   27  C   UNL     1     -40.227  52.192 -54.354  1.00  0.00     0.014 C 
HETATM   28  C   UNL     1     -39.642  51.298 -53.272  1.00  0.00     0.001 C 
HETATM   29  C   UNL     1     -39.702  52.133 -51.997  1.00  0.00     0.001 C 
HETATM   30  C   UNL     1     -40.684  53.270 -52.279  1.00  0.00     0.014 C 
ENDBRANCH  23  26
ENDBRANCH   3  22
TORSDOF 5
ENDMDL
MODEL 4
REMARK VINA RESULT:      -7.9      1.748      2.440
REMARK  5 active torsions:
REMARK  status: ('A' for Active; 'I' for Inactive)
REMARK    1  A    between atoms: C_8  and  C_9 
REMARK    2  A    between atoms: C_9  and  N_10 
REMARK       I    between atoms: N_10  and  C_11 
REMARK       I    between atoms: C_11  and  N_12 
REMARK    3  A    between atoms: N_12  and  C_13 
REMARK    4  A    between atoms: C_15  and  N_16 
REMARK       I    between atoms: N_16  and  C_17 
REMARK    5  A    between atoms: C_17  and  C_18 
ROOT
HETATM    1  C   UNL     1     -45.022  57.633 -54.727  1.00  0.00     0.038 A 
HETATM    2  C   UNL     1     -44.260  56.488 -54.506  1.00  0.00     0.059 A 
HETATM    3  C   UNL     1     -43.182  56.483 -53.616  1.00  0.00     0.036 A 
HETATM    4  C   UNL     1     -42.790  57.671 -53.006  1.00  0.00     0.029 A 
HETATM    5  C   UNL     1     -43.523  58.836 -53.237  1.00  0.00     0.004 A 
HETATM    6  C   UNL     1     -44.637  58.815 -54.084  1.00  0.00     0.029 A 
ENDROOT
BRANCH   1   7
HETATM    7  N   UNL     1     -46.118  57.691 -55.612  1.00  0.00    -0.309 N 
HETATM    8  C   UNL     1     -46.200  57.938 -56.951  1.00  0.00     0.320 C 
HETATM    9  N   UNL     1     -45.082  57.766 -57.695  1.00  0.00    -0.338 N 
HETATM   10  O   UNL     1     -47.273  58.300 -57.425  1.00  0.00    -0.247 OA
HETATM   11  H   UNL     1     -44.378  57.124 -57.361  1.00  0.00     0.164 HD
HETATM   12  H   UNL     1     -47.038  57.679 -55.188  1.00  0.00     0.170 HD
BRANCH   9  13
HETATM   13  C   UNL     1     -44.935  58.264 -59.042  1.00  0.00     0.167 C 
BRANCH  13  14
HETATM   14  C   UNL     1     -45.018  57.097 -59.971  1.00  0.00     0.009 A 
HETATM   15  C   UNL     1     -46.110  56.675 -60.712  1.00  0.00     0.034 A 
HETATM   16  C   UNL     1     -47.484  57.215 -60.841  1.00  0.00     0.070 C 
HETATM   17  N   UNL     1     -45.695  55.575 -61.407  1.00  0.00    -0.282 N 
HETATM   18  H   UNL     1     -46.231  55.003 -62.050  1.00  0.00     0.189 HD
HETATM   19  N   UNL     1     -44.417  55.246 -61.183  1.00  0.00    -0.179 NA
HETATM   20  C   UNL     1     -43.992  56.166 -60.308  1.00  0.00     0.060 A 
HETATM   21  C   UNL     1     -42.591  56.128 -59.820  1.00  0.00     0.073 C 
ENDBRANCH  13  14
ENDBRANCH   9  13
ENDBRANCH   1   7
BRANCH   3  22
HETATM   22  N   UNL     1     -42.454  55.298 -53.385  1.00  0.00    -0.327 N 
HETATM   23  C   UNL     1     -41.343  54.931 -54.132  1.00  0.00     0.226 C 
HETATM   24  O   UNL     1     -41.044  55.431 -55.216  1.00  0.00    -0.273 OA
HETATM   25  H   UNL     1     -42.895  54.587 -52.817  1.00  0.00     0.169 HD
BRANCH  23  26
HETATM   26  C   UNL     1     -40.422  53.920 -53.462  1.00  0.00     0.078 C 
HETATM   27  C   UNL     1     -40.825  53.382 -52.096  1.00  0.00     0.014 C 
HETATM   28  C   UNL     1     -39.910  52.180 -51.927  1.00  0.00     0.001 C 
HETATM   29  C   UNL     1     -39.803  51.568 -53.321  1.00  0.00     0.001 C 
HETATM   30  C   UNL     1     -40.280  52.644 -54.295  1.00  0.00     0.014 C 
ENDBRANCH  23  26
ENDBRANCH   3  22
TORSDOF 5
ENDMDL
MODEL 5
REMARK VINA RESULT:      -7.7      2.873      6.984
REMARK  5 active torsions:
REMARK  status: ('A' for Active; 'I' for Inactive)
REMARK    1  A    between atoms: C_8  and  C_9 
REMARK    2  A    between atoms: C_9  and  N_10 
REMARK       I    between atoms: N_10  and  C_11 
REMARK       I    between atoms: C_11  and  N_12 
REMARK    3  A    between atoms: N_12  and  C_13 
REMARK    4  A    between atoms: C_15  and  N_16 
REMARK       I    between atoms: N_16  and  C_17 
REMARK    5  A    between atoms: C_17  and  C_18 
ROOT
HETATM    1  C   UNL     1     -42.417  54.077 -53.154  1.00  0.00     0.038 A 
HETATM    2  C   UNL     1     -43.113  54.402 -54.316  1.00  0.00     0.059 A 
HETATM    3  C   UNL     1     -42.472  54.489 -55.557  1.00  0.00     0.036 A 
HETATM    4  C   UNL     1     -41.089  54.348 -55.626  1.00  0.00     0.029 A 
HETATM    5  C   UNL     1     -40.370  54.051 -54.467  1.00  0.00     0.004 A 
HETATM    6  C   UNL     1     -41.030  53.908 -53.241  1.00  0.00     0.029 A 
ENDROOT
BRANCH   1   7
HETATM    7  N   UNL     1     -43.014  53.976 -51.881  1.00  0.00    -0.309 N 
HETATM    8  C   UNL     1     -43.611  54.901 -51.074  1.00  0.00     0.320 C 
HETATM    9  N   UNL     1     -44.056  56.044 -51.646  1.00  0.00    -0.338 N 
HETATM   10  O   UNL     1     -43.721  54.662 -49.875  1.00  0.00    -0.247 OA
HETATM   11  H   UNL     1     -44.295  56.028 -52.627  1.00  0.00     0.164 HD
HETATM   12  H   UNL     1     -42.880  53.100 -51.391  1.00  0.00     0.170 HD
BRANCH   9  13
HETATM   13  C   UNL     1     -44.430  57.219 -50.895  1.00  0.00     0.167 C 
BRANCH  13  14
HETATM   14  C   UNL     1     -43.644  58.372 -51.429  1.00  0.00     0.009 A 
HETATM   15  C   UNL     1     -44.111  59.456 -52.156  1.00  0.00     0.034 A 
HETATM   16  C   UNL     1     -45.471  59.828 -52.610  1.00  0.00     0.070 C 
HETATM   17  N   UNL     1     -43.021  60.239 -52.410  1.00  0.00    -0.282 N 
HETATM   18  H   UNL     1     -42.986  61.114 -52.921  1.00  0.00     0.189 HD
HETATM   19  N   UNL     1     -41.879  59.756 -51.904  1.00  0.00    -0.179 NA
HETATM   20  C   UNL     1     -42.245  58.617 -51.304  1.00  0.00     0.060 A 
HETATM   21  C   UNL     1     -41.227  57.788 -50.611  1.00  0.00     0.073 C 
ENDBRANCH  13  14
ENDBRANCH   9  13
ENDBRANCH   1   7
BRANCH   3  22
HETATM   22  N   UNL     1     -43.211  54.781 -56.721  1.00  0.00    -0.327 N 
HETATM   23  C   UNL     1     -43.069  55.964 -57.433  1.00  0.00     0.226 C 
HETATM   24  O   UNL     1     -42.515  56.972 -56.995  1.00  0.00    -0.273 OA
HETATM   25  H   UNL     1     -44.029  54.217 -56.904  1.00  0.00     0.169 HD
BRANCH  23  26
HETATM   26  C   UNL     1     -43.556  55.911 -58.874  1.00  0.00     0.078 C 
HETATM   27  C   UNL     1     -44.131  54.596 -59.385  1.00  0.00     0.014 C 
HETATM   28  C   UNL     1     -44.824  55.013 -60.673  1.00  0.00     0.001 C 
HETATM   29  C   UNL     1     -45.416  56.387 -60.375  1.00  0.00     0.001 C 
HETATM   30  C   UNL     1     -44.700  56.896 -59.123  1.00  0.00     0.014 C 
ENDBRANCH  23  26
ENDBRANCH   3  22
TORSDOF 5
ENDMDL
MODEL 6
REMARK VINA RESULT:      -7.7      2.856      6.971
REMARK  5 active torsions:
REMARK  status: ('A' for Active; 'I' for Inactive)
REMARK    1  A    between atoms: C_8  and  C_9 
REMARK    2  A    between atoms: C_9  and  N_10 
REMARK       I    between atoms: N_10  and  C_11 
REMARK       I    between atoms: C_11  and  N_12 
REMARK    3  A    between atoms: N_12  and  C_13 
REMARK    4  A    between atoms: C_15  and  N_16 
REMARK       I    between atoms: N_16  and  C_17 
REMARK    5  A    between atoms: C_17  and  C_18 
ROOT
HETATM    1  C   UNL     1     -42.424  54.051 -53.179  1.00  0.00     0.038 A 
HETATM    2  C   UNL     1     -43.119  54.396 -54.336  1.00  0.00     0.059 A 
HETATM    3  C   UNL     1     -42.482  54.481 -55.578  1.00  0.00     0.036 A 
HETATM    4  C   UNL     1     -41.102  54.317 -55.655  1.00  0.00     0.029 A 
HETATM    5  C   UNL     1     -40.383  54.000 -54.501  1.00  0.00     0.004 A 
HETATM    6  C   UNL     1     -41.041  53.859 -53.273  1.00  0.00     0.029 A 
ENDROOT
BRANCH   1   7
HETATM    7  N   UNL     1     -43.017  53.952 -51.904  1.00  0.00    -0.309 N 
HETATM    8  C   UNL     1     -43.618  54.876 -51.100  1.00  0.00     0.320 C 
HETATM    9  N   UNL     1     -44.073  56.014 -51.675  1.00  0.00    -0.338 N 
HETATM   10  O   UNL     1     -43.724  54.642 -49.899  1.00  0.00    -0.247 OA
HETATM   11  H   UNL     1     -44.314  55.992 -52.656  1.00  0.00     0.164 HD
HETATM   12  H   UNL     1     -42.876  53.079 -51.410  1.00  0.00     0.170 HD
BRANCH   9  13
HETATM   13  C   UNL     1     -44.453  57.189 -50.929  1.00  0.00     0.167 C 
BRANCH  13  14
HETATM   14  C   UNL     1     -43.625  58.331 -51.421  1.00  0.00     0.009 A 
HETATM   15  C   UNL     1     -42.262  58.525 -51.260  1.00  0.00     0.034 A 
HETATM   16  C   UNL     1     -41.219  57.705 -50.599  1.00  0.00     0.070 C 
HETATM   17  N   UNL     1     -41.970  59.703 -51.887  1.00  0.00    -0.282 N 
HETATM   18  H   UNL     1     -41.069  60.160 -51.969  1.00  0.00     0.189 HD
HETATM   19  N   UNL     1     -43.032  60.293 -52.448  1.00  0.00    -0.179 NA
HETATM   20  C   UNL     1     -44.049  59.468 -52.170  1.00  0.00     0.060 A 
HETATM   21  C   UNL     1     -45.416  59.794 -52.645  1.00  0.00     0.073 C 
ENDBRANCH  13  14
ENDBRANCH   9  13
ENDBRANCH   1   7
BRANCH   3  22
HETATM   22  N   UNL     1     -43.221  54.793 -56.738  1.00  0.00    -0.327 N 
HETATM   23  C   UNL     1     -43.101  56.001 -57.412  1.00  0.00     0.226 C 
HETATM   24  O   UNL     1     -42.570  57.006 -56.939  1.00  0.00    -0.273 OA
HETATM   25  H   UNL     1     -44.026  54.218 -56.943  1.00  0.00     0.169 HD
BRANCH  23  26
HETATM   26  C   UNL     1     -43.579  55.982 -58.857  1.00  0.00     0.078 C 
HETATM   27  C   UNL     1     -44.114  54.669 -59.415  1.00  0.00     0.014 C 
HETATM   28  C   UNL     1     -44.812  55.109 -60.692  1.00  0.00     0.001 C 
HETATM   29  C   UNL     1     -45.444  56.455 -60.351  1.00  0.00     0.001 C 
HETATM   30  C   UNL     1     -44.750  56.942 -59.079  1.00  0.00     0.014 C 
ENDBRANCH  23  26
ENDBRANCH   3  22
TORSDOF 5
ENDMDL
MODEL 7
REMARK VINA RESULT:      -7.7      1.957      2.551
REMARK  5 active torsions:
REMARK  status: ('A' for Active; 'I' for Inactive)
REMARK    1  A    between atoms: C_8  and  C_9 
REMARK    2  A    between atoms: C_9  and  N_10 
REMARK       I    between atoms: N_10  and  C_11 
REMARK       I    between atoms: C_11  and  N_12 
REMARK    3  A    between atoms: N_12  and  C_13 
REMARK    4  A    between atoms: C_15  and  N_16 
REMARK       I    between atoms: N_16  and  C_17 
REMARK    5  A    between atoms: C_17  and  C_18 
ROOT
HETATM    1  C   UNL     1     -42.318  57.174 -54.912  1.00  0.00     0.038 A 
HETATM    2  C   UNL     1     -41.394  56.135 -54.820  1.00  0.00     0.059 A 
HETATM    3  C   UNL     1     -41.758  54.867 -54.355  1.00  0.00     0.036 A 
HETATM    4  C   UNL     1     -43.047  54.656 -53.875  1.00  0.00     0.029 A 
HETATM    5  C   UNL     1     -43.979  55.694 -53.930  1.00  0.00     0.004 A 
HETATM    6  C   UNL     1     -43.619  56.942 -54.454  1.00  0.00     0.029 A 
ENDROOT
BRANCH   1   7
HETATM    7  N   UNL     1     -42.003  58.469 -55.374  1.00  0.00    -0.309 N 
HETATM    8  C   UNL     1     -42.389  59.162 -56.484  1.00  0.00     0.320 C 
HETATM    9  N   UNL     1     -43.515  58.763 -57.120  1.00  0.00    -0.338 N 
HETATM   10  O   UNL     1     -41.707  60.113 -56.858  1.00  0.00    -0.247 OA
HETATM   11  H   UNL     1     -44.217  58.270 -56.587  1.00  0.00     0.164 HD
HETATM   12  H   UNL     1     -41.261  58.952 -54.883  1.00  0.00     0.170 HD
BRANCH   9  13
HETATM   13  C   UNL     1     -43.879  59.197 -58.447  1.00  0.00     0.167 C 
BRANCH  13  14
HETATM   14  C   UNL     1     -44.126  57.978 -59.275  1.00  0.00     0.009 A 
HETATM   15  C   UNL     1     -45.327  57.317 -59.478  1.00  0.00     0.034 A 
HETATM   16  C   UNL     1     -46.699  57.588 -58.988  1.00  0.00     0.070 C 
HETATM   17  N   UNL     1     -45.047  56.269 -60.308  1.00  0.00    -0.282 N 
HETATM   18  H   UNL     1     -45.686  55.569 -60.668  1.00  0.00     0.189 HD
HETATM   19  N   UNL     1     -43.760  56.193 -60.667  1.00  0.00    -0.179 NA
HETATM   20  C   UNL     1     -43.186  57.229 -60.042  1.00  0.00     0.060 A 
HETATM   21  C   UNL     1     -41.732  57.478 -60.209  1.00  0.00     0.073 C 
ENDBRANCH  13  14
ENDBRANCH   9  13
ENDBRANCH   1   7
BRANCH   3  22
HETATM   22  N   UNL     1     -40.810  53.825 -54.312  1.00  0.00    -0.327 N 
HETATM   23  C   UNL     1     -40.290  53.320 -53.128  1.00  0.00     0.226 C 
HETATM   24  O   UNL     1     -40.377  53.886 -52.038  1.00  0.00    -0.273 OA
HETATM   25  H   UNL     1     -40.324  53.605 -55.170  1.00  0.00     0.169 HD
BRANCH  23  26
HETATM   26  C   UNL     1     -39.681  51.929 -53.233  1.00  0.00     0.078 C 
HETATM   27  C   UNL     1     -39.869  50.976 -52.060  1.00  0.00     0.014 C 
HETATM   28  C   UNL     1     -39.475  49.634 -52.654  1.00  0.00     0.001 C 
HETATM   29  C   UNL     1     -39.995  49.669 -54.088  1.00  0.00     0.001 C 
HETATM   30  C   UNL     1     -40.271  51.139 -54.403  1.00  0.00     0.014 C 
ENDBRANCH  23  26
ENDBRANCH   3  22
TORSDOF 5
ENDMDL
MODEL 8
REMARK VINA RESULT:      -7.6      2.747      7.226
REMARK  5 active torsions:
REMARK  status: ('A' for Active; 'I' for Inactive)
REMARK    1  A    between atoms: C_8  and  C_9 
REMARK    2  A    between atoms: C_9  and  N_10 
REMARK       I    between atoms: N_10  and  C_11 
REMARK       I    between atoms: C_11  and  N_12 
REMARK    3  A    between atoms: N_12  and  C_13 
REMARK    4  A    between atoms: C_15  and  N_16 
REMARK       I    between atoms: N_16  and  C_17 
REMARK    5  A    between atoms: C_17  and  C_18 
ROOT
HETATM    1  C   UNL     1     -40.404  53.108 -51.953  1.00  0.00     0.038 A 
HETATM    2  C   UNL     1     -40.736  54.016 -52.956  1.00  0.00     0.059 A 
HETATM    3  C   UNL     1     -40.573  53.707 -54.310  1.00  0.00     0.036 A 
HETATM    4  C   UNL     1     -39.971  52.506 -54.673  1.00  0.00     0.029 A 
HETATM    5  C   UNL     1     -39.604  51.595 -53.680  1.00  0.00     0.004 A 
HETATM    6  C   UNL     1     -39.827  51.891 -52.331  1.00  0.00     0.029 A 
ENDROOT
BRANCH   1   7
HETATM    7  N   UNL     1     -40.549  53.369 -50.575  1.00  0.00    -0.309 N 
HETATM    8  C   UNL     1     -40.741  54.526 -49.878  1.00  0.00     0.320 C 
HETATM    9  N   UNL     1     -41.227  55.596 -50.550  1.00  0.00    -0.338 N 
HETATM   10  O   UNL     1     -40.469  54.552 -48.681  1.00  0.00    -0.247 OA
HETATM   11  H   UNL     1     -41.780  55.430 -51.379  1.00  0.00     0.164 HD
HETATM   12  H   UNL     1     -40.354  52.597 -49.950  1.00  0.00     0.170 HD
BRANCH   9  13
HETATM   13  C   UNL     1     -41.202  56.943 -50.033  1.00  0.00     0.167 C 
BRANCH  13  14
HETATM   14  C   UNL     1     -41.324  57.879 -51.191  1.00  0.00     0.009 A 
HETATM   15  C   UNL     1     -42.362  57.971 -52.105  1.00  0.00     0.034 A 
HETATM   16  C   UNL     1     -43.637  57.227 -52.228  1.00  0.00     0.070 C 
HETATM   17  N   UNL     1     -42.020  58.973 -52.967  1.00  0.00    -0.282 N 
HETATM   18  H   UNL     1     -42.543  59.316 -53.765  1.00  0.00     0.189 HD
HETATM   19  N   UNL     1     -40.844  59.548 -52.688  1.00  0.00    -0.179 NA
HETATM   20  C   UNL     1     -40.408  58.889 -51.607  1.00  0.00     0.060 A 
HETATM   21  C   UNL     1     -39.108  59.258 -50.992  1.00  0.00     0.073 C 
ENDBRANCH  13  14
ENDBRANCH   9  13
ENDBRANCH   1   7
BRANCH   3  22
HETATM   22  N   UNL     1     -40.955  54.632 -55.303  1.00  0.00    -0.327 N 
HETATM   23  C   UNL     1     -42.263  54.770 -55.749  1.00  0.00     0.226 C 
HETATM   24  O   UNL     1     -43.153  53.945 -55.546  1.00  0.00    -0.273 OA
HETATM   25  H   UNL     1     -40.220  55.036 -55.867  1.00  0.00     0.169 HD
BRANCH  23  26
HETATM   26  C   UNL     1     -42.573  56.094 -56.434  1.00  0.00     0.078 C 
HETATM   27  C   UNL     1     -43.041  56.056 -57.883  1.00  0.00     0.014 C 
HETATM   28  C   UNL     1     -43.588  57.459 -58.093  1.00  0.00     0.001 C 
HETATM   29  C   UNL     1     -44.255  57.824 -56.770  1.00  0.00     0.001 C 
HETATM   30  C   UNL     1     -43.710  56.842 -55.734  1.00  0.00     0.014 C 
ENDBRANCH  23  26
ENDBRANCH   3  22
TORSDOF 5
ENDMDL
MODEL 9
REMARK VINA RESULT:      -7.6      2.743      3.789
REMARK  5 active torsions:
REMARK  status: ('A' for Active; 'I' for Inactive)
REMARK    1  A    between atoms: C_8  and  C_9 
REMARK    2  A    between atoms: C_9  and  N_10 
REMARK       I    between atoms: N_10  and  C_11 
REMARK       I    between atoms: C_11  and  N_12 
REMARK    3  A    between atoms: N_12  and  C_13 
REMARK    4  A    between atoms: C_15  and  N_16 
REMARK       I    between atoms: N_16  and  C_17 
REMARK    5  A    between atoms: C_17  and  C_18 
ROOT
HETATM    1  C   UNL     1     -42.673  56.691 -51.222  1.00  0.00     0.038 A 
HETATM    2  C   UNL     1     -41.759  55.828 -51.823  1.00  0.00     0.059 A 
HETATM    3  C   UNL     1     -41.993  54.452 -51.906  1.00  0.00     0.036 A 
HETATM    4  C   UNL     1     -43.115  53.908 -51.287  1.00  0.00     0.029 A 
HETATM    5  C   UNL     1     -44.028  54.753 -50.654  1.00  0.00     0.004 A 
HETATM    6  C   UNL     1     -43.813  56.136 -50.629  1.00  0.00     0.029 A 
ENDROOT
BRANCH   1   7
HETATM    7  N   UNL     1     -42.486  58.085 -51.112  1.00  0.00    -0.309 N 
HETATM    8  C   UNL     1     -42.620  59.099 -52.015  1.00  0.00     0.320 C 
HETATM    9  N   UNL     1     -43.379  58.873 -53.113  1.00  0.00    -0.338 N 
HETATM   10  O   UNL     1     -42.054  60.167 -51.798  1.00  0.00    -0.247 OA
HETATM   11  H   UNL     1     -44.105  58.172 -53.058  1.00  0.00     0.164 HD
HETATM   12  H   UNL     1     -42.051  58.413 -50.259  1.00  0.00     0.170 HD
BRANCH   9  13
HETATM   13  C   UNL     1     -43.372  59.724 -54.278  1.00  0.00     0.167 C 
BRANCH  13  14
HETATM   14  C   UNL     1     -43.038  58.876 -55.462  1.00  0.00     0.009 A 
HETATM   15  C   UNL     1     -43.288  57.524 -55.637  1.00  0.00     0.034 A 
HETATM   16  C   UNL     1     -43.947  56.521 -54.769  1.00  0.00     0.070 C 
HETATM   17  N   UNL     1     -42.805  57.208 -56.875  1.00  0.00    -0.282 N 
HETATM   18  H   UNL     1     -42.813  56.305 -57.336  1.00  0.00     0.189 HD
HETATM   19  N   UNL     1     -42.263  58.245 -57.525  1.00  0.00    -0.179 NA
HETATM   20  C   UNL     1     -42.398  59.269 -56.674  1.00  0.00     0.060 A 
HETATM   21  C   UNL     1     -41.908  60.616 -57.057  1.00  0.00     0.073 C 
ENDBRANCH  13  14
ENDBRANCH   9  13
ENDBRANCH   1   7
BRANCH   3  22
HETATM   22  N   UNL     1     -41.068  53.610 -52.556  1.00  0.00    -0.327 N 
HETATM   23  C   UNL     1     -40.092  52.890 -51.880  1.00  0.00     0.226 C 
HETATM   24  O   UNL     1     -39.752  53.110 -50.718  1.00  0.00    -0.273 OA
HETATM   25  H   UNL     1     -40.964  53.719 -53.555  1.00  0.00     0.169 HD
BRANCH  23  26
HETATM   26  C   UNL     1     -39.523  51.703 -52.644  1.00  0.00     0.078 C 
HETATM   27  C   UNL     1     -39.711  50.314 -52.049  1.00  0.00     0.014 C 
HETATM   28  C   UNL     1     -39.365  49.402 -53.216  1.00  0.00     0.001 C 
HETATM   29  C   UNL     1     -39.914  50.113 -54.448  1.00  0.00     0.001 C 
HETATM   30  C   UNL     1     -40.157  51.563 -54.030  1.00  0.00     0.014 C 
ENDBRANCH  23  26
ENDBRANCH   3  22
TORSDOF 5
ENDMDL
MODEL 10
REMARK VINA RESULT:      -7.5      2.666      5.538
REMARK  5 active torsions:
REMARK  status: ('A' for Active; 'I' for Inactive)
REMARK    1  A    between atoms: C_8  and  C_9 
REMARK    2  A    between atoms: C_9  and  N_10 
REMARK       I    between atoms: N_10  and  C_11 
REMARK       I    between atoms: C_11  and  N_12 
REMARK    3  A    between atoms: N_12  and  C_13 
REMARK    4  A    between atoms: C_15  and  N_16 
REMARK       I    between atoms: N_16  and  C_17 
REMARK    5  A    between atoms: C_17  and  C_18 
ROOT
HETATM    1  C   UNL     1     -42.376  57.738 -55.929  1.00  0.00     0.038 A 
HETATM    2  C   UNL     1     -42.174  56.573 -55.192  1.00  0.00     0.059 A 
HETATM    3  C   UNL     1     -42.404  55.307 -55.741  1.00  0.00     0.036 A 
HETATM    4  C   UNL     1     -42.944  55.201 -57.019  1.00  0.00     0.029 A 
HETATM    5  C   UNL     1     -43.182  56.359 -57.763  1.00  0.00     0.004 A 
HETATM    6  C   UNL     1     -42.891  57.618 -57.225  1.00  0.00     0.029 A 
ENDROOT
BRANCH   1   7
HETATM    7  N   UNL     1     -42.159  59.037 -55.425  1.00  0.00    -0.309 N 
HETATM    8  C   UNL     1     -42.012  59.511 -54.154  1.00  0.00     0.320 C 
HETATM    9  N   UNL     1     -41.658  58.633 -53.187  1.00  0.00    -0.338 N 
HETATM   10  O   UNL     1     -42.204  60.705 -53.939  1.00  0.00    -0.247 OA
HETATM   11  H   UNL     1     -41.151  57.802 -53.457  1.00  0.00     0.164 HD
HETATM   12  H   UNL     1     -42.251  59.796 -56.088  1.00  0.00     0.170 HD
BRANCH   9  13
HETATM   13  C   UNL     1     -41.754  58.917 -51.776  1.00  0.00     0.167 C 
BRANCH  13  14
HETATM   14  C   UNL     1     -43.143  58.586 -51.336  1.00  0.00     0.009 A 
HETATM   15  C   UNL     1     -44.141  59.462 -50.937  1.00  0.00     0.034 A 
HETATM   16  C   UNL     1     -44.173  60.939 -50.831  1.00  0.00     0.070 C 
HETATM   17  N   UNL     1     -45.226  58.688 -50.638  1.00  0.00    -0.282 N 
HETATM   18  H   UNL     1     -46.136  58.991 -50.309  1.00  0.00     0.189 HD
HETATM   19  N   UNL     1     -45.020  57.378 -50.814  1.00  0.00    -0.179 NA
HETATM   20  C   UNL     1     -43.753  57.301 -51.239  1.00  0.00     0.060 A 
HETATM   21  C   UNL     1     -43.158  55.977 -51.550  1.00  0.00     0.073 C 
ENDBRANCH  13  14
ENDBRANCH   9  13
ENDBRANCH   1   7
BRANCH   3  22
HETATM   22  N   UNL     1     -42.153  54.145 -54.983  1.00  0.00    -0.327 N 
HETATM   23  C   UNL     1     -40.877  53.641 -54.768  1.00  0.00     0.226 C 
HETATM   24  O   UNL     1     -39.886  53.969 -55.419  1.00  0.00    -0.273 OA
HETATM   25  H   UNL     1     -42.938  53.539 -54.791  1.00  0.00     0.169 HD
BRANCH  23  26
HETATM   26  C   UNL     1     -40.747  52.708 -53.572  1.00  0.00     0.078 C 
HETATM   27  C   UNL     1     -39.618  51.686 -53.583  1.00  0.00     0.014 C 
HETATM   28  C   UNL     1     -39.577  51.219 -52.137  1.00  0.00     0.001 C 
HETATM   29  C   UNL     1     -39.872  52.467 -51.311  1.00  0.00     0.001 C 
HETATM   30  C   UNL     1     -40.487  53.480 -52.276  1.00  0.00     0.014 C 
ENDBRANCH  23  26
ENDBRANCH   3  22
TORSDOF 5
ENDMDL
