MODEL 1
REMARK VINA RESULT:      -8.3      0.000      0.000
REMARK  5 active torsions:
REMARK  status: ('A' for Active; 'I' for Inactive)
REMARK    1  A    between atoms: C_2  and  C_3 
REMARK    2  A    between atoms: C_3  and  C_4 
REMARK    3  A    between atoms: C_3  and  C_29 
REMARK       I    between atoms: C_4  and  N_5 
REMARK    4  A    between atoms: N_5  and  C_6 
REMARK    5  A    between atoms: C_18  and  C_19 
ROOT
HETATM    1  C   UNL     1     -41.966  54.788 -50.685  1.00  0.00     0.088 C 
HETATM    2  C   UNL     1     -43.329  55.392 -50.970  1.00  0.00     0.060 C 
HETATM    3  C   UNL     1     -43.315  56.628 -51.893  1.00  0.00     0.181 C 
HETATM    4  N   UNL     1     -42.114  57.475 -51.824  1.00  0.00    -0.334 N 
HETATM    5  C   UNL     1     -41.861  58.456 -52.792  1.00  0.00     0.256 C 
HETATM    6  O   UNL     1     -40.759  59.002 -52.883  1.00  0.00    -0.267 OA
HETATM    7  C   UNL     1     -42.884  58.845 -53.796  1.00  0.00     0.059 A 
HETATM    8  C   UNL     1     -44.252  58.951 -53.544  1.00  0.00     0.050 A 
HETATM    9  N   UNL     1     -44.897  58.520 -52.382  1.00  0.00    -0.324 N 
HETATM   10  C   UNL     1     -44.562  57.480 -51.565  1.00  0.00     0.245 C 
HETATM   11  O   UNL     1     -45.370  57.190 -50.678  1.00  0.00    -0.271 OA
HETATM   12  C   UNL     1     -42.380  59.273 -55.042  1.00  0.00     0.031 A 
HETATM   13  C   UNL     1     -43.215  59.808 -56.029  1.00  0.00    -0.024 A 
HETATM   14  C   UNL     1     -44.572  59.959 -55.743  1.00  0.00     0.014 A 
HETATM   15  C   UNL     1     -45.081  59.546 -54.510  1.00  0.00     0.031 A 
HETATM   16  C   UNL     1     -40.894  56.988 -51.171  1.00  0.00     0.129 C 
HETATM   17  C   UNL     1     -41.068  55.890 -50.143  1.00  0.00     0.045 C 
HETATM   18  H   UNL     1     -45.833  58.860 -52.193  1.00  0.00     0.169 HD
ENDROOT
BRANCH   1  19
HETATM   19  N   UNL     1     -41.402  54.111 -51.845  1.00  0.00    -0.356 N 
HETATM   20  C   UNL     1     -40.571  53.020 -51.698  1.00  0.00     0.222 C 
HETATM   21  O   UNL     1     -40.316  52.516 -50.608  1.00  0.00    -0.273 OA
HETATM   22  H   UNL     1     -41.411  54.584 -52.738  1.00  0.00     0.162 HD
BRANCH  20  23
HETATM   23  C   UNL     1     -39.970  52.467 -52.991  1.00  0.00     0.077 C 
BRANCH  23  24
HETATM   24  C   UNL     1     -40.833  52.822 -54.215  1.00  0.00     0.009 C 
HETATM   25  C   UNL     1     -40.186  53.872 -55.109  1.00  0.00     0.006 C 
ENDBRANCH  23  24
BRANCH  23  26
HETATM   26  C   UNL     1     -39.750  50.945 -52.911  1.00  0.00     0.009 C 
HETATM   27  C   UNL     1     -39.868  50.262 -54.267  1.00  0.00     0.006 C 
ENDBRANCH  23  26
ENDBRANCH  20  23
ENDBRANCH   1  19
BRANCH  13  28
HETATM   28  C   UNL     1     -42.659  60.217 -57.315  1.00  0.00    -0.019 A 
HETATM   29  C   UNL     1     -42.981  59.568 -58.493  1.00  0.00     0.061 A 
HETATM   30  S   UNL     1     -42.169  60.222 -59.852  1.00  0.00    -0.113 SA
HETATM   31  C   UNL     1     -41.365  61.376 -58.883  1.00  0.00     0.050 A 
HETATM   32  C   UNL     1     -41.710  61.266 -57.554  1.00  0.00     0.020 A 
ENDBRANCH  13  28
TORSDOF 5
ENDMDL
MODEL 2
REMARK VINA RESULT:      -8.1      1.272      2.009
REMARK  5 active torsions:
REMARK  status: ('A' for Active; 'I' for Inactive)
REMARK    1  A    between atoms: C_2  and  C_3 
REMARK    2  A    between atoms: C_3  and  C_4 
REMARK    3  A    between atoms: C_3  and  C_29 
REMARK       I    between atoms: C_4  and  N_5 
REMARK    4  A    between atoms: N_5  and  C_6 
REMARK    5  A    between atoms: C_18  and  C_19 
ROOT
HETATM    1  C   UNL     1     -42.335  54.991 -50.142  1.00  0.00     0.088 C 
HETATM    2  C   UNL     1     -43.644  55.638 -50.555  1.00  0.00     0.060 C 
HETATM    3  C   UNL     1     -43.567  56.518 -51.819  1.00  0.00     0.181 C 
HETATM    4  N   UNL     1     -42.282  57.193 -52.062  1.00  0.00    -0.334 N 
HETATM    5  C   UNL     1     -41.998  57.789 -53.299  1.00  0.00     0.256 C 
HETATM    6  O   UNL     1     -40.854  58.142 -53.595  1.00  0.00    -0.267 OA
HETATM    7  C   UNL     1     -43.044  57.971 -54.337  1.00  0.00     0.059 A 
HETATM    8  C   UNL     1     -44.372  58.315 -54.083  1.00  0.00     0.050 A 
HETATM    9  N   UNL     1     -44.974  58.345 -52.823  1.00  0.00    -0.324 N 
HETATM   10  C   UNL     1     -44.692  57.575 -51.733  1.00  0.00     0.245 C 
HETATM   11  O   UNL     1     -45.460  57.673 -50.771  1.00  0.00    -0.271 OA
HETATM   12  C   UNL     1     -42.589  57.929 -55.672  1.00  0.00     0.031 A 
HETATM   13  C   UNL     1     -43.432  58.231 -56.746  1.00  0.00    -0.024 A 
HETATM   14  C   UNL     1     -44.742  58.627 -56.475  1.00  0.00     0.014 A 
HETATM   15  C   UNL     1     -45.201  58.679 -55.157  1.00  0.00     0.031 A 
HETATM   16  C   UNL     1     -41.076  56.787 -51.334  1.00  0.00     0.129 C 
HETATM   17  C   UNL     1     -41.290  56.089 -50.007  1.00  0.00     0.045 C 
HETATM   18  H   UNL     1     -45.853  58.838 -52.717  1.00  0.00     0.169 HD
ENDROOT
BRANCH   1  19
HETATM   19  N   UNL     1     -41.929  53.926 -51.049  1.00  0.00    -0.356 N 
HETATM   20  C   UNL     1     -40.917  53.050 -50.713  1.00  0.00     0.222 C 
HETATM   21  O   UNL     1     -40.356  53.066 -49.622  1.00  0.00    -0.273 OA
HETATM   22  H   UNL     1     -42.206  53.979 -52.020  1.00  0.00     0.162 HD
BRANCH  20  23
HETATM   23  C   UNL     1     -40.525  52.044 -51.796  1.00  0.00     0.077 C 
BRANCH  23  24
HETATM   24  C   UNL     1     -39.288  51.226 -51.388  1.00  0.00     0.009 C 
HETATM   25  C   UNL     1     -39.640  49.827 -50.898  1.00  0.00     0.006 C 
ENDBRANCH  23  24
BRANCH  23  26
HETATM   26  C   UNL     1     -40.291  52.733 -53.153  1.00  0.00     0.009 C 
HETATM   27  C   UNL     1     -40.218  51.743 -54.309  1.00  0.00     0.006 C 
ENDBRANCH  23  26
ENDBRANCH  20  23
ENDBRANCH   1  19
BRANCH  13  28
HETATM   28  C   UNL     1     -42.929  58.153 -58.115  1.00  0.00    -0.019 A 
HETATM   29  C   UNL     1     -42.596  59.282 -58.840  1.00  0.00     0.061 A 
HETATM   30  S   UNL     1     -42.065  58.917 -60.426  1.00  0.00    -0.113 SA
HETATM   31  C   UNL     1     -42.285  57.243 -60.172  1.00  0.00     0.050 A 
HETATM   32  C   UNL     1     -42.750  56.969 -58.904  1.00  0.00     0.020 A 
ENDBRANCH  13  28
TORSDOF 5
ENDMDL
MODEL 3
REMARK VINA RESULT:      -8.1      3.157      7.622
REMARK  5 active torsions:
REMARK  status: ('A' for Active; 'I' for Inactive)
REMARK    1  A    between atoms: C_2  and  C_3 
REMARK    2  A    between atoms: C_3  and  C_4 
REMARK    3  A    between atoms: C_3  and  C_29 
REMARK       I    between atoms: C_4  and  N_5 
REMARK    4  A    between atoms: N_5  and  C_6 
REMARK    5  A    between atoms: C_18  and  C_19 
ROOT
HETATM    1  C   UNL     1     -43.174  59.273 -54.372  1.00  0.00     0.088 C 
HETATM    2  C   UNL     1     -42.266  59.297 -53.156  1.00  0.00     0.060 C 
HETATM    3  C   UNL     1     -42.062  57.933 -52.466  1.00  0.00     0.181 C 
HETATM    4  N   UNL     1     -43.189  56.990 -52.547  1.00  0.00    -0.334 N 
HETATM    5  C   UNL     1     -43.031  55.640 -52.207  1.00  0.00     0.256 C 
HETATM    6  O   UNL     1     -43.887  54.800 -52.494  1.00  0.00    -0.267 OA
HETATM    7  C   UNL     1     -41.803  55.141 -51.538  1.00  0.00     0.059 A 
HETATM    8  C   UNL     1     -41.088  55.832 -50.558  1.00  0.00     0.050 A 
HETATM    9  N   UNL     1     -41.290  57.166 -50.199  1.00  0.00    -0.324 N 
HETATM   10  C   UNL     1     -41.722  58.196 -50.981  1.00  0.00     0.245 C 
HETATM   11  O   UNL     1     -41.678  59.326 -50.484  1.00  0.00    -0.271 OA
HETATM   12  C   UNL     1     -41.448  53.808 -51.836  1.00  0.00     0.031 A 
HETATM   13  C   UNL     1     -40.404  53.158 -51.168  1.00  0.00    -0.024 A 
HETATM   14  C   UNL     1     -39.734  53.842 -50.154  1.00  0.00     0.014 A 
HETATM   15  C   UNL     1     -40.082  55.159 -49.845  1.00  0.00     0.031 A 
HETATM   16  C   UNL     1     -44.283  57.216 -53.497  1.00  0.00     0.129 C 
HETATM   17  C   UNL     1     -44.495  58.642 -53.959  1.00  0.00     0.045 C 
HETATM   18  H   UNL     1     -40.900  57.496 -49.323  1.00  0.00     0.169 HD
ENDROOT
BRANCH   1  19
HETATM   19  N   UNL     1     -42.558  58.610 -55.514  1.00  0.00    -0.356 N 
HETATM   20  C   UNL     1     -43.160  58.624 -56.755  1.00  0.00     0.222 C 
HETATM   21  O   UNL     1     -44.194  59.243 -56.989  1.00  0.00    -0.273 OA
HETATM   22  H   UNL     1     -41.827  57.932 -55.349  1.00  0.00     0.162 HD
BRANCH  20  23
HETATM   23  C   UNL     1     -42.457  57.807 -57.841  1.00  0.00     0.077 C 
BRANCH  23  24
HETATM   24  C   UNL     1     -42.418  58.562 -59.182  1.00  0.00     0.009 C 
HETATM   25  C   UNL     1     -41.808  57.735 -60.307  1.00  0.00     0.006 C 
ENDBRANCH  23  24
BRANCH  23  26
HETATM   26  C   UNL     1     -43.107  56.423 -58.021  1.00  0.00     0.009 C 
HETATM   27  C   UNL     1     -42.834  55.490 -56.848  1.00  0.00     0.006 C 
ENDBRANCH  23  26
ENDBRANCH  20  23
ENDBRANCH   1  19
BRANCH  13  28
HETATM   28  C   UNL     1     -40.052  51.786 -51.522  1.00  0.00    -0.019 A 
HETATM   29  C   UNL     1     -39.842  51.397 -52.832  1.00  0.00     0.061 A 
HETATM   30  S   UNL     1     -39.475  49.731 -52.976  1.00  0.00    -0.113 SA
HETATM   31  C   UNL     1     -39.604  49.501 -51.288  1.00  0.00     0.050 A 
HETATM   32  C   UNL     1     -39.916  50.671 -50.630  1.00  0.00     0.020 A 
ENDBRANCH  13  28
TORSDOF 5
ENDMDL
MODEL 4
REMARK VINA RESULT:      -8.1      2.990      7.713
REMARK  5 active torsions:
REMARK  status: ('A' for Active; 'I' for Inactive)
REMARK    1  A    between atoms: C_2  and  C_3 
REMARK    2  A    between atoms: C_3  and  C_4 
REMARK    3  A    between atoms: C_3  and  C_29 
REMARK       I    between atoms: C_4  and  N_5 
REMARK    4  A    between atoms: N_5  and  C_6 
REMARK    5  A    between atoms: C_18  and  C_19 
ROOT
HETATM    1  C   UNL     1     -42.769  60.382 -53.950  1.00  0.00     0.088 C 
HETATM    2  C   UNL     1     -41.938  60.087 -52.715  1.00  0.00     0.060 C 
HETATM    3  C   UNL     1     -41.854  58.597 -52.325  1.00  0.00     0.181 C 
HETATM    4  N   UNL     1     -43.025  57.772 -52.662  1.00  0.00    -0.334 N 
HETATM    5  C   UNL     1     -42.964  56.373 -52.612  1.00  0.00     0.256 C 
HETATM    6  O   UNL     1     -43.847  55.672 -53.114  1.00  0.00    -0.267 OA
HETATM    7  C   UNL     1     -41.810  55.661 -52.008  1.00  0.00     0.059 A 
HETATM    8  C   UNL     1     -41.120  56.079 -50.869  1.00  0.00     0.050 A 
HETATM    9  N   UNL     1     -41.269  57.317 -50.241  1.00  0.00    -0.324 N 
HETATM   10  C   UNL     1     -41.592  58.517 -50.804  1.00  0.00     0.245 C 
HETATM   11  O   UNL     1     -41.516  59.510 -50.074  1.00  0.00    -0.271 OA
HETATM   12  C   UNL     1     -41.513  54.400 -52.567  1.00  0.00     0.031 A 
HETATM   13  C   UNL     1     -40.550  53.555 -52.005  1.00  0.00    -0.024 A 
HETATM   14  C   UNL     1     -39.907  53.961 -50.836  1.00  0.00     0.014 A 
HETATM   15  C   UNL     1     -40.199  55.204 -50.269  1.00  0.00     0.031 A 
HETATM   16  C   UNL     1     -44.044  58.267 -53.593  1.00  0.00     0.129 C 
HETATM   17  C   UNL     1     -44.146  59.770 -53.748  1.00  0.00     0.045 C 
HETATM   18  H   UNL     1     -40.915  57.428 -49.297  1.00  0.00     0.169 HD
ENDROOT
BRANCH   1  19
HETATM   19  N   UNL     1     -42.121  59.936 -55.177  1.00  0.00    -0.356 N 
HETATM   20  C   UNL     1     -42.365  60.565 -56.380  1.00  0.00     0.222 C 
HETATM   21  O   UNL     1     -43.071  61.563 -56.481  1.00  0.00    -0.273 OA
HETATM   22  H   UNL     1     -41.695  59.020 -55.198  1.00  0.00     0.162 HD
BRANCH  20  23
HETATM   23  C   UNL     1     -41.699  59.933 -57.604  1.00  0.00     0.077 C 
BRANCH  23  24
HETATM   24  C   UNL     1     -41.601  60.929 -58.773  1.00  0.00     0.009 C 
HETATM   25  C   UNL     1     -40.473  61.938 -58.597  1.00  0.00     0.006 C 
ENDBRANCH  23  24
BRANCH  23  26
HETATM   26  C   UNL     1     -42.425  58.651 -58.048  1.00  0.00     0.009 C 
HETATM   27  C   UNL     1     -41.952  58.149 -59.407  1.00  0.00     0.006 C 
ENDBRANCH  23  26
ENDBRANCH  20  23
ENDBRANCH   1  19
BRANCH  13  28
HETATM   28  C   UNL     1     -40.255  52.268 -52.627  1.00  0.00    -0.019 A 
HETATM   29  C   UNL     1     -39.742  51.205 -51.907  1.00  0.00     0.061 A 
HETATM   30  S   UNL     1     -39.454  49.824 -52.878  1.00  0.00    -0.113 SA
HETATM   31  C   UNL     1     -40.000  50.631 -54.281  1.00  0.00     0.050 A 
HETATM   32  C   UNL     1     -40.395  51.923 -54.012  1.00  0.00     0.020 A 
ENDBRANCH  13  28
TORSDOF 5
ENDMDL
MODEL 5
REMARK VINA RESULT:      -7.5      4.168      6.283
REMARK  5 active torsions:
REMARK  status: ('A' for Active; 'I' for Inactive)
REMARK    1  A    between atoms: C_2  and  C_3 
REMARK    2  A    between atoms: C_3  and  C_4 
REMARK    3  A    between atoms: C_3  and  C_29 
REMARK       I    between atoms: C_4  and  N_5 
REMARK    4  A    between atoms: N_5  and  C_6 
REMARK    5  A    between atoms: C_18  and  C_19 
ROOT
HETATM    1  C   UNL     1     -41.890  55.950 -53.758  1.00  0.00     0.088 C 
HETATM    2  C   UNL     1     -41.398  57.379 -53.891  1.00  0.00     0.060 C 
HETATM    3  C   UNL     1     -42.237  58.432 -53.139  1.00  0.00     0.181 C 
HETATM    4  N   UNL     1     -43.672  58.138 -53.001  1.00  0.00    -0.334 N 
HETATM    5  C   UNL     1     -44.480  58.865 -52.116  1.00  0.00     0.256 C 
HETATM    6  O   UNL     1     -45.613  58.481 -51.815  1.00  0.00    -0.267 OA
HETATM    7  C   UNL     1     -43.993  60.100 -51.450  1.00  0.00     0.059 A 
HETATM    8  C   UNL     1     -43.178  61.063 -52.046  1.00  0.00     0.050 A 
HETATM    9  N   UNL     1     -42.530  60.926 -53.275  1.00  0.00    -0.324 N 
HETATM   10  C   UNL     1     -42.059  59.787 -53.861  1.00  0.00     0.245 C 
HETATM   11  O   UNL     1     -41.383  59.929 -54.884  1.00  0.00    -0.271 OA
HETATM   12  C   UNL     1     -44.537  60.356 -50.173  1.00  0.00     0.031 A 
HETATM   13  C   UNL     1     -44.286  61.552 -49.492  1.00  0.00    -0.024 A 
HETATM   14  C   UNL     1     -43.514  62.528 -50.123  1.00  0.00     0.014 A 
HETATM   15  C   UNL     1     -42.977  62.289 -51.390  1.00  0.00     0.031 A 
HETATM   16  C   UNL     1     -44.188  56.792 -53.269  1.00  0.00     0.129 C 
HETATM   17  C   UNL     1     -43.351  55.916 -54.178  1.00  0.00     0.045 C 
HETATM   18  H   UNL     1     -42.171  61.758 -53.729  1.00  0.00     0.169 HD
ENDROOT
BRANCH   1  19
HETATM   19  N   UNL     1     -41.666  55.405 -52.426  1.00  0.00    -0.356 N 
HETATM   20  C   UNL     1     -41.395  54.065 -52.240  1.00  0.00     0.222 C 
HETATM   21  O   UNL     1     -41.256  53.277 -53.170  1.00  0.00    -0.273 OA
HETATM   22  H   UNL     1     -41.956  55.946 -51.622  1.00  0.00     0.162 HD
BRANCH  20  23
HETATM   23  C   UNL     1     -41.280  53.608 -50.785  1.00  0.00     0.077 C 
BRANCH  23  24
HETATM   24  C   UNL     1     -41.369  54.795 -49.809  1.00  0.00     0.009 C 
HETATM   25  C   UNL     1     -40.762  54.486 -48.447  1.00  0.00     0.006 C 
ENDBRANCH  23  24
BRANCH  23  26
HETATM   26  C   UNL     1     -39.989  52.806 -50.542  1.00  0.00     0.009 C 
HETATM   27  C   UNL     1     -40.247  51.314 -50.374  1.00  0.00     0.006 C 
ENDBRANCH  23  26
ENDBRANCH  20  23
ENDBRANCH   1  19
BRANCH  13  28
HETATM   28  C   UNL     1     -44.847  61.768 -48.162  1.00  0.00    -0.019 A 
HETATM   29  C   UNL     1     -44.836  63.011 -47.554  1.00  0.00     0.061 A 
HETATM   30  S   UNL     1     -45.524  62.987 -45.987  1.00  0.00    -0.113 SA
HETATM   31  C   UNL     1     -45.837  61.311 -46.092  1.00  0.00     0.050 A 
HETATM   32  C   UNL     1     -45.428  60.783 -47.297  1.00  0.00     0.020 A 
ENDBRANCH  13  28
TORSDOF 5
ENDMDL
MODEL 6
REMARK VINA RESULT:      -7.1      2.975      5.349
REMARK  5 active torsions:
REMARK  status: ('A' for Active; 'I' for Inactive)
REMARK    1  A    between atoms: C_2  and  C_3 
REMARK    2  A    between atoms: C_3  and  C_4 
REMARK    3  A    between atoms: C_3  and  C_29 
REMARK       I    between atoms: C_4  and  N_5 
REMARK    4  A    between atoms: N_5  and  C_6 
REMARK    5  A    between atoms: C_18  and  C_19 
ROOT
HETATM    1  C   UNL     1     -42.898  56.547 -52.331  1.00  0.00     0.088 C 
HETATM    2  C   UNL     1     -42.530  55.614 -53.471  1.00  0.00     0.060 C 
HETATM    3  C   UNL     1     -42.895  56.129 -54.878  1.00  0.00     0.181 C 
HETATM    4  N   UNL     1     -44.080  56.995 -54.965  1.00  0.00    -0.334 N 
HETATM    5  C   UNL     1     -44.352  57.739 -56.122  1.00  0.00     0.256 C 
HETATM    6  O   UNL     1     -45.195  58.640 -56.124  1.00  0.00    -0.267 OA
HETATM    7  C   UNL     1     -43.601  57.523 -57.384  1.00  0.00     0.059 A 
HETATM    8  C   UNL     1     -43.178  56.282 -57.862  1.00  0.00     0.050 A 
HETATM    9  N   UNL     1     -43.212  55.085 -57.144  1.00  0.00    -0.324 N 
HETATM   10  C   UNL     1     -43.089  54.901 -55.799  1.00  0.00     0.245 C 
HETATM   11  O   UNL     1     -42.997  53.735 -55.404  1.00  0.00    -0.271 OA
HETATM   12  C   UNL     1     -43.452  58.662 -58.204  1.00  0.00     0.031 A 
HETATM   13  C   UNL     1     -42.899  58.578 -59.486  1.00  0.00    -0.024 A 
HETATM   14  C   UNL     1     -42.530  57.323 -59.972  1.00  0.00     0.014 A 
HETATM   15  C   UNL     1     -42.680  56.188 -59.172  1.00  0.00     0.031 A 
HETATM   16  C   UNL     1     -44.663  57.585 -53.756  1.00  0.00     0.129 C 
HETATM   17  C   UNL     1     -44.379  56.873 -52.451  1.00  0.00     0.045 C 
HETATM   18  H   UNL     1     -43.119  54.213 -57.653  1.00  0.00     0.169 HD
ENDROOT
BRANCH   1  19
HETATM   19  N   UNL     1     -42.054  57.733 -52.288  1.00  0.00    -0.356 N 
HETATM   20  C   UNL     1     -41.208  57.967 -51.222  1.00  0.00     0.222 C 
HETATM   21  O   UNL     1     -41.063  57.172 -50.298  1.00  0.00    -0.273 OA
HETATM   22  H   UNL     1     -42.265  58.506 -52.903  1.00  0.00     0.162 HD
BRANCH  20  23
HETATM   23  C   UNL     1     -40.454  59.297 -51.256  1.00  0.00     0.077 C 
BRANCH  23  24
HETATM   24  C   UNL     1     -38.940  59.095 -51.066  1.00  0.00     0.009 C 
HETATM   25  C   UNL     1     -38.365  59.957 -49.949  1.00  0.00     0.006 C 
ENDBRANCH  23  24
BRANCH  23  26
HETATM   26  C   UNL     1     -41.000  60.287 -50.211  1.00  0.00     0.009 C 
HETATM   27  C   UNL     1     -42.404  60.777 -50.544  1.00  0.00     0.006 C 
ENDBRANCH  23  26
ENDBRANCH  20  23
ENDBRANCH   1  19
BRANCH  13  28
HETATM   28  C   UNL     1     -42.739  59.783 -60.295  1.00  0.00    -0.019 A 
HETATM   29  C   UNL     1     -43.551  60.050 -61.382  1.00  0.00     0.061 A 
HETATM   30  S   UNL     1     -43.134  61.508 -62.177  1.00  0.00    -0.113 SA
HETATM   31  C   UNL     1     -41.852  61.799 -61.086  1.00  0.00     0.050 A 
HETATM   32  C   UNL     1     -41.748  60.807 -60.136  1.00  0.00     0.020 A 
ENDBRANCH  13  28
TORSDOF 5
ENDMDL
MODEL 7
REMARK VINA RESULT:      -7.1     16.977     20.015
REMARK  5 active torsions:
REMARK  status: ('A' for Active; 'I' for Inactive)
REMARK    1  A    between atoms: C_2  and  C_3 
REMARK    2  A    between atoms: C_3  and  C_4 
REMARK    3  A    between atoms: C_3  and  C_29 
REMARK       I    between atoms: C_4  and  N_5 
REMARK    4  A    between atoms: N_5  and  C_6 
REMARK    5  A    between atoms: C_18  and  C_19 
ROOT
HETATM    1  C   UNL     1     -35.117  41.044 -57.321  1.00  0.00     0.088 C 
HETATM    2  C   UNL     1     -33.920  40.433 -56.616  1.00  0.00     0.060 C 
HETATM    3  C   UNL     1     -34.012  40.408 -55.077  1.00  0.00     0.181 C 
HETATM    4  N   UNL     1     -34.778  41.499 -54.455  1.00  0.00    -0.334 N 
HETATM    5  C   UNL     1     -35.163  41.440 -53.109  1.00  0.00     0.256 C 
HETATM    6  O   UNL     1     -35.997  42.220 -52.643  1.00  0.00    -0.267 OA
HETATM    7  C   UNL     1     -34.634  40.400 -52.190  1.00  0.00     0.059 A 
HETATM    8  C   UNL     1     -33.326  39.916 -52.197  1.00  0.00     0.050 A 
HETATM    9  N   UNL     1     -32.372  40.177 -53.184  1.00  0.00    -0.324 N 
HETATM   10  C   UNL     1     -32.572  40.407 -54.513  1.00  0.00     0.245 C 
HETATM   11  O   UNL     1     -31.565  40.462 -55.225  1.00  0.00    -0.271 OA
HETATM   12  C   UNL     1     -35.507  40.005 -51.153  1.00  0.00     0.031 A 
HETATM   13  C   UNL     1     -35.091  39.147 -50.129  1.00  0.00    -0.024 A 
HETATM   14  C   UNL     1     -33.765  38.714 -50.119  1.00  0.00     0.014 A 
HETATM   15  C   UNL     1     -32.891  39.105 -51.136  1.00  0.00     0.031 A 
HETATM   16  C   UNL     1     -35.658  42.348 -55.264  1.00  0.00     0.129 C 
HETATM   17  C   UNL     1     -35.345  42.432 -56.743  1.00  0.00     0.045 C 
HETATM   18  H   UNL     1     -31.398  39.990 -52.978  1.00  0.00     0.169 HD
ENDROOT
BRANCH   1  19
HETATM   19  N   UNL     1     -36.299  40.195 -57.249  1.00  0.00    -0.356 N 
HETATM   20  C   UNL     1     -36.623  39.336 -58.279  1.00  0.00     0.222 C 
HETATM   21  O   UNL     1     -35.913  39.182 -59.268  1.00  0.00    -0.273 OA
HETATM   22  H   UNL     1     -37.016  40.412 -56.570  1.00  0.00     0.162 HD
BRANCH  20  23
HETATM   23  C   UNL     1     -37.941  38.577 -58.119  1.00  0.00     0.077 C 
BRANCH  23  24
HETATM   24  C   UNL     1     -37.708  37.064 -57.958  1.00  0.00     0.009 C 
HETATM   25  C   UNL     1     -36.876  36.722 -56.729  1.00  0.00     0.006 C 
ENDBRANCH  23  24
BRANCH  23  26
HETATM   26  C   UNL     1     -38.901  38.853 -59.290  1.00  0.00     0.009 C 
HETATM   27  C   UNL     1     -39.459  37.576 -59.906  1.00  0.00     0.006 C 
ENDBRANCH  23  26
ENDBRANCH  20  23
ENDBRANCH   1  19
BRANCH  13  28
HETATM   28  C   UNL     1     -36.031  38.742 -49.088  1.00  0.00    -0.019 A 
HETATM   29  C   UNL     1     -35.613  38.133 -47.919  1.00  0.00     0.061 A 
HETATM   30  S   UNL     1     -36.914  37.730 -46.881  1.00  0.00    -0.113 SA
HETATM   31  C   UNL     1     -38.058  38.353 -47.985  1.00  0.00     0.050 A 
HETATM   32  C   UNL     1     -37.460  38.860 -49.118  1.00  0.00     0.020 A 
ENDBRANCH  13  28
TORSDOF 5
ENDMDL
MODEL 8
REMARK VINA RESULT:      -7.0      4.452      7.652
REMARK  5 active torsions:
REMARK  status: ('A' for Active; 'I' for Inactive)
REMARK    1  A    between atoms: C_2  and  C_3 
REMARK    2  A    between atoms: C_3  and  C_4 
REMARK    3  A    between atoms: C_3  and  C_29 
REMARK       I    between atoms: C_4  and  N_5 
REMARK    4  A    between atoms: N_5  and  C_6 
REMARK    5  A    between atoms: C_18  and  C_19 
ROOT
HETATM    1  C   UNL     1     -43.308  55.866 -58.781  1.00  0.00     0.088 C 
HETATM    2  C   UNL     1     -42.915  55.219 -57.466  1.00  0.00     0.060 C 
HETATM    3  C   UNL     1     -42.851  56.177 -56.260  1.00  0.00     0.181 C 
HETATM    4  N   UNL     1     -42.478  57.569 -56.557  1.00  0.00    -0.334 N 
HETATM    5  C   UNL     1     -42.650  58.585 -55.607  1.00  0.00     0.256 C 
HETATM    6  O   UNL     1     -42.569  59.776 -55.917  1.00  0.00    -0.267 OA
HETATM    7  C   UNL     1     -42.997  58.283 -54.195  1.00  0.00     0.059 A 
HETATM    8  C   UNL     1     -42.502  57.204 -53.462  1.00  0.00     0.050 A 
HETATM    9  N   UNL     1     -41.773  56.135 -53.988  1.00  0.00    -0.324 N 
HETATM   10  C   UNL     1     -41.855  55.588 -55.235  1.00  0.00     0.245 C 
HETATM   11  O   UNL     1     -41.219  54.547 -55.427  1.00  0.00    -0.271 OA
HETATM   12  C   UNL     1     -43.769  59.264 -53.537  1.00  0.00     0.031 A 
HETATM   13  C   UNL     1     -44.044  59.187 -52.167  1.00  0.00    -0.024 A 
HETATM   14  C   UNL     1     -43.498  58.131 -51.436  1.00  0.00     0.014 A 
HETATM   15  C   UNL     1     -42.726  57.159 -52.076  1.00  0.00     0.031 A 
HETATM   16  C   UNL     1     -42.494  58.068 -57.936  1.00  0.00     0.129 C 
HETATM   17  C   UNL     1     -42.364  57.032 -59.032  1.00  0.00     0.045 C 
HETATM   18  H   UNL     1     -41.255  55.541 -53.351  1.00  0.00     0.169 HD
ENDROOT
BRANCH   1  19
HETATM   19  N   UNL     1     -44.712  56.252 -58.815  1.00  0.00    -0.356 N 
HETATM   20  C   UNL     1     -45.451  56.153 -59.976  1.00  0.00     0.222 C 
HETATM   21  O   UNL     1     -45.003  55.676 -61.014  1.00  0.00    -0.273 OA
HETATM   22  H   UNL     1     -45.079  56.824 -58.067  1.00  0.00     0.162 HD
BRANCH  20  23
HETATM   23  C   UNL     1     -46.883  56.685 -59.897  1.00  0.00     0.077 C 
BRANCH  23  24
HETATM   24  C   UNL     1     -47.619  56.533 -61.239  1.00  0.00     0.009 C 
HETATM   25  C   UNL     1     -48.134  57.860 -61.784  1.00  0.00     0.006 C 
ENDBRANCH  23  24
BRANCH  23  26
HETATM   26  C   UNL     1     -46.920  58.150 -59.425  1.00  0.00     0.009 C 
HETATM   27  C   UNL     1     -47.277  58.283 -57.950  1.00  0.00     0.006 C 
ENDBRANCH  23  26
ENDBRANCH  20  23
ENDBRANCH   1  19
BRANCH  13  28
HETATM   28  C   UNL     1     -44.867  60.209 -51.527  1.00  0.00    -0.019 A 
HETATM   29  C   UNL     1     -44.695  60.565 -50.202  1.00  0.00     0.061 A 
HETATM   30  S   UNL     1     -45.808  61.761 -49.689  1.00  0.00    -0.113 SA
HETATM   31  C   UNL     1     -46.545  61.812 -51.229  1.00  0.00     0.050 A 
HETATM   32  C   UNL     1     -45.953  60.939 -52.115  1.00  0.00     0.020 A 
ENDBRANCH  13  28
TORSDOF 5
ENDMDL
MODEL 9
REMARK VINA RESULT:      -6.9     16.668     19.321
REMARK  5 active torsions:
REMARK  status: ('A' for Active; 'I' for Inactive)
REMARK    1  A    between atoms: C_2  and  C_3 
REMARK    2  A    between atoms: C_3  and  C_4 
REMARK    3  A    between atoms: C_3  and  C_29 
REMARK       I    between atoms: C_4  and  N_5 
REMARK    4  A    between atoms: N_5  and  C_6 
REMARK    5  A    between atoms: C_18  and  C_19 
ROOT
HETATM    1  C   UNL     1     -34.564  41.480 -57.026  1.00  0.00     0.088 C 
HETATM    2  C   UNL     1     -33.665  40.695 -56.089  1.00  0.00     0.060 C 
HETATM    3  C   UNL     1     -34.201  40.533 -54.652  1.00  0.00     0.181 C 
HETATM    4  N   UNL     1     -35.043  41.628 -54.147  1.00  0.00    -0.334 N 
HETATM    5  C   UNL     1     -35.806  41.479 -52.981  1.00  0.00     0.256 C 
HETATM    6  O   UNL     1     -36.688  42.287 -52.681  1.00  0.00    -0.267 OA
HETATM    7  C   UNL     1     -35.634  40.312 -52.079  1.00  0.00     0.059 A 
HETATM    8  C   UNL     1     -34.413  39.709 -51.775  1.00  0.00     0.050 A 
HETATM    9  N   UNL     1     -33.199  39.970 -52.415  1.00  0.00    -0.324 N 
HETATM   10  C   UNL     1     -32.990  40.343 -53.710  1.00  0.00     0.245 C 
HETATM   11  O   UNL     1     -31.818  40.369 -54.097  1.00  0.00    -0.271 OA
HETATM   12  C   UNL     1     -36.793  39.905 -51.384  1.00  0.00     0.031 A 
HETATM   13  C   UNL     1     -36.748  38.919 -50.393  1.00  0.00    -0.024 A 
HETATM   14  C   UNL     1     -35.512  38.363 -50.061  1.00  0.00     0.014 A 
HETATM   15  C   UNL     1     -34.357  38.764 -50.737  1.00  0.00     0.031 A 
HETATM   16  C   UNL     1     -35.595  42.630 -55.066  1.00  0.00     0.129 C 
HETATM   17  C   UNL     1     -34.861  42.823 -56.376  1.00  0.00     0.045 C 
HETATM   18  H   UNL     1     -32.341  39.673 -51.966  1.00  0.00     0.169 HD
ENDROOT
BRANCH   1  19
HETATM   19  N   UNL     1     -35.767  40.744 -57.390  1.00  0.00    -0.356 N 
HETATM   20  C   UNL     1     -36.698  41.283 -58.254  1.00  0.00     0.222 C 
HETATM   21  O   UNL     1     -36.541  42.363 -58.816  1.00  0.00    -0.273 OA
HETATM   22  H   UNL     1     -36.048  39.955 -56.823  1.00  0.00     0.162 HD
BRANCH  20  23
HETATM   23  C   UNL     1     -37.960  40.447 -58.473  1.00  0.00     0.077 C 
BRANCH  23  24
HETATM   24  C   UNL     1     -38.546  39.946 -57.141  1.00  0.00     0.009 C 
HETATM   25  C   UNL     1     -38.655  41.046 -56.093  1.00  0.00     0.006 C 
ENDBRANCH  23  24
BRANCH  23  26
HETATM   26  C   UNL     1     -37.702  39.266 -59.426  1.00  0.00     0.009 C 
HETATM   27  C   UNL     1     -37.421  39.715 -60.855  1.00  0.00     0.006 C 
ENDBRANCH  23  26
ENDBRANCH  20  23
ENDBRANCH   1  19
BRANCH  13  28
HETATM   28  C   UNL     1     -37.973  38.508 -49.714  1.00  0.00    -0.019 A 
HETATM   29  C   UNL     1     -39.124  38.183 -50.409  1.00  0.00     0.061 A 
HETATM   30  S   UNL     1     -40.425  37.768 -49.377  1.00  0.00    -0.113 SA
HETATM   31  C   UNL     1     -39.473  38.029 -47.983  1.00  0.00     0.050 A 
HETATM   32  C   UNL     1     -38.191  38.421 -48.299  1.00  0.00     0.020 A 
ENDBRANCH  13  28
TORSDOF 5
ENDMDL
MODEL 10
REMARK VINA RESULT:      -6.4      2.415      3.290
REMARK  5 active torsions:
REMARK  status: ('A' for Active; 'I' for Inactive)
REMARK    1  A    between atoms: C_2  and  C_3 
REMARK    2  A    between atoms: C_3  and  C_4 
REMARK    3  A    between atoms: C_3  and  C_29 
REMARK       I    between atoms: C_4  and  N_5 
REMARK    4  A    between atoms: N_5  and  C_6 
REMARK    5  A    between atoms: C_18  and  C_19 
ROOT
HETATM    1  C   UNL     1     -41.238  58.041 -51.014  1.00  0.00     0.088 C 
HETATM    2  C   UNL     1     -42.463  58.931 -50.915  1.00  0.00     0.060 C 
HETATM    3  C   UNL     1     -42.968  59.497 -52.258  1.00  0.00     0.181 C 
HETATM    4  N   UNL     1     -41.945  59.734 -53.288  1.00  0.00    -0.334 N 
HETATM    5  C   UNL     1     -42.301  59.981 -54.621  1.00  0.00     0.256 C 
HETATM    6  O   UNL     1     -41.466  59.943 -55.528  1.00  0.00    -0.267 OA
HETATM    7  C   UNL     1     -43.708  60.241 -55.018  1.00  0.00     0.059 A 
HETATM    8  C   UNL     1     -44.628  60.979 -54.271  1.00  0.00     0.050 A 
HETATM    9  N   UNL     1     -44.440  61.413 -52.957  1.00  0.00    -0.324 N 
HETATM   10  C   UNL     1     -43.716  60.819 -51.966  1.00  0.00     0.245 C 
HETATM   11  O   UNL     1     -43.819  61.306 -50.836  1.00  0.00    -0.271 OA
HETATM   12  C   UNL     1     -44.059  59.821 -56.319  1.00  0.00     0.031 A 
HETATM   13  C   UNL     1     -45.302  60.132 -56.882  1.00  0.00    -0.024 A 
HETATM   14  C   UNL     1     -46.190  60.916 -56.145  1.00  0.00     0.014 A 
HETATM   15  C   UNL     1     -45.850  61.344 -54.860  1.00  0.00     0.031 A 
HETATM   16  C   UNL     1     -40.603  59.159 -53.152  1.00  0.00     0.129 C 
HETATM   17  C   UNL     1     -40.153  58.814 -51.749  1.00  0.00     0.045 C 
HETATM   18  H   UNL     1     -45.047  62.139 -52.595  1.00  0.00     0.169 HD
ENDROOT
BRANCH   1  19
HETATM   19  N   UNL     1     -41.533  56.752 -51.626  1.00  0.00    -0.356 N 
HETATM   20  C   UNL     1     -41.092  55.575 -51.057  1.00  0.00     0.222 C 
HETATM   21  O   UNL     1     -40.497  55.534 -49.984  1.00  0.00    -0.273 OA
HETATM   22  H   UNL     1     -41.838  56.727 -52.589  1.00  0.00     0.162 HD
BRANCH  20  23
HETATM   23  C   UNL     1     -41.385  54.303 -51.854  1.00  0.00     0.077 C 
BRANCH  23  24
HETATM   24  C   UNL     1     -42.881  54.180 -52.194  1.00  0.00     0.009 C 
HETATM   25  C   UNL     1     -43.762  54.072 -50.956  1.00  0.00     0.006 C 
ENDBRANCH  23  24
BRANCH  23  26
HETATM   26  C   UNL     1     -40.895  53.044 -51.116  1.00  0.00     0.009 C 
HETATM   27  C   UNL     1     -39.928  52.214 -51.950  1.00  0.00     0.006 C 
ENDBRANCH  23  26
ENDBRANCH  20  23
ENDBRANCH   1  19
BRANCH  13  28
HETATM   28  C   UNL     1     -45.637  59.658 -58.221  1.00  0.00    -0.019 A 
HETATM   29  C   UNL     1     -46.900  59.819 -58.762  1.00  0.00     0.061 A 
HETATM   30  S   UNL     1     -47.039  59.147 -60.331  1.00  0.00    -0.113 SA
HETATM   31  C   UNL     1     -45.414  58.620 -60.307  1.00  0.00     0.050 A 
HETATM   32  C   UNL     1     -44.780  58.953 -59.130  1.00  0.00     0.020 A 
ENDBRANCH  13  28
TORSDOF 5
ENDMDL
