MODEL 1
REMARK VINA RESULT:      -7.6      0.000      0.000
REMARK  5 active torsions:
REMARK  status: ('A' for Active; 'I' for Inactive)
REMARK    1  A    between atoms: C_2  and  O_3 
REMARK    2  A    between atoms: O_3  and  C_4 
REMARK    3  A    between atoms: C_9  and  C_10 
REMARK       I    between atoms: C_10  and  N_11 
REMARK    4  A    between atoms: N_11  and  C_12 
REMARK    5  A    between atoms: C_12  and  C_13 
ROOT
HETATM    1  C   UNL     1     -40.559  53.490 -54.092  1.00  0.00     0.256 C 
HETATM    2  N   UNL     1     -41.638  54.143 -53.550  1.00  0.00    -0.348 N 
HETATM    3  O   UNL     1     -39.902  53.960 -55.017  1.00  0.00    -0.267 OA
HETATM    4  H   UNL     1     -42.141  53.706 -52.784  1.00  0.00     0.163 HD
ENDROOT
BRANCH   1   5
HETATM    5  C   UNL     1     -40.188  52.163 -53.519  1.00  0.00     0.084 A 
HETATM    6  C   UNL     1     -39.752  51.943 -52.210  1.00  0.00     0.180 A 
HETATM    7  N   UNL     1     -39.421  50.718 -51.724  1.00  0.00    -0.236 NA
HETATM    8  C   UNL     1     -39.516  49.670 -52.570  1.00  0.00     0.119 A 
HETATM    9  C   UNL     1     -39.931  49.780 -53.883  1.00  0.00     0.020 A 
HETATM   10  C   UNL     1     -40.270  51.044 -54.361  1.00  0.00     0.023 A 
BRANCH   6  11
HETATM   11  O   UNL     1     -39.665  53.020 -51.347  1.00  0.00    -0.334 OA
BRANCH  11  12
HETATM   12  C   UNL     1     -40.485  52.905 -50.182  1.00  0.00     0.173 C 
HETATM   13  C   UNL     1     -40.019  53.957 -49.190  1.00  0.00     0.034 C 
ENDBRANCH  11  12
ENDBRANCH   6  11
ENDBRANCH   1   5
BRANCH   2  14
HETATM   14  C   UNL     1     -42.091  55.444 -54.008  1.00  0.00     0.114 C 
HETATM   15  C   UNL     1     -43.616  55.494 -54.133  1.00  0.00     0.037 C 
BRANCH  14  16
HETATM   16  C   UNL     1     -41.541  56.514 -53.078  1.00  0.00    -0.036 A 
HETATM   17  C   UNL     1     -41.526  56.349 -51.683  1.00  0.00     0.010 A 
HETATM   18  C   UNL     1     -40.979  57.330 -50.853  1.00  0.00     0.019 A 
HETATM   19  C   UNL     1     -40.432  58.481 -51.411  1.00  0.00     0.011 A 
HETATM   20 BR   UNL     1     -39.684  59.806 -50.288  1.00  0.00    -0.051 Br
HETATM   21  C   UNL     1     -40.424  58.661 -52.791  1.00  0.00     0.019 A 
HETATM   22  C   UNL     1     -40.972  57.679 -53.620  1.00  0.00     0.010 A 
ENDBRANCH  14  16
ENDBRANCH   2  14
TORSDOF 5
ENDMDL
MODEL 2
REMARK VINA RESULT:      -6.9      2.086      2.431
REMARK  5 active torsions:
REMARK  status: ('A' for Active; 'I' for Inactive)
REMARK    1  A    between atoms: C_2  and  O_3 
REMARK    2  A    between atoms: O_3  and  C_4 
REMARK    3  A    between atoms: C_9  and  C_10 
REMARK       I    between atoms: C_10  and  N_11 
REMARK    4  A    between atoms: N_11  and  C_12 
REMARK    5  A    between atoms: C_12  and  C_13 
ROOT
HETATM    1  C   UNL     1     -40.590  53.410 -54.391  1.00  0.00     0.256 C 
HETATM    2  N   UNL     1     -41.827  53.967 -54.183  1.00  0.00    -0.348 N 
HETATM    3  O   UNL     1     -39.796  53.861 -55.212  1.00  0.00    -0.267 OA
HETATM    4  H   UNL     1     -42.440  53.554 -53.488  1.00  0.00     0.163 HD
ENDROOT
BRANCH   1   5
HETATM    5  C   UNL     1     -40.216  52.217 -53.576  1.00  0.00     0.084 A 
HETATM    6  C   UNL     1     -39.934  52.231 -52.208  1.00  0.00     0.180 A 
HETATM    7  N   UNL     1     -39.595  51.123 -51.500  1.00  0.00    -0.236 NA
HETATM    8  C   UNL     1     -39.525  49.955 -52.174  1.00  0.00     0.119 A 
HETATM    9  C   UNL     1     -39.780  49.834 -53.526  1.00  0.00     0.020 A 
HETATM   10  C   UNL     1     -40.130  50.981 -54.233  1.00  0.00     0.023 A 
BRANCH   6  11
HETATM   11  O   UNL     1     -40.016  53.429 -51.523  1.00  0.00    -0.334 OA
BRANCH  11  12
HETATM   12  C   UNL     1     -40.951  53.424 -50.442  1.00  0.00     0.173 C 
HETATM   13  C   UNL     1     -40.766  54.719 -49.671  1.00  0.00     0.034 C 
ENDBRANCH  11  12
ENDBRANCH   6  11
ENDBRANCH   1   5
BRANCH   2  14
HETATM   14  C   UNL     1     -42.303  55.137 -54.899  1.00  0.00     0.114 C 
HETATM   15  C   UNL     1     -43.142  54.744 -56.119  1.00  0.00     0.037 C 
BRANCH  14  16
HETATM   16  C   UNL     1     -43.054  56.038 -53.933  1.00  0.00    -0.036 A 
HETATM   17  C   UNL     1     -43.860  57.099 -54.381  1.00  0.00     0.010 A 
HETATM   18  C   UNL     1     -44.572  57.888 -53.475  1.00  0.00     0.019 A 
HETATM   19  C   UNL     1     -44.494  57.617 -52.112  1.00  0.00     0.011 A 
HETATM   20 BR   UNL     1     -45.464  58.680 -50.886  1.00  0.00    -0.051 Br
HETATM   21  C   UNL     1     -43.713  56.563 -51.647  1.00  0.00     0.019 A 
HETATM   22  C   UNL     1     -43.000  55.775 -52.554  1.00  0.00     0.010 A 
ENDBRANCH  14  16
ENDBRANCH   2  14
TORSDOF 5
ENDMDL
MODEL 3
REMARK VINA RESULT:      -6.9      3.432      6.864
REMARK  5 active torsions:
REMARK  status: ('A' for Active; 'I' for Inactive)
REMARK    1  A    between atoms: C_2  and  O_3 
REMARK    2  A    between atoms: O_3  and  C_4 
REMARK    3  A    between atoms: C_9  and  C_10 
REMARK       I    between atoms: C_10  and  N_11 
REMARK    4  A    between atoms: N_11  and  C_12 
REMARK    5  A    between atoms: C_12  and  C_13 
ROOT
HETATM    1  C   UNL     1     -41.757  57.014 -51.271  1.00  0.00     0.256 C 
HETATM    2  N   UNL     1     -41.795  55.648 -51.144  1.00  0.00    -0.348 N 
HETATM    3  O   UNL     1     -40.812  57.686 -50.865  1.00  0.00    -0.267 OA
HETATM    4  H   UNL     1     -42.600  55.145 -51.502  1.00  0.00     0.163 HD
ENDROOT
BRANCH   1   5
HETATM    5  C   UNL     1     -42.914  57.685 -51.932  1.00  0.00     0.084 A 
HETATM    6  C   UNL     1     -43.628  57.177 -53.020  1.00  0.00     0.180 A 
HETATM    7  N   UNL     1     -44.676  57.820 -53.596  1.00  0.00    -0.236 NA
HETATM    8  C   UNL     1     -45.028  59.017 -53.081  1.00  0.00     0.119 A 
HETATM    9  C   UNL     1     -44.385  59.610 -52.011  1.00  0.00     0.020 A 
HETATM   10  C   UNL     1     -43.316  58.933 -51.432  1.00  0.00     0.023 A 
BRANCH   6  11
HETATM   11  O   UNL     1     -43.267  55.947 -53.536  1.00  0.00    -0.334 OA
BRANCH  11  12
HETATM   12  C   UNL     1     -43.170  55.915 -54.962  1.00  0.00     0.173 C 
HETATM   13  C   UNL     1     -43.202  54.458 -55.391  1.00  0.00     0.034 C 
ENDBRANCH  11  12
ENDBRANCH   6  11
ENDBRANCH   1   5
BRANCH   2  14
HETATM   14  C   UNL     1     -40.726  54.876 -50.535  1.00  0.00     0.114 C 
HETATM   15  C   UNL     1     -41.084  54.456 -49.106  1.00  0.00     0.037 C 
BRANCH  14  16
HETATM   16  C   UNL     1     -40.396  53.694 -51.432  1.00  0.00    -0.036 A 
HETATM   17  C   UNL     1     -39.911  52.482 -50.913  1.00  0.00     0.010 A 
HETATM   18  C   UNL     1     -39.652  51.397 -51.753  1.00  0.00     0.019 A 
HETATM   19  C   UNL     1     -39.887  51.511 -53.121  1.00  0.00     0.011 A 
HETATM   20 BR   UNL     1     -39.544  50.040 -54.258  1.00  0.00    -0.051 Br
HETATM   21  C   UNL     1     -40.379  52.697 -53.655  1.00  0.00     0.019 A 
HETATM   22  C   UNL     1     -40.636  53.782 -52.813  1.00  0.00     0.010 A 
ENDBRANCH  14  16
ENDBRANCH   2  14
TORSDOF 5
ENDMDL
MODEL 4
REMARK VINA RESULT:      -6.4      3.831      7.024
REMARK  5 active torsions:
REMARK  status: ('A' for Active; 'I' for Inactive)
REMARK    1  A    between atoms: C_2  and  O_3 
REMARK    2  A    between atoms: O_3  and  C_4 
REMARK    3  A    between atoms: C_9  and  C_10 
REMARK       I    between atoms: C_10  and  N_11 
REMARK    4  A    between atoms: N_11  and  C_12 
REMARK    5  A    between atoms: C_12  and  C_13 
ROOT
HETATM    1  C   UNL     1     -41.173  57.530 -51.661  1.00  0.00     0.256 C 
HETATM    2  N   UNL     1     -41.437  56.196 -51.853  1.00  0.00    -0.348 N 
HETATM    3  O   UNL     1     -40.462  57.934 -50.745  1.00  0.00    -0.267 OA
HETATM    4  H   UNL     1     -42.029  55.922 -52.631  1.00  0.00     0.163 HD
ENDROOT
BRANCH   1   5
HETATM    5  C   UNL     1     -41.780  58.505 -52.614  1.00  0.00     0.084 A 
HETATM    6  C   UNL     1     -42.865  59.338 -52.333  1.00  0.00     0.180 A 
HETATM    7  N   UNL     1     -43.392  60.213 -53.229  1.00  0.00    -0.236 NA
HETATM    8  C   UNL     1     -42.827  60.260 -54.455  1.00  0.00     0.119 A 
HETATM    9  C   UNL     1     -41.754  59.477 -54.834  1.00  0.00     0.020 A 
HETATM   10  C   UNL     1     -41.226  58.589 -53.900  1.00  0.00     0.023 A 
BRANCH   6  11
HETATM   11  O   UNL     1     -43.433  59.290 -51.074  1.00  0.00    -0.334 OA
BRANCH  11  12
HETATM   12  C   UNL     1     -44.819  58.939 -51.069  1.00  0.00     0.173 C 
HETATM   13  C   UNL     1     -44.908  57.424 -51.081  1.00  0.00     0.034 C 
ENDBRANCH  11  12
ENDBRANCH   6  11
ENDBRANCH   1   5
BRANCH   2  14
HETATM   14  C   UNL     1     -40.894  55.149 -51.007  1.00  0.00     0.114 C 
HETATM   15  C   UNL     1     -41.805  54.872 -49.807  1.00  0.00     0.037 C 
BRANCH  14  16
HETATM   16  C   UNL     1     -40.640  53.911 -51.852  1.00  0.00    -0.036 A 
HETATM   17  C   UNL     1     -41.045  53.835 -53.196  1.00  0.00     0.010 A 
HETATM   18  C   UNL     1     -40.764  52.702 -53.963  1.00  0.00     0.019 A 
HETATM   19  C   UNL     1     -40.066  51.639 -53.397  1.00  0.00     0.011 A 
HETATM   20 BR   UNL     1     -39.680  50.109 -54.437  1.00  0.00    -0.051 Br
HETATM   21  C   UNL     1     -39.645  51.698 -52.072  1.00  0.00     0.019 A 
HETATM   22  C   UNL     1     -39.927  52.832 -51.305  1.00  0.00     0.010 A 
ENDBRANCH  14  16
ENDBRANCH   2  14
TORSDOF 5
ENDMDL
MODEL 5
REMARK VINA RESULT:      -6.3      4.948      7.778
REMARK  5 active torsions:
REMARK  status: ('A' for Active; 'I' for Inactive)
REMARK    1  A    between atoms: C_2  and  O_3 
REMARK    2  A    between atoms: O_3  and  C_4 
REMARK    3  A    between atoms: C_9  and  C_10 
REMARK       I    between atoms: C_10  and  N_11 
REMARK    4  A    between atoms: N_11  and  C_12 
REMARK    5  A    between atoms: C_12  and  C_13 
ROOT
HETATM    1  C   UNL     1     -43.266  56.739 -57.444  1.00  0.00     0.256 C 
HETATM    2  N   UNL     1     -43.643  56.190 -56.243  1.00  0.00    -0.348 N 
HETATM    3  O   UNL     1     -42.315  57.509 -57.545  1.00  0.00    -0.267 OA
HETATM    4  H   UNL     1     -44.435  55.556 -56.221  1.00  0.00     0.163 HD
ENDROOT
BRANCH   1   5
HETATM    5  C   UNL     1     -44.053  56.369 -58.657  1.00  0.00     0.084 A 
HETATM    6  C   UNL     1     -44.954  57.206 -59.319  1.00  0.00     0.180 A 
HETATM    7  N   UNL     1     -45.655  56.832 -60.421  1.00  0.00    -0.236 NA
HETATM    8  C   UNL     1     -45.463  55.578 -60.882  1.00  0.00     0.119 A 
HETATM    9  C   UNL     1     -44.599  54.671 -60.297  1.00  0.00     0.020 A 
HETATM   10  C   UNL     1     -43.887  55.075 -59.171  1.00  0.00     0.023 A 
BRANCH   6  11
HETATM   11  O   UNL     1     -45.139  58.492 -58.847  1.00  0.00    -0.334 OA
BRANCH  11  12
HETATM   12  C   UNL     1     -46.509  58.867 -58.689  1.00  0.00     0.173 C 
HETATM   13  C   UNL     1     -47.048  58.129 -57.476  1.00  0.00     0.034 C 
ENDBRANCH  11  12
ENDBRANCH   6  11
ENDBRANCH   1   5
BRANCH   2  14
HETATM   14  C   UNL     1     -42.950  56.457 -54.995  1.00  0.00     0.114 C 
HETATM   15  C   UNL     1     -43.924  56.900 -53.899  1.00  0.00     0.037 C 
BRANCH  14  16
HETATM   16  C   UNL     1     -42.142  55.230 -54.606  1.00  0.00    -0.036 A 
HETATM   17  C   UNL     1     -41.038  54.798 -55.361  1.00  0.00     0.010 A 
HETATM   18  C   UNL     1     -40.287  53.691 -54.960  1.00  0.00     0.019 A 
HETATM   19  C   UNL     1     -40.626  53.011 -53.794  1.00  0.00     0.011 A 
HETATM   20 BR   UNL     1     -39.605  51.517 -53.247  1.00  0.00    -0.051 Br
HETATM   21  C   UNL     1     -41.707  53.429 -53.023  1.00  0.00     0.019 A 
HETATM   22  C   UNL     1     -42.458  54.536 -53.425  1.00  0.00     0.010 A 
ENDBRANCH  14  16
ENDBRANCH   2  14
TORSDOF 5
ENDMDL
MODEL 6
REMARK VINA RESULT:      -6.3      3.366      5.067
REMARK  5 active torsions:
REMARK  status: ('A' for Active; 'I' for Inactive)
REMARK    1  A    between atoms: C_2  and  O_3 
REMARK    2  A    between atoms: O_3  and  C_4 
REMARK    3  A    between atoms: C_9  and  C_10 
REMARK       I    between atoms: C_10  and  N_11 
REMARK    4  A    between atoms: N_11  and  C_12 
REMARK    5  A    between atoms: C_12  and  C_13 
ROOT
HETATM    1  C   UNL     1     -42.137  56.324 -51.820  1.00  0.00     0.256 C 
HETATM    2  N   UNL     1     -41.631  56.664 -53.051  1.00  0.00    -0.348 N 
HETATM    3  O   UNL     1     -43.076  56.926 -51.307  1.00  0.00    -0.267 OA
HETATM    4  H   UNL     1     -40.855  56.127 -53.426  1.00  0.00     0.163 HD
ENDROOT
BRANCH   1   5
HETATM    5  C   UNL     1     -41.509  55.177 -51.101  1.00  0.00     0.084 A 
HETATM    6  C   UNL     1     -41.323  53.897 -51.629  1.00  0.00     0.180 A 
HETATM    7  N   UNL     1     -40.749  52.877 -50.941  1.00  0.00    -0.236 NA
HETATM    8  C   UNL     1     -40.348  53.131 -49.676  1.00  0.00     0.119 A 
HETATM    9  C   UNL     1     -40.490  54.359 -49.060  1.00  0.00     0.020 A 
HETATM   10  C   UNL     1     -41.078  55.393 -49.783  1.00  0.00     0.023 A 
BRANCH   6  11
HETATM   11  O   UNL     1     -41.728  53.648 -52.927  1.00  0.00    -0.334 OA
BRANCH  11  12
HETATM   12  C   UNL     1     -40.893  52.729 -53.635  1.00  0.00     0.173 C 
HETATM   13  C   UNL     1     -40.168  53.510 -54.717  1.00  0.00     0.034 C 
ENDBRANCH  11  12
ENDBRANCH   6  11
ENDBRANCH   1   5
BRANCH   2  14
HETATM   14  C   UNL     1     -42.163  57.747 -53.857  1.00  0.00     0.114 C 
HETATM   15  C   UNL     1     -41.245  58.973 -53.822  1.00  0.00     0.037 C 
BRANCH  14  16
HETATM   16  C   UNL     1     -42.414  57.238 -55.267  1.00  0.00    -0.036 A 
HETATM   17  C   UNL     1     -42.680  55.884 -55.530  1.00  0.00     0.010 A 
HETATM   18  C   UNL     1     -42.946  55.447 -56.830  1.00  0.00     0.019 A 
HETATM   19  C   UNL     1     -42.959  56.364 -57.878  1.00  0.00     0.011 A 
HETATM   20 BR   UNL     1     -43.328  55.775 -59.636  1.00  0.00    -0.051 Br
HETATM   21  C   UNL     1     -42.711  57.712 -57.638  1.00  0.00     0.019 A 
HETATM   22  C   UNL     1     -42.444  58.147 -56.338  1.00  0.00     0.010 A 
ENDBRANCH  14  16
ENDBRANCH   2  14
TORSDOF 5
ENDMDL
MODEL 7
REMARK VINA RESULT:      -6.2      3.779      6.757
REMARK  5 active torsions:
REMARK  status: ('A' for Active; 'I' for Inactive)
REMARK    1  A    between atoms: C_2  and  O_3 
REMARK    2  A    between atoms: O_3  and  C_4 
REMARK    3  A    between atoms: C_9  and  C_10 
REMARK       I    between atoms: C_10  and  N_11 
REMARK    4  A    between atoms: N_11  and  C_12 
REMARK    5  A    between atoms: C_12  and  C_13 
ROOT
HETATM    1  C   UNL     1     -42.025  56.987 -53.467  1.00  0.00     0.256 C 
HETATM    2  N   UNL     1     -42.258  55.817 -52.786  1.00  0.00    -0.348 N 
HETATM    3  O   UNL     1     -40.989  57.631 -53.330  1.00  0.00    -0.267 OA
HETATM    4  H   UNL     1     -43.132  55.326 -52.943  1.00  0.00     0.163 HD
ENDROOT
BRANCH   1   5
HETATM    5  C   UNL     1     -43.083  57.472 -54.402  1.00  0.00     0.084 A 
HETATM    6  C   UNL     1     -44.390  57.805 -54.039  1.00  0.00     0.180 A 
HETATM    7  N   UNL     1     -45.326  58.242 -54.921  1.00  0.00    -0.236 NA
HETATM    8  C   UNL     1     -44.957  58.345 -56.215  1.00  0.00     0.119 A 
HETATM    9  C   UNL     1     -43.692  58.036 -56.679  1.00  0.00     0.020 A 
HETATM   10  C   UNL     1     -42.746  57.594 -55.758  1.00  0.00     0.023 A 
BRANCH   6  11
HETATM   11  O   UNL     1     -44.758  57.705 -52.710  1.00  0.00    -0.334 OA
BRANCH  11  12
HETATM   12  C   UNL     1     -45.067  58.956 -52.091  1.00  0.00     0.173 C 
HETATM   13  C   UNL     1     -43.874  59.352 -51.239  1.00  0.00     0.034 C 
ENDBRANCH  11  12
ENDBRANCH   6  11
ENDBRANCH   1   5
BRANCH   2  14
HETATM   14  C   UNL     1     -41.304  55.233 -51.862  1.00  0.00     0.114 C 
HETATM   15  C   UNL     1     -41.903  55.083 -50.460  1.00  0.00     0.037 C 
BRANCH  14  16
HETATM   16  C   UNL     1     -40.804  53.915 -52.433  1.00  0.00    -0.036 A 
HETATM   17  C   UNL     1     -40.073  53.000 -51.656  1.00  0.00     0.010 A 
HETATM   18  C   UNL     1     -39.659  51.779 -52.192  1.00  0.00     0.019 A 
HETATM   19  C   UNL     1     -39.982  51.456 -53.507  1.00  0.00     0.011 A 
HETATM   20 BR   UNL     1     -39.429  49.799 -54.230  1.00  0.00    -0.051 Br
HETATM   21  C   UNL     1     -40.717  52.341 -54.290  1.00  0.00     0.019 A 
HETATM   22  C   UNL     1     -41.130  53.563 -53.753  1.00  0.00     0.010 A 
ENDBRANCH  14  16
ENDBRANCH   2  14
TORSDOF 5
ENDMDL
MODEL 8
REMARK VINA RESULT:      -6.2      3.402      4.215
REMARK  5 active torsions:
REMARK  status: ('A' for Active; 'I' for Inactive)
REMARK    1  A    between atoms: C_2  and  O_3 
REMARK    2  A    between atoms: O_3  and  C_4 
REMARK    3  A    between atoms: C_9  and  C_10 
REMARK       I    between atoms: C_10  and  N_11 
REMARK    4  A    between atoms: N_11  and  C_12 
REMARK    5  A    between atoms: C_12  and  C_13 
ROOT
HETATM    1  C   UNL     1     -42.522  54.720 -53.659  1.00  0.00     0.256 C 
HETATM    2  N   UNL     1     -42.103  56.010 -53.870  1.00  0.00    -0.348 N 
HETATM    3  O   UNL     1     -43.697  54.383 -53.775  1.00  0.00    -0.267 OA
HETATM    4  H   UNL     1     -41.118  56.228 -53.763  1.00  0.00     0.163 HD
ENDROOT
BRANCH   1   5
HETATM    5  C   UNL     1     -41.494  53.707 -53.278  1.00  0.00     0.084 A 
HETATM    6  C   UNL     1     -40.756  53.713 -52.092  1.00  0.00     0.180 A 
HETATM    7  N   UNL     1     -39.827  52.773 -51.781  1.00  0.00    -0.236 NA
HETATM    8  C   UNL     1     -39.613  51.791 -52.683  1.00  0.00     0.119 A 
HETATM    9  C   UNL     1     -40.285  51.696 -53.886  1.00  0.00     0.020 A 
HETATM   10  C   UNL     1     -41.237  52.668 -54.184  1.00  0.00     0.023 A 
BRANCH   6  11
HETATM   11  O   UNL     1     -40.987  54.717 -51.169  1.00  0.00    -0.334 OA
BRANCH  11  12
HETATM   12  C   UNL     1     -41.751  54.305 -50.034  1.00  0.00     0.173 C 
HETATM   13  C   UNL     1     -40.979  54.711 -48.791  1.00  0.00     0.034 C 
ENDBRANCH  11  12
ENDBRANCH   6  11
ENDBRANCH   1   5
BRANCH   2  14
HETATM   14  C   UNL     1     -43.000  57.083 -54.260  1.00  0.00     0.114 C 
HETATM   15  C   UNL     1     -42.809  58.320 -53.378  1.00  0.00     0.037 C 
BRANCH  14  16
HETATM   16  C   UNL     1     -42.807  57.377 -55.739  1.00  0.00    -0.036 A 
HETATM   17  C   UNL     1     -42.352  58.627 -56.193  1.00  0.00     0.010 A 
HETATM   18  C   UNL     1     -42.145  58.860 -57.554  1.00  0.00     0.019 A 
HETATM   19  C   UNL     1     -42.381  57.841 -58.474  1.00  0.00     0.011 A 
HETATM   20 BR   UNL     1     -42.092  58.154 -60.316  1.00  0.00    -0.051 Br
HETATM   21  C   UNL     1     -42.819  56.592 -58.045  1.00  0.00     0.019 A 
HETATM   22  C   UNL     1     -43.026  56.360 -56.683  1.00  0.00     0.010 A 
ENDBRANCH  14  16
ENDBRANCH   2  14
TORSDOF 5
ENDMDL
MODEL 9
REMARK VINA RESULT:      -6.1      2.554      4.044
REMARK  5 active torsions:
REMARK  status: ('A' for Active; 'I' for Inactive)
REMARK    1  A    between atoms: C_2  and  O_3 
REMARK    2  A    between atoms: O_3  and  C_4 
REMARK    3  A    between atoms: C_9  and  C_10 
REMARK       I    between atoms: C_10  and  N_11 
REMARK    4  A    between atoms: N_11  and  C_12 
REMARK    5  A    between atoms: C_12  and  C_13 
ROOT
HETATM    1  C   UNL     1     -41.700  54.258 -51.701  1.00  0.00     0.256 C 
HETATM    2  N   UNL     1     -41.309  55.554 -51.928  1.00  0.00    -0.348 N 
HETATM    3  O   UNL     1     -42.641  53.975 -50.965  1.00  0.00    -0.267 OA
HETATM    4  H   UNL     1     -40.526  55.727 -52.549  1.00  0.00     0.163 HD
ENDROOT
BRANCH   1   5
HETATM    5  C   UNL     1     -40.941  53.170 -52.385  1.00  0.00     0.084 A 
HETATM    6  C   UNL     1     -41.040  52.847 -53.741  1.00  0.00     0.180 A 
HETATM    7  N   UNL     1     -40.333  51.847 -54.328  1.00  0.00    -0.236 NA
HETATM    8  C   UNL     1     -39.500  51.133 -53.541  1.00  0.00     0.119 A 
HETATM    9  C   UNL     1     -39.333  51.368 -52.190  1.00  0.00     0.020 A 
HETATM   10  C   UNL     1     -40.064  52.400 -51.608  1.00  0.00     0.023 A 
BRANCH   6  11
HETATM   11  O   UNL     1     -41.888  53.589 -54.542  1.00  0.00    -0.334 OA
BRANCH  11  12
HETATM   12  C   UNL     1     -41.225  54.547 -55.369  1.00  0.00     0.173 C 
HETATM   13  C   UNL     1     -42.257  55.575 -55.798  1.00  0.00     0.034 C 
ENDBRANCH  11  12
ENDBRANCH   6  11
ENDBRANCH   1   5
BRANCH   2  14
HETATM   14  C   UNL     1     -41.975  56.700 -51.335  1.00  0.00     0.114 C 
HETATM   15  C   UNL     1     -40.984  57.596 -50.586  1.00  0.00     0.037 C 
BRANCH  14  16
HETATM   16  C   UNL     1     -42.740  57.443 -52.419  1.00  0.00    -0.036 A 
HETATM   17  C   UNL     1     -42.176  58.528 -53.113  1.00  0.00     0.010 A 
HETATM   18  C   UNL     1     -42.884  59.169 -54.132  1.00  0.00     0.019 A 
HETATM   19  C   UNL     1     -44.159  58.725 -54.473  1.00  0.00     0.011 A 
HETATM   20 BR   UNL     1     -45.115  59.589 -55.857  1.00  0.00    -0.051 Br
HETATM   21  C   UNL     1     -44.731  57.645 -53.808  1.00  0.00     0.019 A 
HETATM   22  C   UNL     1     -44.022  57.005 -52.788  1.00  0.00     0.010 A 
ENDBRANCH  14  16
ENDBRANCH   2  14
TORSDOF 5
ENDMDL
MODEL 10
REMARK VINA RESULT:      -6.1     13.814     15.157
REMARK  5 active torsions:
REMARK  status: ('A' for Active; 'I' for Inactive)
REMARK    1  A    between atoms: C_2  and  O_3 
REMARK    2  A    between atoms: O_3  and  C_4 
REMARK    3  A    between atoms: C_9  and  C_10 
REMARK       I    between atoms: C_10  and  N_11 
REMARK    4  A    between atoms: N_11  and  C_12 
REMARK    5  A    between atoms: C_12  and  C_13 
ROOT
HETATM    1  C   UNL     1     -36.295  41.831 -53.377  1.00  0.00     0.256 C 
HETATM    2  N   UNL     1     -36.630  41.354 -54.620  1.00  0.00    -0.348 N 
HETATM    3  O   UNL     1     -35.817  42.950 -53.210  1.00  0.00    -0.267 OA
HETATM    4  H   UNL     1     -37.025  40.421 -54.696  1.00  0.00     0.163 HD
ENDROOT
BRANCH   1   5
HETATM    5  C   UNL     1     -36.529  40.942 -52.202  1.00  0.00     0.084 A 
HETATM    6  C   UNL     1     -37.689  40.198 -51.972  1.00  0.00     0.180 A 
HETATM    7  N   UNL     1     -37.867  39.401 -50.887  1.00  0.00    -0.236 NA
HETATM    8  C   UNL     1     -36.860  39.342 -49.989  1.00  0.00     0.119 A 
HETATM    9  C   UNL     1     -35.675  40.041 -50.121  1.00  0.00     0.020 A 
HETATM   10  C   UNL     1     -35.511  40.850 -51.242  1.00  0.00     0.023 A 
BRANCH   6  11
HETATM   11  O   UNL     1     -38.713  40.257 -52.899  1.00  0.00    -0.334 OA
BRANCH  11  12
HETATM   12  C   UNL     1     -39.738  41.200 -52.582  1.00  0.00     0.173 C 
HETATM   13  C   UNL     1     -40.539  41.450 -53.847  1.00  0.00     0.034 C 
ENDBRANCH  11  12
ENDBRANCH   6  11
ENDBRANCH   1   5
BRANCH   2  14
HETATM   14  C   UNL     1     -36.466  42.125 -55.839  1.00  0.00     0.114 C 
HETATM   15  C   UNL     1     -35.004  42.528 -56.053  1.00  0.00     0.037 C 
BRANCH  14  16
HETATM   16  C   UNL     1     -37.037  41.335 -57.005  1.00  0.00    -0.036 A 
HETATM   17  C   UNL     1     -36.966  41.808 -58.327  1.00  0.00     0.010 A 
HETATM   18  C   UNL     1     -37.462  41.045 -59.387  1.00  0.00     0.019 A 
HETATM   19  C   UNL     1     -38.025  39.797 -59.136  1.00  0.00     0.011 A 
HETATM   20 BR   UNL     1     -38.689  38.761 -60.571  1.00  0.00    -0.051 Br
HETATM   21  C   UNL     1     -38.094  39.303 -57.837  1.00  0.00     0.019 A 
HETATM   22  C   UNL     1     -37.598  40.067 -56.777  1.00  0.00     0.010 A 
ENDBRANCH  14  16
ENDBRANCH   2  14
TORSDOF 5
ENDMDL
