MODEL 1
REMARK VINA RESULT:      -8.5      0.000      0.000
REMARK  7 active torsions:
REMARK  status: ('A' for Active; 'I' for Inactive)
REMARK    1  A    between atoms: C_2  and  C_3 
REMARK    2  A    between atoms: C_2  and  C_9 
REMARK    3  A    between atoms: C_9  and  C_10 
REMARK       I    between atoms: C_10  and  N_11 
REMARK    4  A    between atoms: N_11  and  N_12 
REMARK       I    between atoms: N_12  and  C_13 
REMARK    5  A    between atoms: C_13  and  C_14 
REMARK    6  A    between atoms: C_18  and  C_19 
REMARK    7  A    between atoms: C_22  and  O_23 
ROOT
HETATM    1  N   UNL     1     -42.027  57.294 -57.702  1.00  0.00    -0.262 N 
HETATM    2  C   UNL     1     -43.080  57.029 -56.855  1.00  0.00     0.288 C 
HETATM    3  O   UNL     1     -44.152  57.626 -56.940  1.00  0.00    -0.264 OA
HETATM    4  H   UNL     1     -41.115  56.848 -57.632  1.00  0.00     0.190 HD
ENDROOT
BRANCH   2   5
HETATM    5  C   UNL     1     -42.832  56.003 -55.880  1.00  0.00     0.121 A 
HETATM    6  N   UNL     1     -43.832  55.445 -55.136  1.00  0.00    -0.272 N 
HETATM    7  H   UNL     1     -44.820  55.679 -55.168  1.00  0.00     0.189 HD
HETATM    8  N   UNL     1     -43.424  54.472 -54.306  1.00  0.00    -0.174 NA
HETATM    9  C   UNL     1     -42.095  54.408 -54.486  1.00  0.00     0.089 A 
HETATM   10  C   UNL     1     -41.686  55.354 -55.466  1.00  0.00     0.071 A 
BRANCH   9  11
HETATM   11  C   UNL     1     -41.254  53.453 -53.761  1.00  0.00    -0.005 A 
HETATM   12  C   UNL     1     -41.112  53.539 -52.370  1.00  0.00     0.016 A 
HETATM   13  C   UNL     1     -40.341  52.600 -51.675  1.00  0.00     0.037 A 
HETATM   14  C   UNL     1     -39.696  51.564 -52.353  1.00  0.00     0.068 A 
HETATM   15  C   UNL     1     -39.814  51.484 -53.739  1.00  0.00     0.037 A 
HETATM   16  C   UNL     1     -40.587  52.422 -54.438  1.00  0.00     0.016 A 
BRANCH  14  17
HETATM   17  O   UNL     1     -38.987  50.709 -51.556  1.00  0.00    -0.356 OA
HETATM   18  C   UNL     1     -39.738  49.877 -50.680  1.00  0.00     0.210 C 
ENDBRANCH  14  17
ENDBRANCH   9  11
ENDBRANCH   2   5
BRANCH   1  19
HETATM   19  N   UNL     1     -42.154  58.278 -58.687  1.00  0.00    -0.267 N 
HETATM   20  C   UNL     1     -41.966  57.884 -59.993  1.00  0.00     0.236 C 
HETATM   21  O   UNL     1     -41.839  56.698 -60.305  1.00  0.00    -0.272 OA
HETATM   22  H   UNL     1     -42.105  59.242 -58.370  1.00  0.00     0.190 HD
BRANCH  20  23
HETATM   23  C   UNL     1     -42.039  58.984 -61.033  1.00  0.00     0.113 C 
BRANCH  23  24
HETATM   24  C   UNL     1     -42.548  60.339 -60.517  1.00  0.00     0.023 C 
HETATM   25  C   UNL     1     -43.677  60.853 -61.418  1.00  0.00     0.015 C 
BRANCH  24  26
HETATM   26  C   UNL     1     -41.458  61.389 -60.390  1.00  0.00    -0.054 A 
HETATM   27  C   UNL     1     -40.930  62.046 -61.512  1.00  0.00     0.007 A 
HETATM   28  C   UNL     1     -39.924  63.004 -61.368  1.00  0.00     0.001 A 
HETATM   29  C   UNL     1     -39.438  63.322 -60.102  1.00  0.00     0.000 A 
HETATM   30  C   UNL     1     -39.956  62.683 -58.979  1.00  0.00     0.001 A 
HETATM   31  C   UNL     1     -40.960  61.723 -59.121  1.00  0.00     0.007 A 
ENDBRANCH  24  26
ENDBRANCH  23  24
ENDBRANCH  20  23
ENDBRANCH   1  19
TORSDOF 7
ENDMDL
MODEL 2
REMARK VINA RESULT:      -8.4      6.755     10.835
REMARK  7 active torsions:
REMARK  status: ('A' for Active; 'I' for Inactive)
REMARK    1  A    between atoms: C_2  and  C_3 
REMARK    2  A    between atoms: C_2  and  C_9 
REMARK    3  A    between atoms: C_9  and  C_10 
REMARK       I    between atoms: C_10  and  N_11 
REMARK    4  A    between atoms: N_11  and  N_12 
REMARK       I    between atoms: N_12  and  C_13 
REMARK    5  A    between atoms: C_13  and  C_14 
REMARK    6  A    between atoms: C_18  and  C_19 
REMARK    7  A    between atoms: C_22  and  O_23 
ROOT
HETATM    1  N   UNL     1     -44.356  56.596 -52.661  1.00  0.00    -0.262 N 
HETATM    2  C   UNL     1     -43.812  57.847 -52.471  1.00  0.00     0.288 C 
HETATM    3  O   UNL     1     -42.817  58.226 -53.086  1.00  0.00    -0.264 OA
HETATM    4  H   UNL     1     -45.153  56.238 -52.140  1.00  0.00     0.190 HD
ENDROOT
BRANCH   2   5
HETATM    5  C   UNL     1     -44.500  58.669 -51.514  1.00  0.00     0.121 A 
HETATM    6  N   UNL     1     -45.688  58.299 -50.953  1.00  0.00    -0.272 N 
HETATM    7  H   UNL     1     -46.214  57.450 -51.140  1.00  0.00     0.189 HD
HETATM    8  N   UNL     1     -46.165  59.169 -50.049  1.00  0.00    -0.174 NA
HETATM    9  C   UNL     1     -45.270  60.169 -50.035  1.00  0.00     0.089 A 
HETATM   10  C   UNL     1     -44.210  59.892 -50.942  1.00  0.00     0.071 A 
BRANCH   9  11
HETATM   11  C   UNL     1     -45.416  61.336 -49.162  1.00  0.00    -0.005 A 
HETATM   12  C   UNL     1     -44.881  61.332 -47.868  1.00  0.00     0.016 A 
HETATM   13  C   UNL     1     -44.985  62.463 -47.051  1.00  0.00     0.037 A 
HETATM   14  C   UNL     1     -45.626  63.616 -47.509  1.00  0.00     0.068 A 
HETATM   15  C   UNL     1     -46.181  63.622 -48.787  1.00  0.00     0.037 A 
HETATM   16  C   UNL     1     -46.076  62.490 -49.608  1.00  0.00     0.016 A 
BRANCH  14  17
HETATM   17  O   UNL     1     -45.648  64.654 -46.619  1.00  0.00    -0.356 OA
HETATM   18  C   UNL     1     -45.250  64.363 -45.285  1.00  0.00     0.210 C 
ENDBRANCH  14  17
ENDBRANCH   9  11
ENDBRANCH   2   5
BRANCH   1  19
HETATM   19  N   UNL     1     -43.766  55.708 -53.565  1.00  0.00    -0.267 N 
HETATM   20  C   UNL     1     -42.931  54.746 -53.042  1.00  0.00     0.236 C 
HETATM   21  O   UNL     1     -42.818  54.571 -51.827  1.00  0.00    -0.272 OA
HETATM   22  H   UNL     1     -43.770  55.990 -54.542  1.00  0.00     0.190 HD
BRANCH  20  23
HETATM   23  C   UNL     1     -42.250  53.842 -54.050  1.00  0.00     0.113 C 
BRANCH  23  24
HETATM   24  C   UNL     1     -40.731  53.689 -53.868  1.00  0.00     0.023 C 
HETATM   25  C   UNL     1     -40.006  54.089 -55.159  1.00  0.00     0.015 C 
BRANCH  24  26
HETATM   26  C   UNL     1     -40.309  52.295 -53.438  1.00  0.00    -0.054 A 
HETATM   27  C   UNL     1     -39.892  52.020 -52.126  1.00  0.00     0.007 A 
HETATM   28  C   UNL     1     -39.505  50.730 -51.758  1.00  0.00     0.001 A 
HETATM   29  C   UNL     1     -39.533  49.698 -52.693  1.00  0.00     0.000 A 
HETATM   30  C   UNL     1     -39.950  49.954 -53.996  1.00  0.00     0.001 A 
HETATM   31  C   UNL     1     -40.336  51.243 -54.367  1.00  0.00     0.007 A 
ENDBRANCH  24  26
ENDBRANCH  23  24
ENDBRANCH  20  23
ENDBRANCH   1  19
TORSDOF 7
ENDMDL
MODEL 3
REMARK VINA RESULT:      -8.3      7.518      9.769
REMARK  7 active torsions:
REMARK  status: ('A' for Active; 'I' for Inactive)
REMARK    1  A    between atoms: C_2  and  C_3 
REMARK    2  A    between atoms: C_2  and  C_9 
REMARK    3  A    between atoms: C_9  and  C_10 
REMARK       I    between atoms: C_10  and  N_11 
REMARK    4  A    between atoms: N_11  and  N_12 
REMARK       I    between atoms: N_12  and  C_13 
REMARK    5  A    between atoms: C_13  and  C_14 
REMARK    6  A    between atoms: C_18  and  C_19 
REMARK    7  A    between atoms: C_22  and  O_23 
ROOT
HETATM    1  N   UNL     1     -43.505  59.334 -50.599  1.00  0.00    -0.262 N 
HETATM    2  C   UNL     1     -42.228  59.018 -51.008  1.00  0.00     0.288 C 
HETATM    3  O   UNL     1     -41.271  59.760 -50.791  1.00  0.00    -0.264 OA
HETATM    4  H   UNL     1     -44.323  58.763 -50.797  1.00  0.00     0.190 HD
ENDROOT
BRANCH   2   5
HETATM    5  C   UNL     1     -42.104  57.760 -51.691  1.00  0.00     0.121 A 
HETATM    6  N   UNL     1     -42.840  57.456 -52.800  1.00  0.00    -0.272 N 
HETATM    7  H   UNL     1     -43.538  58.041 -53.250  1.00  0.00     0.189 HD
HETATM    8  N   UNL     1     -42.563  56.255 -53.333  1.00  0.00    -0.174 NA
HETATM    9  C   UNL     1     -41.628  55.732 -52.523  1.00  0.00     0.089 A 
HETATM   10  C   UNL     1     -41.314  56.647 -51.481  1.00  0.00     0.071 A 
BRANCH   9  11
HETATM   11  C   UNL     1     -41.040  54.412 -52.759  1.00  0.00    -0.005 A 
HETATM   12  C   UNL     1     -40.459  53.690 -51.709  1.00  0.00     0.016 A 
HETATM   13  C   UNL     1     -39.936  52.411 -51.929  1.00  0.00     0.037 A 
HETATM   14  C   UNL     1     -39.979  51.832 -53.198  1.00  0.00     0.068 A 
HETATM   15  C   UNL     1     -40.534  52.551 -54.254  1.00  0.00     0.037 A 
HETATM   16  C   UNL     1     -41.062  53.832 -54.036  1.00  0.00     0.016 A 
BRANCH  14  17
HETATM   17  O   UNL     1     -39.446  50.575 -53.275  1.00  0.00    -0.356 OA
HETATM   18  C   UNL     1     -39.652  49.865 -54.490  1.00  0.00     0.210 C 
ENDBRANCH  14  17
ENDBRANCH   9  11
ENDBRANCH   2   5
BRANCH   1  19
HETATM   19  N   UNL     1     -43.745  60.537 -49.929  1.00  0.00    -0.267 N 
HETATM   20  C   UNL     1     -45.022  60.748 -49.458  1.00  0.00     0.236 C 
HETATM   21  O   UNL     1     -45.881  59.864 -49.486  1.00  0.00    -0.272 OA
HETATM   22  H   UNL     1     -43.061  61.276 -50.069  1.00  0.00     0.190 HD
BRANCH  20  23
HETATM   23  C   UNL     1     -45.273  62.089 -48.799  1.00  0.00     0.113 C 
BRANCH  23  24
HETATM   24  C   UNL     1     -46.215  62.055 -47.585  1.00  0.00     0.023 C 
HETATM   25  C   UNL     1     -47.264  63.168 -47.705  1.00  0.00     0.015 C 
BRANCH  24  26
HETATM   26  C   UNL     1     -45.493  62.154 -46.253  1.00  0.00    -0.054 A 
HETATM   27  C   UNL     1     -45.453  63.350 -45.520  1.00  0.00     0.007 A 
HETATM   28  C   UNL     1     -44.778  63.415 -44.299  1.00  0.00     0.001 A 
HETATM   29  C   UNL     1     -44.139  62.286 -43.793  1.00  0.00     0.000 A 
HETATM   30  C   UNL     1     -44.175  61.091 -44.505  1.00  0.00     0.001 A 
HETATM   31  C   UNL     1     -44.848  61.024 -45.727  1.00  0.00     0.007 A 
ENDBRANCH  24  26
ENDBRANCH  23  24
ENDBRANCH  20  23
ENDBRANCH   1  19
TORSDOF 7
ENDMDL
MODEL 4
REMARK VINA RESULT:      -8.2      7.057      9.119
REMARK  7 active torsions:
REMARK  status: ('A' for Active; 'I' for Inactive)
REMARK    1  A    between atoms: C_2  and  C_3 
REMARK    2  A    between atoms: C_2  and  C_9 
REMARK    3  A    between atoms: C_9  and  C_10 
REMARK       I    between atoms: C_10  and  N_11 
REMARK    4  A    between atoms: N_11  and  N_12 
REMARK       I    between atoms: N_12  and  C_13 
REMARK    5  A    between atoms: C_13  and  C_14 
REMARK    6  A    between atoms: C_18  and  C_19 
REMARK    7  A    between atoms: C_22  and  O_23 
ROOT
HETATM    1  N   UNL     1     -43.587  58.959 -50.831  1.00  0.00    -0.262 N 
HETATM    2  C   UNL     1     -44.436  57.903 -51.074  1.00  0.00     0.288 C 
HETATM    3  O   UNL     1     -45.601  57.897 -50.679  1.00  0.00    -0.264 OA
HETATM    4  H   UNL     1     -42.608  58.977 -51.108  1.00  0.00     0.190 HD
ENDROOT
BRANCH   2   5
HETATM    5  C   UNL     1     -43.862  56.823 -51.829  1.00  0.00     0.121 A 
HETATM    6  N   UNL     1     -44.222  56.562 -53.120  1.00  0.00    -0.272 N 
HETATM    7  H   UNL     1     -44.911  57.062 -53.675  1.00  0.00     0.189 HD
HETATM    8  N   UNL     1     -43.553  55.544 -53.683  1.00  0.00    -0.174 NA
HETATM    9  C   UNL     1     -42.741  55.094 -52.714  1.00  0.00     0.089 A 
HETATM   10  C   UNL     1     -42.906  55.871 -51.535  1.00  0.00     0.071 A 
BRANCH   9  11
HETATM   11  C   UNL     1     -41.821  53.974 -52.923  1.00  0.00    -0.005 A 
HETATM   12  C   UNL     1     -41.773  53.309 -54.155  1.00  0.00     0.016 A 
HETATM   13  C   UNL     1     -40.864  52.266 -54.365  1.00  0.00     0.037 A 
HETATM   14  C   UNL     1     -39.990  51.867 -53.352  1.00  0.00     0.068 A 
HETATM   15  C   UNL     1     -40.046  52.508 -52.116  1.00  0.00     0.037 A 
HETATM   16  C   UNL     1     -40.954  53.554 -51.904  1.00  0.00     0.016 A 
BRANCH  14  17
HETATM   17  O   UNL     1     -39.145  50.847 -53.691  1.00  0.00    -0.356 OA
HETATM   18  C   UNL     1     -39.641  49.880 -54.609  1.00  0.00     0.210 C 
ENDBRANCH  14  17
ENDBRANCH   9  11
ENDBRANCH   2   5
BRANCH   1  19
HETATM   19  N   UNL     1     -44.037  60.062 -50.100  1.00  0.00    -0.267 N 
HETATM   20  C   UNL     1     -43.618  61.305 -50.520  1.00  0.00     0.236 C 
HETATM   21  O   UNL     1     -42.999  61.462 -51.576  1.00  0.00    -0.272 OA
HETATM   22  H   UNL     1     -44.405  59.869 -49.172  1.00  0.00     0.190 HD
BRANCH  20  23
HETATM   23  C   UNL     1     -44.062  62.477 -49.669  1.00  0.00     0.113 C 
BRANCH  23  24
HETATM   24  C   UNL     1     -45.359  62.254 -48.876  1.00  0.00     0.023 C 
HETATM   25  C   UNL     1     -46.421  63.272 -49.310  1.00  0.00     0.015 C 
BRANCH  24  26
HETATM   26  C   UNL     1     -45.167  62.305 -47.370  1.00  0.00    -0.054 A 
HETATM   27  C   UNL     1     -44.865  61.155 -46.624  1.00  0.00     0.007 A 
HETATM   28  C   UNL     1     -44.697  61.230 -45.239  1.00  0.00     0.001 A 
HETATM   29  C   UNL     1     -44.823  62.452 -44.584  1.00  0.00     0.000 A 
HETATM   30  C   UNL     1     -45.117  63.602 -45.312  1.00  0.00     0.001 A 
HETATM   31  C   UNL     1     -45.287  63.530 -46.696  1.00  0.00     0.007 A 
ENDBRANCH  24  26
ENDBRANCH  23  24
ENDBRANCH  20  23
ENDBRANCH   1  19
TORSDOF 7
ENDMDL
MODEL 5
REMARK VINA RESULT:      -8.0      4.048     10.853
REMARK  7 active torsions:
REMARK  status: ('A' for Active; 'I' for Inactive)
REMARK    1  A    between atoms: C_2  and  C_3 
REMARK    2  A    between atoms: C_2  and  C_9 
REMARK    3  A    between atoms: C_9  and  C_10 
REMARK       I    between atoms: C_10  and  N_11 
REMARK    4  A    between atoms: N_11  and  N_12 
REMARK       I    between atoms: N_12  and  C_13 
REMARK    5  A    between atoms: C_13  and  C_14 
REMARK    6  A    between atoms: C_18  and  C_19 
REMARK    7  A    between atoms: C_22  and  O_23 
ROOT
HETATM    1  N   UNL     1     -43.737  55.746 -56.275  1.00  0.00    -0.262 N 
HETATM    2  C   UNL     1     -43.387  56.476 -57.389  1.00  0.00     0.288 C 
HETATM    3  O   UNL     1     -42.313  57.070 -57.469  1.00  0.00    -0.264 OA
HETATM    4  H   UNL     1     -44.633  55.277 -56.161  1.00  0.00     0.190 HD
ENDROOT
BRANCH   2   5
HETATM    5  C   UNL     1     -44.363  56.480 -58.444  1.00  0.00     0.121 A 
HETATM    6  N   UNL     1     -44.562  55.402 -59.258  1.00  0.00    -0.272 N 
HETATM    7  H   UNL     1     -44.066  54.515 -59.231  1.00  0.00     0.189 HD
HETATM    8  N   UNL     1     -45.543  55.567 -60.160  1.00  0.00    -0.174 NA
HETATM    9  C   UNL     1     -45.988  56.816 -59.954  1.00  0.00     0.089 A 
HETATM   10  C   UNL     1     -45.271  57.422 -58.885  1.00  0.00     0.071 A 
BRANCH   9  11
HETATM   11  C   UNL     1     -47.079  57.397 -60.739  1.00  0.00    -0.005 A 
HETATM   12  C   UNL     1     -47.399  58.755 -60.622  1.00  0.00     0.016 A 
HETATM   13  C   UNL     1     -48.414  59.317 -61.404  1.00  0.00     0.037 A 
HETATM   14  C   UNL     1     -49.130  58.534 -62.312  1.00  0.00     0.068 A 
HETATM   15  C   UNL     1     -48.834  57.176 -62.419  1.00  0.00     0.037 A 
HETATM   16  C   UNL     1     -47.815  56.612 -61.638  1.00  0.00     0.016 A 
BRANCH  14  17
HETATM   17  O   UNL     1     -50.085  59.206 -63.023  1.00  0.00    -0.356 OA
HETATM   18  C   UNL     1     -50.760  60.263 -62.351  1.00  0.00     0.210 C 
ENDBRANCH  14  17
ENDBRANCH   9  11
ENDBRANCH   2   5
BRANCH   1  19
HETATM   19  N   UNL     1     -42.866  55.677 -55.184  1.00  0.00    -0.267 N 
HETATM   20  C   UNL     1     -42.659  54.435 -54.626  1.00  0.00     0.236 C 
HETATM   21  O   UNL     1     -43.096  53.405 -55.145  1.00  0.00    -0.272 OA
HETATM   22  H   UNL     1     -42.663  56.554 -54.713  1.00  0.00     0.190 HD
BRANCH  20  23
HETATM   23  C   UNL     1     -41.767  54.400 -53.401  1.00  0.00     0.113 C 
BRANCH  23  24
HETATM   24  C   UNL     1     -40.327  53.927 -53.655  1.00  0.00     0.023 C 
HETATM   25  C   UNL     1     -39.913  54.258 -55.094  1.00  0.00     0.015 C 
BRANCH  24  26
HETATM   26  C   UNL     1     -40.115  52.450 -53.374  1.00  0.00    -0.054 A 
HETATM   27  C   UNL     1     -40.264  51.477 -54.374  1.00  0.00     0.007 A 
HETATM   28  C   UNL     1     -40.067  50.125 -54.087  1.00  0.00     0.001 A 
HETATM   29  C   UNL     1     -39.713  49.727 -52.800  1.00  0.00     0.000 A 
HETATM   30  C   UNL     1     -39.556  50.681 -51.798  1.00  0.00     0.001 A 
HETATM   31  C   UNL     1     -39.754  52.034 -52.082  1.00  0.00     0.007 A 
ENDBRANCH  24  26
ENDBRANCH  23  24
ENDBRANCH  20  23
ENDBRANCH   1  19
TORSDOF 7
ENDMDL
MODEL 6
REMARK VINA RESULT:      -7.9      6.661     10.467
REMARK  7 active torsions:
REMARK  status: ('A' for Active; 'I' for Inactive)
REMARK    1  A    between atoms: C_2  and  C_3 
REMARK    2  A    between atoms: C_2  and  C_9 
REMARK    3  A    between atoms: C_9  and  C_10 
REMARK       I    between atoms: C_10  and  N_11 
REMARK    4  A    between atoms: N_11  and  N_12 
REMARK       I    between atoms: N_12  and  C_13 
REMARK    5  A    between atoms: C_13  and  C_14 
REMARK    6  A    between atoms: C_18  and  C_19 
REMARK    7  A    between atoms: C_22  and  O_23 
ROOT
HETATM    1  N   UNL     1     -41.520  57.622 -52.708  1.00  0.00    -0.262 N 
HETATM    2  C   UNL     1     -40.919  58.861 -52.679  1.00  0.00     0.288 C 
HETATM    3  O   UNL     1     -39.771  59.039 -53.084  1.00  0.00    -0.264 OA
HETATM    4  H   UNL     1     -42.451  57.434 -52.343  1.00  0.00     0.190 HD
ENDROOT
BRANCH   2   5
HETATM    5  C   UNL     1     -41.735  59.921 -52.154  1.00  0.00     0.121 A 
HETATM    6  N   UNL     1     -42.503  60.717 -52.955  1.00  0.00    -0.272 N 
HETATM    7  H   UNL     1     -42.580  60.673 -53.967  1.00  0.00     0.189 HD
HETATM    8  N   UNL     1     -43.233  61.626 -52.290  1.00  0.00    -0.174 NA
HETATM    9  C   UNL     1     -42.911  61.443 -51.000  1.00  0.00     0.089 A 
HETATM   10  C   UNL     1     -41.973  60.381 -50.874  1.00  0.00     0.071 A 
BRANCH   9  11
HETATM   11  C   UNL     1     -43.503  62.243 -49.926  1.00  0.00    -0.005 A 
HETATM   12  C   UNL     1     -43.244  63.616 -49.831  1.00  0.00     0.016 A 
HETATM   13  C   UNL     1     -43.844  64.386 -48.828  1.00  0.00     0.037 A 
HETATM   14  C   UNL     1     -44.709  63.800 -47.902  1.00  0.00     0.068 A 
HETATM   15  C   UNL     1     -44.955  62.431 -47.975  1.00  0.00     0.037 A 
HETATM   16  C   UNL     1     -44.357  61.658 -48.980  1.00  0.00     0.016 A 
BRANCH  14  17
HETATM   17  O   UNL     1     -45.239  64.664 -46.984  1.00  0.00    -0.356 OA
HETATM   18  C   UNL     1     -46.242  64.145 -46.120  1.00  0.00     0.210 C 
ENDBRANCH  14  17
ENDBRANCH   9  11
ENDBRANCH   2   5
BRANCH   1  19
HETATM   19  N   UNL     1     -40.816  56.516 -53.193  1.00  0.00    -0.267 N 
HETATM   20  C   UNL     1     -41.106  56.103 -54.475  1.00  0.00     0.236 C 
HETATM   21  O   UNL     1     -41.838  56.758 -55.221  1.00  0.00    -0.272 OA
HETATM   22  H   UNL     1     -40.352  55.937 -52.499  1.00  0.00     0.190 HD
BRANCH  20  23
HETATM   23  C   UNL     1     -40.381  54.860 -54.950  1.00  0.00     0.113 C 
BRANCH  23  24
HETATM   24  C   UNL     1     -41.185  53.555 -54.844  1.00  0.00     0.023 C 
HETATM   25  C   UNL     1     -42.632  53.861 -54.439  1.00  0.00     0.015 C 
BRANCH  24  26
HETATM   26  C   UNL     1     -40.576  52.542 -53.891  1.00  0.00    -0.054 A 
HETATM   27  C   UNL     1     -40.253  51.239 -54.302  1.00  0.00     0.007 A 
HETATM   28  C   UNL     1     -39.697  50.326 -53.403  1.00  0.00     0.001 A 
HETATM   29  C   UNL     1     -39.452  50.704 -52.085  1.00  0.00     0.000 A 
HETATM   30  C   UNL     1     -39.761  51.994 -51.664  1.00  0.00     0.001 A 
HETATM   31  C   UNL     1     -40.318  52.908 -52.560  1.00  0.00     0.007 A 
ENDBRANCH  24  26
ENDBRANCH  23  24
ENDBRANCH  20  23
ENDBRANCH   1  19
TORSDOF 7
ENDMDL
MODEL 7
REMARK VINA RESULT:      -7.7     16.355     19.388
REMARK  7 active torsions:
REMARK  status: ('A' for Active; 'I' for Inactive)
REMARK    1  A    between atoms: C_2  and  C_3 
REMARK    2  A    between atoms: C_2  and  C_9 
REMARK    3  A    between atoms: C_9  and  C_10 
REMARK       I    between atoms: C_10  and  N_11 
REMARK    4  A    between atoms: N_11  and  N_12 
REMARK       I    between atoms: N_12  and  C_13 
REMARK    5  A    between atoms: C_13  and  C_14 
REMARK    6  A    between atoms: C_18  and  C_19 
REMARK    7  A    between atoms: C_22  and  O_23 
ROOT
HETATM    1  N   UNL     1     -33.743  41.219 -53.128  1.00  0.00    -0.262 N 
HETATM    2  C   UNL     1     -33.649  39.906 -52.722  1.00  0.00     0.288 C 
HETATM    3  O   UNL     1     -34.089  38.980 -53.402  1.00  0.00    -0.264 OA
HETATM    4  H   UNL     1     -33.426  42.009 -52.571  1.00  0.00     0.190 HD
ENDROOT
BRANCH   2   5
HETATM    5  C   UNL     1     -32.994  39.706 -51.459  1.00  0.00     0.121 A 
HETATM    6  N   UNL     1     -31.706  40.101 -51.234  1.00  0.00    -0.272 N 
HETATM    7  H   UNL     1     -31.080  40.550 -51.896  1.00  0.00     0.189 HD
HETATM    8  N   UNL     1     -31.271  39.873 -49.984  1.00  0.00    -0.174 NA
HETATM    9  C   UNL     1     -32.303  39.275 -49.369  1.00  0.00     0.089 A 
HETATM   10  C   UNL     1     -33.402  39.151 -50.263  1.00  0.00     0.071 A 
BRANCH   9  11
HETATM   11  C   UNL     1     -32.242  38.860 -47.966  1.00  0.00    -0.005 A 
HETATM   12  C   UNL     1     -31.177  39.260 -47.148  1.00  0.00     0.016 A 
HETATM   13  C   UNL     1     -31.143  38.897 -45.797  1.00  0.00     0.037 A 
HETATM   14  C   UNL     1     -32.165  38.127 -45.239  1.00  0.00     0.068 A 
HETATM   15  C   UNL     1     -33.217  37.706 -46.050  1.00  0.00     0.037 A 
HETATM   16  C   UNL     1     -33.255  38.071 -47.403  1.00  0.00     0.016 A 
BRANCH  14  17
HETATM   17  O   UNL     1     -32.018  37.854 -43.908  1.00  0.00    -0.356 OA
HETATM   18  C   UNL     1     -30.783  38.225 -43.309  1.00  0.00     0.210 C 
ENDBRANCH  14  17
ENDBRANCH   9  11
ENDBRANCH   2   5
BRANCH   1  19
HETATM   19  N   UNL     1     -34.367  41.532 -54.338  1.00  0.00    -0.267 N 
HETATM   20  C   UNL     1     -35.567  42.204 -54.268  1.00  0.00     0.236 C 
HETATM   21  O   UNL     1     -36.007  42.644 -53.204  1.00  0.00    -0.272 OA
HETATM   22  H   UNL     1     -34.047  41.020 -55.157  1.00  0.00     0.190 HD
BRANCH  20  23
HETATM   23  C   UNL     1     -36.256  42.468 -55.592  1.00  0.00     0.113 C 
BRANCH  23  24
HETATM   24  C   UNL     1     -37.401  41.502 -55.937  1.00  0.00     0.023 C 
HETATM   25  C   UNL     1     -37.248  40.201 -55.139  1.00  0.00     0.015 C 
BRANCH  24  26
HETATM   26  C   UNL     1     -37.511  41.198 -57.421  1.00  0.00    -0.054 A 
HETATM   27  C   UNL     1     -38.024  39.979 -57.891  1.00  0.00     0.007 A 
HETATM   28  C   UNL     1     -38.111  39.724 -59.261  1.00  0.00     0.001 A 
HETATM   29  C   UNL     1     -37.692  40.684 -60.179  1.00  0.00     0.000 A 
HETATM   30  C   UNL     1     -37.187  41.900 -59.729  1.00  0.00     0.001 A 
HETATM   31  C   UNL     1     -37.098  42.157 -58.359  1.00  0.00     0.007 A 
ENDBRANCH  24  26
ENDBRANCH  23  24
ENDBRANCH  20  23
ENDBRANCH   1  19
TORSDOF 7
ENDMDL
MODEL 8
REMARK VINA RESULT:      -7.5     16.393     19.396
REMARK  7 active torsions:
REMARK  status: ('A' for Active; 'I' for Inactive)
REMARK    1  A    between atoms: C_2  and  C_3 
REMARK    2  A    between atoms: C_2  and  C_9 
REMARK    3  A    between atoms: C_9  and  C_10 
REMARK       I    between atoms: C_10  and  N_11 
REMARK    4  A    between atoms: N_11  and  N_12 
REMARK       I    between atoms: N_12  and  C_13 
REMARK    5  A    between atoms: C_13  and  C_14 
REMARK    6  A    between atoms: C_18  and  C_19 
REMARK    7  A    between atoms: C_22  and  O_23 
ROOT
HETATM    1  N   UNL     1     -34.501  40.477 -52.778  1.00  0.00    -0.262 N 
HETATM    2  C   UNL     1     -33.205  40.242 -52.377  1.00  0.00     0.288 C 
HETATM    3  O   UNL     1     -32.251  40.377 -53.141  1.00  0.00    -0.264 OA
HETATM    4  H   UNL     1     -35.315  40.336 -52.184  1.00  0.00     0.190 HD
ENDROOT
BRANCH   2   5
HETATM    5  C   UNL     1     -33.057  39.840 -51.006  1.00  0.00     0.121 A 
HETATM    6  N   UNL     1     -34.044  39.183 -50.327  1.00  0.00    -0.272 N 
HETATM    7  H   UNL     1     -34.959  38.921 -50.681  1.00  0.00     0.189 HD
HETATM    8  N   UNL     1     -33.717  38.847 -49.069  1.00  0.00    -0.174 NA
HETATM    9  C   UNL     1     -32.476  39.330 -48.900  1.00  0.00     0.089 A 
HETATM   10  C   UNL     1     -32.028  39.960 -50.094  1.00  0.00     0.071 A 
BRANCH   9  11
HETATM   11  C   UNL     1     -31.738  39.168 -47.645  1.00  0.00    -0.005 A 
HETATM   12  C   UNL     1     -31.995  38.081 -46.801  1.00  0.00     0.016 A 
HETATM   13  C   UNL     1     -31.260  37.906 -45.623  1.00  0.00     0.037 A 
HETATM   14  C   UNL     1     -30.260  38.812 -45.265  1.00  0.00     0.068 A 
HETATM   15  C   UNL     1     -30.013  39.909 -46.088  1.00  0.00     0.037 A 
HETATM   16  C   UNL     1     -30.746  40.085 -47.270  1.00  0.00     0.016 A 
BRANCH  14  17
HETATM   17  O   UNL     1     -29.609  38.520 -44.099  1.00  0.00    -0.356 OA
HETATM   18  C   UNL     1     -29.062  39.617 -43.378  1.00  0.00     0.210 C 
ENDBRANCH  14  17
ENDBRANCH   9  11
ENDBRANCH   2   5
BRANCH   1  19
HETATM   19  N   UNL     1     -34.765  40.868 -54.094  1.00  0.00    -0.267 N 
HETATM   20  C   UNL     1     -35.545  41.989 -54.270  1.00  0.00     0.236 C 
HETATM   21  O   UNL     1     -35.878  42.707 -53.325  1.00  0.00    -0.272 OA
HETATM   22  H   UNL     1     -34.602  40.168 -54.814  1.00  0.00     0.190 HD
BRANCH  20  23
HETATM   23  C   UNL     1     -35.874  42.348 -55.705  1.00  0.00     0.113 C 
BRANCH  23  24
HETATM   24  C   UNL     1     -37.329  42.092 -56.127  1.00  0.00     0.023 C 
HETATM   25  C   UNL     1     -38.018  41.179 -55.105  1.00  0.00     0.015 C 
BRANCH  24  26
HETATM   26  C   UNL     1     -37.464  41.512 -57.524  1.00  0.00    -0.054 A 
HETATM   27  C   UNL     1     -37.066  42.228 -58.663  1.00  0.00     0.007 A 
HETATM   28  C   UNL     1     -37.204  41.672 -59.937  1.00  0.00     0.001 A 
HETATM   29  C   UNL     1     -37.736  40.394 -60.089  1.00  0.00     0.000 A 
HETATM   30  C   UNL     1     -38.129  39.669 -58.967  1.00  0.00     0.001 A 
HETATM   31  C   UNL     1     -37.994  40.223 -57.693  1.00  0.00     0.007 A 
ENDBRANCH  24  26
ENDBRANCH  23  24
ENDBRANCH  20  23
ENDBRANCH   1  19
TORSDOF 7
ENDMDL
MODEL 9
REMARK VINA RESULT:      -7.5     16.368     19.029
REMARK  7 active torsions:
REMARK  status: ('A' for Active; 'I' for Inactive)
REMARK    1  A    between atoms: C_2  and  C_3 
REMARK    2  A    between atoms: C_2  and  C_9 
REMARK    3  A    between atoms: C_9  and  C_10 
REMARK       I    between atoms: C_10  and  N_11 
REMARK    4  A    between atoms: N_11  and  N_12 
REMARK       I    between atoms: N_12  and  C_13 
REMARK    5  A    between atoms: C_13  and  C_14 
REMARK    6  A    between atoms: C_18  and  C_19 
REMARK    7  A    between atoms: C_22  and  O_23 
ROOT
HETATM    1  N   UNL     1     -34.254  41.171 -53.803  1.00  0.00    -0.262 N 
HETATM    2  C   UNL     1     -35.013  41.273 -52.659  1.00  0.00     0.288 C 
HETATM    3  O   UNL     1     -36.015  41.985 -52.602  1.00  0.00    -0.264 OA
HETATM    4  H   UNL     1     -33.399  40.624 -53.871  1.00  0.00     0.190 HD
ENDROOT
BRANCH   2   5
HETATM    5  C   UNL     1     -34.553  40.481 -51.552  1.00  0.00     0.121 A 
HETATM    6  N   UNL     1     -35.056  39.240 -51.283  1.00  0.00    -0.272 N 
HETATM    7  H   UNL     1     -35.786  38.753 -51.794  1.00  0.00     0.189 HD
HETATM    8  N   UNL     1     -34.480  38.627 -50.237  1.00  0.00    -0.174 NA
HETATM    9  C   UNL     1     -33.582  39.513 -49.777  1.00  0.00     0.089 A 
HETATM   10  C   UNL     1     -33.599  40.689 -50.577  1.00  0.00     0.071 A 
BRANCH   9  11
HETATM   11  C   UNL     1     -32.721  39.227 -48.628  1.00  0.00    -0.005 A 
HETATM   12  C   UNL     1     -31.609  40.032 -48.350  1.00  0.00     0.016 A 
HETATM   13  C   UNL     1     -30.813  39.782 -47.227  1.00  0.00     0.037 A 
HETATM   14  C   UNL     1     -31.108  38.725 -46.364  1.00  0.00     0.068 A 
HETATM   15  C   UNL     1     -32.199  37.905 -46.645  1.00  0.00     0.037 A 
HETATM   16  C   UNL     1     -33.000  38.155 -47.768  1.00  0.00     0.016 A 
BRANCH  14  17
HETATM   17  O   UNL     1     -30.261  38.598 -45.298  1.00  0.00    -0.356 OA
HETATM   18  C   UNL     1     -29.601  39.779 -44.859  1.00  0.00     0.210 C 
ENDBRANCH  14  17
ENDBRANCH   9  11
ENDBRANCH   2   5
BRANCH   1  19
HETATM   19  N   UNL     1     -34.605  41.902 -54.942  1.00  0.00    -0.267 N 
HETATM   20  C   UNL     1     -34.985  41.185 -56.054  1.00  0.00     0.236 C 
HETATM   21  O   UNL     1     -35.157  39.965 -56.016  1.00  0.00    -0.272 OA
HETATM   22  H   UNL     1     -34.302  42.873 -54.965  1.00  0.00     0.190 HD
BRANCH  20  23
HETATM   23  C   UNL     1     -35.291  42.000 -57.294  1.00  0.00     0.113 C 
BRANCH  23  24
HETATM   24  C   UNL     1     -36.784  42.135 -57.635  1.00  0.00     0.023 C 
HETATM   25  C   UNL     1     -37.608  42.244 -56.347  1.00  0.00     0.015 C 
BRANCH  24  26
HETATM   26  C   UNL     1     -37.313  41.008 -58.504  1.00  0.00    -0.054 A 
HETATM   27  C   UNL     1     -37.985  39.904 -57.956  1.00  0.00     0.007 A 
HETATM   28  C   UNL     1     -38.458  38.879 -58.778  1.00  0.00     0.001 A 
HETATM   29  C   UNL     1     -38.269  38.944 -60.156  1.00  0.00     0.000 A 
HETATM   30  C   UNL     1     -37.609  40.035 -60.715  1.00  0.00     0.001 A 
HETATM   31  C   UNL     1     -37.134  41.061 -59.896  1.00  0.00     0.007 A 
ENDBRANCH  24  26
ENDBRANCH  23  24
ENDBRANCH  20  23
ENDBRANCH   1  19
TORSDOF 7
ENDMDL
MODEL 10
REMARK VINA RESULT:      -7.4      6.785     11.458
REMARK  7 active torsions:
REMARK  status: ('A' for Active; 'I' for Inactive)
REMARK    1  A    between atoms: C_2  and  C_3 
REMARK    2  A    between atoms: C_2  and  C_9 
REMARK    3  A    between atoms: C_9  and  C_10 
REMARK       I    between atoms: C_10  and  N_11 
REMARK    4  A    between atoms: N_11  and  N_12 
REMARK       I    between atoms: N_12  and  C_13 
REMARK    5  A    between atoms: C_13  and  C_14 
REMARK    6  A    between atoms: C_18  and  C_19 
REMARK    7  A    between atoms: C_22  and  O_23 
ROOT
HETATM    1  N   UNL     1     -41.722  57.459 -50.636  1.00  0.00    -0.262 N 
HETATM    2  C   UNL     1     -42.637  58.050 -51.479  1.00  0.00     0.288 C 
HETATM    3  O   UNL     1     -42.870  57.607 -52.603  1.00  0.00    -0.264 OA
HETATM    4  H   UNL     1     -41.476  57.824 -49.719  1.00  0.00     0.190 HD
ENDROOT
BRANCH   2   5
HETATM    5  C   UNL     1     -43.298  59.208 -50.943  1.00  0.00     0.121 A 
HETATM    6  N   UNL     1     -42.630  60.172 -50.244  1.00  0.00    -0.272 N 
HETATM    7  H   UNL     1     -41.640  60.187 -50.017  1.00  0.00     0.189 HD
HETATM    8  N   UNL     1     -43.398  61.202 -49.855  1.00  0.00    -0.174 NA
HETATM    9  C   UNL     1     -44.630  60.889 -50.287  1.00  0.00     0.089 A 
HETATM   10  C   UNL     1     -44.607  59.644 -50.974  1.00  0.00     0.071 A 
BRANCH   9  11
HETATM   11  C   UNL     1     -45.781  61.768 -50.069  1.00  0.00    -0.005 A 
HETATM   12  C   UNL     1     -46.177  62.118 -48.772  1.00  0.00     0.016 A 
HETATM   13  C   UNL     1     -47.251  62.992 -48.568  1.00  0.00     0.037 A 
HETATM   14  C   UNL     1     -47.950  63.527 -49.651  1.00  0.00     0.068 A 
HETATM   15  C   UNL     1     -47.578  63.166 -50.945  1.00  0.00     0.037 A 
HETATM   16  C   UNL     1     -46.501  62.294 -51.152  1.00  0.00     0.016 A 
BRANCH  14  17
HETATM   17  O   UNL     1     -48.969  64.376 -49.316  1.00  0.00    -0.356 OA
HETATM   18  C   UNL     1     -50.257  63.797 -49.148  1.00  0.00     0.210 C 
ENDBRANCH  14  17
ENDBRANCH   9  11
ENDBRANCH   2   5
BRANCH   1  19
HETATM   19  N   UNL     1     -41.014  56.330 -51.056  1.00  0.00    -0.267 N 
HETATM   20  C   UNL     1     -41.414  55.115 -50.546  1.00  0.00     0.236 C 
HETATM   21  O   UNL     1     -42.438  54.997 -49.869  1.00  0.00    -0.272 OA
HETATM   22  H   UNL     1     -40.105  56.499 -51.479  1.00  0.00     0.190 HD
BRANCH  20  23
HETATM   23  C   UNL     1     -40.585  53.917 -50.962  1.00  0.00     0.113 C 
BRANCH  23  24
HETATM   24  C   UNL     1     -40.631  53.579 -52.461  1.00  0.00     0.023 C 
HETATM   25  C   UNL     1     -42.030  53.863 -53.020  1.00  0.00     0.015 C 
BRANCH  24  26
HETATM   26  C   UNL     1     -40.220  52.150 -52.774  1.00  0.00    -0.054 A 
HETATM   27  C   UNL     1     -40.265  51.637 -54.079  1.00  0.00     0.007 A 
HETATM   28  C   UNL     1     -39.886  50.318 -54.338  1.00  0.00     0.001 A 
HETATM   29  C   UNL     1     -39.452  49.498 -53.300  1.00  0.00     0.000 A 
HETATM   30  C   UNL     1     -39.397  49.995 -52.001  1.00  0.00     0.001 A 
HETATM   31  C   UNL     1     -39.777  51.312 -51.738  1.00  0.00     0.007 A 
ENDBRANCH  24  26
ENDBRANCH  23  24
ENDBRANCH  20  23
ENDBRANCH   1  19
TORSDOF 7
ENDMDL
