MODEL 1
REMARK VINA RESULT:      -9.0      0.000      0.000
REMARK  10 active torsions:
REMARK  status: ('A' for Active; 'I' for Inactive)
REMARK    1  A    between atoms: C_6  and  N_7 
REMARK    2  A    between atoms: C_8  and  S_9 
REMARK    3  A    between atoms: S_9  and  C_10 
REMARK    4  A    between atoms: C_10  and  C_11 
REMARK       I    between atoms: C_11  and  N_12 
REMARK    5  A    between atoms: N_12  and  C_13 
REMARK    6  A    between atoms: C_13  and  C_14 
REMARK    7  A    between atoms: C_14  and  C_15 
REMARK    8  A    between atoms: C_17  and  O_18 
REMARK    9  A    between atoms: C_20  and  O_21 
REMARK   10  A    between atoms: C_29  and  N_30 
ROOT
HETATM    1  N   UNL     1     -42.292  59.507 -59.117  1.00  0.00    -0.276 N 
HETATM    2  C   UNL     1     -42.155  59.958 -57.775  1.00  0.00     0.177 A 
HETATM    3  N   UNL     1     -41.577  61.076 -57.402  1.00  0.00    -0.204 NA
HETATM    4  C   UNL     1     -41.118  61.828 -58.425  1.00  0.00     0.162 A 
HETATM    5  C   UNL     1     -41.151  61.577 -59.769  1.00  0.00     0.081 A 
HETATM    6  C   UNL     1     -41.743  60.341 -60.181  1.00  0.00     0.124 A 
HETATM    7  N   UNL     1     -40.519  63.047 -58.301  1.00  0.00    -0.260 N 
HETATM    8  H   UNL     1     -40.330  63.564 -57.449  1.00  0.00     0.191 HD
HETATM    9  N   UNL     1     -40.166  63.585 -59.488  1.00  0.00    -0.177 NA
HETATM   10  C   UNL     1     -40.561  62.682 -60.400  1.00  0.00     0.068 A 
HETATM   11  C   UNL     1     -40.340  62.958 -61.840  1.00  0.00     0.073 C 
ENDROOT
BRANCH   2  12
HETATM   12  S   UNL     1     -42.815  58.980 -56.442  1.00  0.00    -0.082 SA
BRANCH  12  13
HETATM   13  C   UNL     1     -42.078  59.813 -55.009  1.00  0.00     0.185 C 
BRANCH  13  14
HETATM   14  C   UNL     1     -41.293  58.843 -54.138  1.00  0.00     0.227 C 
HETATM   15  N   UNL     1     -41.656  57.520 -54.310  1.00  0.00    -0.360 N 
HETATM   16  H   UNL     1     -42.443  57.281 -54.898  1.00  0.00     0.162 HD
HETATM   17  O   UNL     1     -40.379  59.189 -53.395  1.00  0.00    -0.273 OA
BRANCH  15  18
HETATM   18  C   UNL     1     -40.929  56.434 -53.678  1.00  0.00     0.127 C 
BRANCH  18  19
HETATM   19  C   UNL     1     -40.972  55.136 -54.486  1.00  0.00     0.058 C 
BRANCH  19  20
HETATM   20  C   UNL     1     -40.600  53.950 -53.627  1.00  0.00    -0.054 A 
HETATM   21  C   UNL     1     -40.695  54.030 -52.230  1.00  0.00     0.046 A 
HETATM   22  C   UNL     1     -40.307  52.954 -51.421  1.00  0.00     0.102 A 
HETATM   23  C   UNL     1     -39.813  51.777 -52.018  1.00  0.00     0.101 A 
HETATM   24  C   UNL     1     -39.723  51.698 -53.411  1.00  0.00     0.040 A 
HETATM   25  C   UNL     1     -40.111  52.777 -54.209  1.00  0.00     0.010 A 
BRANCH  22  26
HETATM   26  O   UNL     1     -40.360  52.956 -50.048  1.00  0.00    -0.353 OA
HETATM   27  C   UNL     1     -39.804  54.071 -49.368  1.00  0.00     0.210 C 
ENDBRANCH  22  26
BRANCH  23  28
HETATM   28  O   UNL     1     -39.447  50.771 -51.157  1.00  0.00    -0.353 OA
HETATM   29  C   UNL     1     -39.619  49.431 -51.595  1.00  0.00     0.210 C 
ENDBRANCH  23  28
ENDBRANCH  19  20
ENDBRANCH  18  19
ENDBRANCH  15  18
ENDBRANCH  13  14
ENDBRANCH  12  13
ENDBRANCH   2  12
BRANCH   1  30
HETATM   30  C   UNL     1     -42.964  58.292 -59.442  1.00  0.00     0.045 A 
HETATM   31  C   UNL     1     -44.355  58.252 -59.600  1.00  0.00     0.054 A 
HETATM   32  C   UNL     1     -45.009  57.036 -59.827  1.00  0.00     0.042 A 
HETATM   33  C   UNL     1     -44.290  55.833 -59.882  1.00  0.00    -0.040 A 
HETATM   34 CL   UNL     1     -46.727  57.072 -60.011  1.00  0.00    -0.084 Cl
HETATM   35  C   UNL     1     -44.967  54.511 -60.118  1.00  0.00     0.050 C 
HETATM   36  C   UNL     1     -42.898  55.876 -59.727  1.00  0.00     0.011 A 
HETATM   37  C   UNL     1     -42.242  57.091 -59.508  1.00  0.00     0.031 A 
ENDBRANCH   1  30
BRANCH   6  38
HETATM   38  N   UNL     1     -41.746  59.980 -61.451  1.00  0.00    -0.384 N 
HETATM   39  H   UNL     1     -40.910  60.003 -62.015  1.00  0.00     0.157 HD
HETATM   40  H   UNL     1     -42.599  59.638 -61.879  1.00  0.00     0.157 HD
ENDBRANCH   6  38
TORSDOF 10
ENDMDL
MODEL 2
REMARK VINA RESULT:      -8.5      1.688      2.482
REMARK  10 active torsions:
REMARK  status: ('A' for Active; 'I' for Inactive)
REMARK    1  A    between atoms: C_6  and  N_7 
REMARK    2  A    between atoms: C_8  and  S_9 
REMARK    3  A    between atoms: S_9  and  C_10 
REMARK    4  A    between atoms: C_10  and  C_11 
REMARK       I    between atoms: C_11  and  N_12 
REMARK    5  A    between atoms: N_12  and  C_13 
REMARK    6  A    between atoms: C_13  and  C_14 
REMARK    7  A    between atoms: C_14  and  C_15 
REMARK    8  A    between atoms: C_17  and  O_18 
REMARK    9  A    between atoms: C_20  and  O_21 
REMARK   10  A    between atoms: C_29  and  N_30 
ROOT
HETATM    1  N   UNL     1     -42.172  59.497 -59.040  1.00  0.00    -0.276 N 
HETATM    2  C   UNL     1     -41.901  59.897 -57.701  1.00  0.00     0.177 A 
HETATM    3  N   UNL     1     -41.295  61.005 -57.346  1.00  0.00    -0.204 NA
HETATM    4  C   UNL     1     -40.948  61.801 -58.379  1.00  0.00     0.162 A 
HETATM    5  C   UNL     1     -41.116  61.602 -59.721  1.00  0.00     0.081 A 
HETATM    6  C   UNL     1     -41.740  60.377 -60.120  1.00  0.00     0.124 A 
HETATM    7  N   UNL     1     -40.348  63.020 -58.269  1.00  0.00    -0.260 N 
HETATM    8  H   UNL     1     -40.076  63.505 -57.420  1.00  0.00     0.191 HD
HETATM    9  N   UNL     1     -40.121  63.608 -59.463  1.00  0.00    -0.177 NA
HETATM   10  C   UNL     1     -40.602  62.737 -60.366  1.00  0.00     0.068 A 
HETATM   11  C   UNL     1     -40.531  63.071 -61.808  1.00  0.00     0.073 C 
ENDROOT
BRANCH   2  12
HETATM   12  S   UNL     1     -42.416  58.861 -56.349  1.00  0.00    -0.082 SA
BRANCH  12  13
HETATM   13  C   UNL     1     -42.356  60.041 -54.973  1.00  0.00     0.185 C 
BRANCH  13  14
HETATM   14  C   UNL     1     -41.681  59.443 -53.747  1.00  0.00     0.227 C 
HETATM   15  N   UNL     1     -42.565  59.050 -52.759  1.00  0.00    -0.360 N 
HETATM   16  H   UNL     1     -43.551  59.255 -52.850  1.00  0.00     0.162 HD
HETATM   17  O   UNL     1     -40.469  59.265 -53.662  1.00  0.00    -0.273 OA
BRANCH  15  18
HETATM   18  C   UNL     1     -42.128  58.328 -51.579  1.00  0.00     0.127 C 
BRANCH  18  19
HETATM   19  C   UNL     1     -42.978  57.090 -51.286  1.00  0.00     0.058 C 
BRANCH  19  20
HETATM   20  C   UNL     1     -42.483  55.896 -52.067  1.00  0.00    -0.054 A 
HETATM   21  C   UNL     1     -43.047  55.579 -53.312  1.00  0.00     0.046 A 
HETATM   22  C   UNL     1     -42.628  54.447 -54.023  1.00  0.00     0.102 A 
HETATM   23  C   UNL     1     -41.629  53.614 -53.481  1.00  0.00     0.101 A 
HETATM   24  C   UNL     1     -41.066  53.933 -52.241  1.00  0.00     0.040 A 
HETATM   25  C   UNL     1     -41.491  55.064 -51.539  1.00  0.00     0.010 A 
BRANCH  22  26
HETATM   26  O   UNL     1     -43.135  54.064 -55.241  1.00  0.00    -0.353 OA
HETATM   27  C   UNL     1     -42.887  54.908 -56.355  1.00  0.00     0.210 C 
ENDBRANCH  22  26
BRANCH  23  28
HETATM   28  O   UNL     1     -41.280  52.520 -54.234  1.00  0.00    -0.353 OA
HETATM   29  C   UNL     1     -40.081  51.839 -53.894  1.00  0.00     0.210 C 
ENDBRANCH  23  28
ENDBRANCH  19  20
ENDBRANCH  18  19
ENDBRANCH  15  18
ENDBRANCH  13  14
ENDBRANCH  12  13
ENDBRANCH   2  12
BRANCH   1  30
HETATM   30  C   UNL     1     -42.867  58.288 -59.342  1.00  0.00     0.045 A 
HETATM   31  C   UNL     1     -44.263  58.218 -59.276  1.00  0.00     0.054 A 
HETATM   32  C   UNL     1     -44.924  57.002 -59.484  1.00  0.00     0.042 A 
HETATM   33  C   UNL     1     -44.202  55.828 -59.746  1.00  0.00    -0.040 A 
HETATM   34 CL   UNL     1     -46.648  56.998 -59.384  1.00  0.00    -0.084 Cl
HETATM   35  C   UNL     1     -44.884  54.506 -59.969  1.00  0.00     0.050 C 
HETATM   36  C   UNL     1     -42.804  55.902 -59.817  1.00  0.00     0.011 A 
HETATM   37  C   UNL     1     -42.143  57.117 -59.616  1.00  0.00     0.031 A 
ENDBRANCH   1  30
BRANCH   6  38
HETATM   38  N   UNL     1     -41.871  60.065 -61.396  1.00  0.00    -0.384 N 
HETATM   39  H   UNL     1     -42.700  60.302 -61.922  1.00  0.00     0.157 HD
HETATM   40  H   UNL     1     -41.114  59.602 -61.886  1.00  0.00     0.157 HD
ENDBRANCH   6  38
TORSDOF 10
ENDMDL
MODEL 3
REMARK VINA RESULT:      -8.1      2.912      4.515
REMARK  10 active torsions:
REMARK  status: ('A' for Active; 'I' for Inactive)
REMARK    1  A    between atoms: C_6  and  N_7 
REMARK    2  A    between atoms: C_8  and  S_9 
REMARK    3  A    between atoms: S_9  and  C_10 
REMARK    4  A    between atoms: C_10  and  C_11 
REMARK       I    between atoms: C_11  and  N_12 
REMARK    5  A    between atoms: N_12  and  C_13 
REMARK    6  A    between atoms: C_13  and  C_14 
REMARK    7  A    between atoms: C_14  and  C_15 
REMARK    8  A    between atoms: C_17  and  O_18 
REMARK    9  A    between atoms: C_20  and  O_21 
REMARK   10  A    between atoms: C_29  and  N_30 
ROOT
HETATM    1  N   UNL     1     -44.888  58.760 -58.383  1.00  0.00    -0.276 N 
HETATM    2  C   UNL     1     -43.553  59.138 -58.697  1.00  0.00     0.177 A 
HETATM    3  N   UNL     1     -42.659  59.563 -57.835  1.00  0.00    -0.204 NA
HETATM    4  C   UNL     1     -43.096  59.598 -56.559  1.00  0.00     0.162 A 
HETATM    5  C   UNL     1     -44.326  59.280 -56.054  1.00  0.00     0.081 A 
HETATM    6  C   UNL     1     -45.319  58.854 -56.993  1.00  0.00     0.124 A 
HETATM    7  N   UNL     1     -42.347  59.960 -55.479  1.00  0.00    -0.260 N 
HETATM    8  H   UNL     1     -41.375  60.253 -55.465  1.00  0.00     0.191 HD
HETATM    9  N   UNL     1     -43.030  59.895 -54.315  1.00  0.00    -0.177 NA
HETATM   10  C   UNL     1     -44.254  59.467 -54.666  1.00  0.00     0.068 A 
HETATM   11  C   UNL     1     -45.281  59.263 -53.617  1.00  0.00     0.073 C 
ENDROOT
BRANCH   2  12
HETATM   12  S   UNL     1     -42.977  59.034 -60.378  1.00  0.00    -0.082 SA
BRANCH  12  13
HETATM   13  C   UNL     1     -41.799  57.661 -60.251  1.00  0.00     0.185 C 
BRANCH  13  14
HETATM   14  C   UNL     1     -42.429  56.438 -59.602  1.00  0.00     0.227 C 
HETATM   15  N   UNL     1     -42.262  56.385 -58.231  1.00  0.00    -0.360 N 
HETATM   16  H   UNL     1     -41.681  57.069 -57.763  1.00  0.00     0.162 HD
HETATM   17  O   UNL     1     -43.081  55.602 -60.222  1.00  0.00    -0.273 OA
BRANCH  15  18
HETATM   18  C   UNL     1     -42.910  55.376 -57.414  1.00  0.00     0.127 C 
BRANCH  18  19
HETATM   19  C   UNL     1     -43.102  55.816 -55.960  1.00  0.00     0.058 C 
BRANCH  19  20
HETATM   20  C   UNL     1     -42.283  54.959 -55.023  1.00  0.00    -0.054 A 
HETATM   21  C   UNL     1     -42.737  54.702 -53.720  1.00  0.00     0.046 A 
HETATM   22  C   UNL     1     -41.964  53.949 -52.827  1.00  0.00     0.102 A 
HETATM   23  C   UNL     1     -40.715  53.444 -53.240  1.00  0.00     0.101 A 
HETATM   24  C   UNL     1     -40.267  53.699 -54.540  1.00  0.00     0.040 A 
HETATM   25  C   UNL     1     -41.044  54.452 -55.423  1.00  0.00     0.010 A 
BRANCH  22  26
HETATM   26  O   UNL     1     -42.332  53.661 -51.534  1.00  0.00    -0.353 OA
HETATM   27  C   UNL     1     -43.524  54.252 -51.040  1.00  0.00     0.210 C 
ENDBRANCH  22  26
BRANCH  23  28
HETATM   28  O   UNL     1     -40.015  52.723 -52.304  1.00  0.00    -0.353 OA
HETATM   29  C   UNL     1     -39.607  51.408 -52.653  1.00  0.00     0.210 C 
ENDBRANCH  23  28
ENDBRANCH  19  20
ENDBRANCH  18  19
ENDBRANCH  15  18
ENDBRANCH  13  14
ENDBRANCH  12  13
ENDBRANCH   2  12
BRANCH   1  30
HETATM   30  C   UNL     1     -45.791  58.277 -59.377  1.00  0.00     0.045 A 
HETATM   31  C   UNL     1     -46.530  59.158 -60.174  1.00  0.00     0.054 A 
HETATM   32  C   UNL     1     -47.479  58.670 -61.080  1.00  0.00     0.042 A 
HETATM   33  C   UNL     1     -47.721  57.293 -61.194  1.00  0.00    -0.040 A 
HETATM   34 CL   UNL     1     -48.352  59.822 -62.027  1.00  0.00    -0.084 Cl
HETATM   35  C   UNL     1     -48.738  56.739 -62.154  1.00  0.00     0.050 C 
HETATM   36  C   UNL     1     -46.975  56.413 -60.397  1.00  0.00     0.011 A 
HETATM   37  C   UNL     1     -46.023  56.899 -59.498  1.00  0.00     0.031 A 
ENDBRANCH   1  30
BRANCH   6  38
HETATM   38  N   UNL     1     -46.556  58.604 -56.606  1.00  0.00    -0.384 N 
HETATM   39  H   UNL     1     -47.084  57.826 -56.974  1.00  0.00     0.157 HD
HETATM   40  H   UNL     1     -46.993  59.181 -55.897  1.00  0.00     0.157 HD
ENDBRANCH   6  38
TORSDOF 10
ENDMDL
MODEL 4
REMARK VINA RESULT:      -8.0      2.493      4.818
REMARK  10 active torsions:
REMARK  status: ('A' for Active; 'I' for Inactive)
REMARK    1  A    between atoms: C_6  and  N_7 
REMARK    2  A    between atoms: C_8  and  S_9 
REMARK    3  A    between atoms: S_9  and  C_10 
REMARK    4  A    between atoms: C_10  and  C_11 
REMARK       I    between atoms: C_11  and  N_12 
REMARK    5  A    between atoms: N_12  and  C_13 
REMARK    6  A    between atoms: C_13  and  C_14 
REMARK    7  A    between atoms: C_14  and  C_15 
REMARK    8  A    between atoms: C_17  and  O_18 
REMARK    9  A    between atoms: C_20  and  O_21 
REMARK   10  A    between atoms: C_29  and  N_30 
ROOT
HETATM    1  N   UNL     1     -43.398  58.738 -58.688  1.00  0.00    -0.276 N 
HETATM    2  C   UNL     1     -42.984  58.130 -57.470  1.00  0.00     0.177 A 
HETATM    3  N   UNL     1     -43.094  56.855 -57.180  1.00  0.00    -0.204 NA
HETATM    4  C   UNL     1     -43.629  56.107 -58.169  1.00  0.00     0.162 A 
HETATM    5  C   UNL     1     -44.084  56.494 -59.399  1.00  0.00     0.081 A 
HETATM    6  C   UNL     1     -44.006  57.890 -59.708  1.00  0.00     0.124 A 
HETATM    7  N   UNL     1     -43.808  54.756 -58.128  1.00  0.00    -0.260 N 
HETATM    8  H   UNL     1     -43.576  54.120 -57.372  1.00  0.00     0.191 HD
HETATM    9  N   UNL     1     -44.354  54.261 -59.259  1.00  0.00    -0.177 NA
HETATM   10  C   UNL     1     -44.521  55.332 -60.052  1.00  0.00     0.068 A 
HETATM   11  C   UNL     1     -45.096  55.152 -61.406  1.00  0.00     0.073 C 
ENDROOT
BRANCH   2  12
HETATM   12  S   UNL     1     -42.230  59.121 -56.199  1.00  0.00    -0.082 SA
BRANCH  12  13
HETATM   13  C   UNL     1     -43.368  58.827 -54.817  1.00  0.00     0.185 C 
BRANCH  13  14
HETATM   14  C   UNL     1     -42.959  57.610 -54.002  1.00  0.00     0.227 C 
HETATM   15  N   UNL     1     -43.671  56.466 -54.311  1.00  0.00    -0.360 N 
HETATM   16  H   UNL     1     -44.449  56.511 -54.956  1.00  0.00     0.162 HD
HETATM   17  O   UNL     1     -42.041  57.619 -53.186  1.00  0.00    -0.273 OA
BRANCH  15  18
HETATM   18  C   UNL     1     -43.332  55.172 -53.747  1.00  0.00     0.127 C 
BRANCH  18  19
HETATM   19  C   UNL     1     -42.445  54.332 -54.669  1.00  0.00     0.058 C 
BRANCH  19  20
HETATM   20  C   UNL     1     -41.541  53.424 -53.869  1.00  0.00    -0.054 A 
HETATM   21  C   UNL     1     -41.131  53.790 -52.578  1.00  0.00     0.046 A 
HETATM   22  C   UNL     1     -40.254  52.979 -51.846  1.00  0.00     0.102 A 
HETATM   23  C   UNL     1     -39.776  51.781 -52.414  1.00  0.00     0.101 A 
HETATM   24  C   UNL     1     -40.188  51.416 -53.699  1.00  0.00     0.040 A 
HETATM   25  C   UNL     1     -41.062  52.233 -54.422  1.00  0.00     0.010 A 
BRANCH  22  26
HETATM   26  O   UNL     1     -39.799  53.270 -50.583  1.00  0.00    -0.353 OA
HETATM   27  C   UNL     1     -40.756  53.668 -49.613  1.00  0.00     0.210 C 
ENDBRANCH  22  26
BRANCH  23  28
HETATM   28  O   UNL     1     -38.914  51.046 -51.636  1.00  0.00    -0.353 OA
HETATM   29  C   UNL     1     -39.431  49.895 -50.985  1.00  0.00     0.210 C 
ENDBRANCH  23  28
ENDBRANCH  19  20
ENDBRANCH  18  19
ENDBRANCH  15  18
ENDBRANCH  13  14
ENDBRANCH  12  13
ENDBRANCH   2  12
BRANCH   1  30
HETATM   30  C   UNL     1     -43.213  60.130 -58.939  1.00  0.00     0.045 A 
HETATM   31  C   UNL     1     -42.047  60.608 -59.548  1.00  0.00     0.054 A 
HETATM   32  C   UNL     1     -41.839  61.983 -59.703  1.00  0.00     0.042 A 
HETATM   33  C   UNL     1     -42.785  62.910 -59.238  1.00  0.00    -0.040 A 
HETATM   34 CL   UNL     1     -40.374  62.493 -60.463  1.00  0.00    -0.084 Cl
HETATM   35  C   UNL     1     -42.587  64.393 -59.386  1.00  0.00     0.050 C 
HETATM   36  C   UNL     1     -43.954  62.427 -58.633  1.00  0.00     0.011 A 
HETATM   37  C   UNL     1     -44.165  61.054 -58.484  1.00  0.00     0.031 A 
ENDBRANCH   1  30
BRANCH   6  38
HETATM   38  N   UNL     1     -44.494  58.364 -60.838  1.00  0.00    -0.384 N 
HETATM   39  H   UNL     1     -45.056  57.797 -61.457  1.00  0.00     0.157 HD
HETATM   40  H   UNL     1     -44.337  59.331 -61.093  1.00  0.00     0.157 HD
ENDBRANCH   6  38
TORSDOF 10
ENDMDL
MODEL 5
REMARK VINA RESULT:      -8.0      2.683      4.965
REMARK  10 active torsions:
REMARK  status: ('A' for Active; 'I' for Inactive)
REMARK    1  A    between atoms: C_6  and  N_7 
REMARK    2  A    between atoms: C_8  and  S_9 
REMARK    3  A    between atoms: S_9  and  C_10 
REMARK    4  A    between atoms: C_10  and  C_11 
REMARK       I    between atoms: C_11  and  N_12 
REMARK    5  A    between atoms: N_12  and  C_13 
REMARK    6  A    between atoms: C_13  and  C_14 
REMARK    7  A    between atoms: C_14  and  C_15 
REMARK    8  A    between atoms: C_17  and  O_18 
REMARK    9  A    between atoms: C_20  and  O_21 
REMARK   10  A    between atoms: C_29  and  N_30 
ROOT
HETATM    1  N   UNL     1     -42.372  58.467 -56.033  1.00  0.00    -0.276 N 
HETATM    2  C   UNL     1     -42.979  57.242 -56.431  1.00  0.00     0.177 A 
HETATM    3  N   UNL     1     -43.319  56.925 -57.658  1.00  0.00    -0.204 NA
HETATM    4  C   UNL     1     -43.020  57.869 -58.576  1.00  0.00     0.162 A 
HETATM    5  C   UNL     1     -42.444  59.096 -58.401  1.00  0.00     0.081 A 
HETATM    6  C   UNL     1     -42.107  59.467 -57.060  1.00  0.00     0.124 A 
HETATM    7  N   UNL     1     -43.234  57.759 -59.918  1.00  0.00    -0.260 N 
HETATM    8  H   UNL     1     -43.640  56.978 -60.422  1.00  0.00     0.191 HD
HETATM    9  N   UNL     1     -42.831  58.848 -60.608  1.00  0.00    -0.177 NA
HETATM   10  C   UNL     1     -42.334  59.676 -59.674  1.00  0.00     0.068 A 
HETATM   11  C   UNL     1     -41.778  60.986 -60.086  1.00  0.00     0.073 C 
ENDROOT
BRANCH   2  12
HETATM   12  S   UNL     1     -43.315  55.987 -55.215  1.00  0.00    -0.082 SA
BRANCH  12  13
HETATM   13  C   UNL     1     -44.536  56.836 -54.176  1.00  0.00     0.185 C 
BRANCH  13  14
HETATM   14  C   UNL     1     -44.202  56.706 -52.697  1.00  0.00     0.227 C 
HETATM   15  N   UNL     1     -43.543  55.535 -52.375  1.00  0.00    -0.360 N 
HETATM   16  H   UNL     1     -43.407  54.819 -53.076  1.00  0.00     0.162 HD
HETATM   17  O   UNL     1     -44.439  57.583 -51.871  1.00  0.00    -0.273 OA
BRANCH  15  18
HETATM   18  C   UNL     1     -43.013  55.291 -51.046  1.00  0.00     0.127 C 
BRANCH  18  19
HETATM   19  C   UNL     1     -41.483  55.277 -51.005  1.00  0.00     0.058 C 
BRANCH  19  20
HETATM   20  C   UNL     1     -40.931  54.111 -51.790  1.00  0.00    -0.054 A 
HETATM   21  C   UNL     1     -40.359  53.015 -51.124  1.00  0.00     0.046 A 
HETATM   22  C   UNL     1     -39.801  51.950 -51.841  1.00  0.00     0.102 A 
HETATM   23  C   UNL     1     -39.812  51.978 -53.251  1.00  0.00     0.101 A 
HETATM   24  C   UNL     1     -40.385  53.068 -53.912  1.00  0.00     0.040 A 
HETATM   25  C   UNL     1     -40.939  54.127 -53.187  1.00  0.00     0.010 A 
BRANCH  22  26
HETATM   26  O   UNL     1     -39.216  50.848 -51.266  1.00  0.00    -0.353 OA
HETATM   27  C   UNL     1     -40.040  49.993 -50.490  1.00  0.00     0.210 C 
ENDBRANCH  22  26
BRANCH  23  28
HETATM   28  O   UNL     1     -39.239  50.901 -53.881  1.00  0.00    -0.353 OA
HETATM   29  C   UNL     1     -40.105  49.938 -54.463  1.00  0.00     0.210 C 
ENDBRANCH  23  28
ENDBRANCH  19  20
ENDBRANCH  18  19
ENDBRANCH  15  18
ENDBRANCH  13  14
ENDBRANCH  12  13
ENDBRANCH   2  12
BRANCH   1  30
HETATM   30  C   UNL     1     -42.003  58.722 -54.679  1.00  0.00     0.045 A 
HETATM   31  C   UNL     1     -42.587  59.766 -53.953  1.00  0.00     0.054 A 
HETATM   32  C   UNL     1     -42.148  60.063 -52.657  1.00  0.00     0.042 A 
HETATM   33  C   UNL     1     -41.105  59.333 -52.068  1.00  0.00    -0.040 A 
HETATM   34 CL   UNL     1     -42.919  61.368 -51.828  1.00  0.00    -0.084 Cl
HETATM   35  C   UNL     1     -40.608  59.633 -50.680  1.00  0.00     0.050 C 
HETATM   36  C   UNL     1     -40.525  58.285 -52.796  1.00  0.00     0.011 A 
HETATM   37  C   UNL     1     -40.967  57.984 -54.087  1.00  0.00     0.031 A 
ENDBRANCH   1  30
BRANCH   6  38
HETATM   38  N   UNL     1     -41.621  60.664 -56.789  1.00  0.00    -0.384 N 
HETATM   39  H   UNL     1     -40.677  60.795 -56.456  1.00  0.00     0.157 HD
HETATM   40  H   UNL     1     -42.189  61.489 -56.942  1.00  0.00     0.157 HD
ENDBRANCH   6  38
TORSDOF 10
ENDMDL
MODEL 6
REMARK VINA RESULT:      -8.0      4.460      7.025
REMARK  10 active torsions:
REMARK  status: ('A' for Active; 'I' for Inactive)
REMARK    1  A    between atoms: C_6  and  N_7 
REMARK    2  A    between atoms: C_8  and  S_9 
REMARK    3  A    between atoms: S_9  and  C_10 
REMARK    4  A    between atoms: C_10  and  C_11 
REMARK       I    between atoms: C_11  and  N_12 
REMARK    5  A    between atoms: N_12  and  C_13 
REMARK    6  A    between atoms: C_13  and  C_14 
REMARK    7  A    between atoms: C_14  and  C_15 
REMARK    8  A    between atoms: C_17  and  O_18 
REMARK    9  A    between atoms: C_20  and  O_21 
REMARK   10  A    between atoms: C_29  and  N_30 
ROOT
HETATM    1  N   UNL     1     -43.692  59.543 -51.999  1.00  0.00    -0.276 N 
HETATM    2  C   UNL     1     -43.557  59.949 -53.356  1.00  0.00     0.177 A 
HETATM    3  N   UNL     1     -44.175  60.964 -53.913  1.00  0.00    -0.204 NA
HETATM    4  C   UNL     1     -44.971  61.655 -53.070  1.00  0.00     0.162 A 
HETATM    5  C   UNL     1     -45.235  61.432 -51.747  1.00  0.00     0.081 A 
HETATM    6  C   UNL     1     -44.596  60.302 -51.142  1.00  0.00     0.124 A 
HETATM    7  N   UNL     1     -45.685  62.770 -53.395  1.00  0.00    -0.260 N 
HETATM    8  H   UNL     1     -45.729  63.241 -54.293  1.00  0.00     0.191 HD
HETATM    9  N   UNL     1     -46.390  63.269 -52.357  1.00  0.00    -0.177 NA
HETATM   10  C   UNL     1     -46.109  62.448 -51.332  1.00  0.00     0.068 A 
HETATM   11  C   UNL     1     -46.713  62.709 -50.004  1.00  0.00     0.073 C 
ENDROOT
BRANCH   2  12
HETATM   12  S   UNL     1     -42.460  59.059 -54.440  1.00  0.00    -0.082 SA
BRANCH  12  13
HETATM   13  C   UNL     1     -43.646  58.325 -55.599  1.00  0.00     0.185 C 
BRANCH  13  14
HETATM   14  C   UNL     1     -43.255  56.905 -55.979  1.00  0.00     0.227 C 
HETATM   15  N   UNL     1     -43.024  56.080 -54.894  1.00  0.00    -0.360 N 
HETATM   16  H   UNL     1     -43.030  56.460 -53.957  1.00  0.00     0.162 HD
HETATM   17  O   UNL     1     -43.207  56.503 -57.139  1.00  0.00    -0.273 OA
BRANCH  15  18
HETATM   18  C   UNL     1     -42.781  54.657 -55.046  1.00  0.00     0.127 C 
BRANCH  18  19
HETATM   19  C   UNL     1     -41.312  54.327 -55.319  1.00  0.00     0.058 C 
BRANCH  19  20
HETATM   20  C   UNL     1     -40.730  53.485 -54.208  1.00  0.00    -0.054 A 
HETATM   21  C   UNL     1     -40.299  52.174 -54.464  1.00  0.00     0.046 A 
HETATM   22  C   UNL     1     -39.802  51.368 -53.432  1.00  0.00     0.102 A 
HETATM   23  C   UNL     1     -39.736  51.878 -52.120  1.00  0.00     0.101 A 
HETATM   24  C   UNL     1     -40.163  53.185 -51.868  1.00  0.00     0.040 A 
HETATM   25  C   UNL     1     -40.658  53.982 -52.904  1.00  0.00     0.010 A 
BRANCH  22  26
HETATM   26  O   UNL     1     -39.369  50.074 -53.598  1.00  0.00    -0.353 OA
HETATM   27  C   UNL     1     -39.625  49.447 -54.845  1.00  0.00     0.210 C 
ENDBRANCH  22  26
BRANCH  23  28
HETATM   28  O   UNL     1     -39.245  51.023 -51.164  1.00  0.00    -0.353 OA
HETATM   29  C   UNL     1     -40.177  50.405 -50.288  1.00  0.00     0.210 C 
ENDBRANCH  23  28
ENDBRANCH  19  20
ENDBRANCH  18  19
ENDBRANCH  15  18
ENDBRANCH  13  14
ENDBRANCH  12  13
ENDBRANCH   2  12
BRANCH   1  30
HETATM   30  C   UNL     1     -42.957  58.444 -51.462  1.00  0.00     0.045 A 
HETATM   31  C   UNL     1     -43.523  57.167 -51.376  1.00  0.00     0.054 A 
HETATM   32  C   UNL     1     -42.825  56.121 -50.762  1.00  0.00     0.042 A 
HETATM   33  C   UNL     1     -41.554  56.335 -50.206  1.00  0.00    -0.040 A 
HETATM   34 CL   UNL     1     -43.592  54.575 -50.695  1.00  0.00    -0.084 Cl
HETATM   35  C   UNL     1     -40.783  55.231 -49.535  1.00  0.00     0.050 C 
HETATM   36  C   UNL     1     -40.989  57.614 -50.297  1.00  0.00     0.011 A 
HETATM   37  C   UNL     1     -41.683  58.657 -50.916  1.00  0.00     0.031 A 
ENDBRANCH   1  30
BRANCH   6  38
HETATM   38  N   UNL     1     -44.854  59.965 -49.893  1.00  0.00    -0.384 N 
HETATM   39  H   UNL     1     -44.132  59.935 -49.187  1.00  0.00     0.157 HD
HETATM   40  H   UNL     1     -45.804  59.755 -49.609  1.00  0.00     0.157 HD
ENDBRANCH   6  38
TORSDOF 10
ENDMDL
MODEL 7
REMARK VINA RESULT:      -7.9      1.686      2.228
REMARK  10 active torsions:
REMARK  status: ('A' for Active; 'I' for Inactive)
REMARK    1  A    between atoms: C_6  and  N_7 
REMARK    2  A    between atoms: C_8  and  S_9 
REMARK    3  A    between atoms: S_9  and  C_10 
REMARK    4  A    between atoms: C_10  and  C_11 
REMARK       I    between atoms: C_11  and  N_12 
REMARK    5  A    between atoms: N_12  and  C_13 
REMARK    6  A    between atoms: C_13  and  C_14 
REMARK    7  A    between atoms: C_14  and  C_15 
REMARK    8  A    between atoms: C_17  and  O_18 
REMARK    9  A    between atoms: C_20  and  O_21 
REMARK   10  A    between atoms: C_29  and  N_30 
ROOT
HETATM    1  N   UNL     1     -42.600  59.682 -59.530  1.00  0.00    -0.276 N 
HETATM    2  C   UNL     1     -42.752  60.349 -58.282  1.00  0.00     0.177 A 
HETATM    3  N   UNL     1     -42.312  61.555 -58.005  1.00  0.00    -0.204 NA
HETATM    4  C   UNL     1     -41.698  62.169 -59.038  1.00  0.00     0.162 A 
HETATM    5  C   UNL     1     -41.453  61.707 -60.301  1.00  0.00     0.081 A 
HETATM    6  C   UNL     1     -41.893  60.377 -60.599  1.00  0.00     0.124 A 
HETATM    7  N   UNL     1     -41.194  63.436 -59.015  1.00  0.00    -0.260 N 
HETATM    8  H   UNL     1     -41.201  64.095 -58.244  1.00  0.00     0.191 HD
HETATM    9  N   UNL     1     -40.640  63.806 -60.190  1.00  0.00    -0.177 NA
HETATM   10  C   UNL     1     -40.805  62.741 -60.992  1.00  0.00     0.068 A 
HETATM   11  C   UNL     1     -40.318  62.802 -62.391  1.00  0.00     0.073 C 
ENDROOT
BRANCH   2  12
HETATM   12  S   UNL     1     -43.614  59.545 -56.949  1.00  0.00    -0.082 SA
BRANCH  12  13
HETATM   13  C   UNL     1     -42.231  58.770 -56.067  1.00  0.00     0.185 C 
BRANCH  13  14
HETATM   14  C   UNL     1     -42.619  57.414 -55.496  1.00  0.00     0.227 C 
HETATM   15  N   UNL     1     -41.913  56.357 -56.039  1.00  0.00    -0.360 N 
HETATM   16  H   UNL     1     -41.279  56.514 -56.812  1.00  0.00     0.162 HD
HETATM   17  O   UNL     1     -43.438  57.269 -54.592  1.00  0.00    -0.273 OA
BRANCH  15  18
HETATM   18  C   UNL     1     -42.034  55.005 -55.526  1.00  0.00     0.127 C 
BRANCH  18  19
HETATM   19  C   UNL     1     -40.791  54.540 -54.764  1.00  0.00     0.058 C 
BRANCH  19  20
HETATM   20  C   UNL     1     -41.038  54.541 -53.274  1.00  0.00    -0.054 A 
HETATM   21  C   UNL     1     -41.094  55.751 -52.565  1.00  0.00     0.046 A 
HETATM   22  C   UNL     1     -41.275  55.761 -51.176  1.00  0.00     0.102 A 
HETATM   23  C   UNL     1     -41.399  54.541 -50.481  1.00  0.00     0.101 A 
HETATM   24  C   UNL     1     -41.346  53.338 -51.189  1.00  0.00     0.040 A 
HETATM   25  C   UNL     1     -41.164  53.337 -52.575  1.00  0.00     0.010 A 
BRANCH  22  26
HETATM   26  O   UNL     1     -41.332  56.900 -50.410  1.00  0.00    -0.353 OA
HETATM   27  C   UNL     1     -41.965  58.041 -50.969  1.00  0.00     0.210 C 
ENDBRANCH  22  26
BRANCH  23  28
HETATM   28  O   UNL     1     -41.565  54.636 -49.121  1.00  0.00    -0.353 OA
HETATM   29  C   UNL     1     -40.582  54.035 -48.292  1.00  0.00     0.210 C 
ENDBRANCH  23  28
ENDBRANCH  19  20
ENDBRANCH  18  19
ENDBRANCH  15  18
ENDBRANCH  13  14
ENDBRANCH  12  13
ENDBRANCH   2  12
BRANCH   1  30
HETATM   30  C   UNL     1     -43.137  58.380 -59.761  1.00  0.00     0.045 A 
HETATM   31  C   UNL     1     -44.479  58.202 -60.117  1.00  0.00     0.054 A 
HETATM   32  C   UNL     1     -45.013  56.916 -60.250  1.00  0.00     0.042 A 
HETATM   33  C   UNL     1     -44.223  55.781 -60.012  1.00  0.00    -0.040 A 
HETATM   34 CL   UNL     1     -46.678  56.780 -60.691  1.00  0.00    -0.084 Cl
HETATM   35  C   UNL     1     -44.771  54.387 -60.142  1.00  0.00     0.050 C 
HETATM   36  C   UNL     1     -42.878  55.963 -59.661  1.00  0.00     0.011 A 
HETATM   37  C   UNL     1     -42.341  57.247 -59.534  1.00  0.00     0.031 A 
ENDBRANCH   1  30
BRANCH   6  38
HETATM   38  N   UNL     1     -41.629  59.820 -61.767  1.00  0.00    -0.384 N 
HETATM   39  H   UNL     1     -40.792  60.040 -62.287  1.00  0.00     0.157 HD
HETATM   40  H   UNL     1     -42.260  59.127 -62.152  1.00  0.00     0.157 HD
ENDBRANCH   6  38
TORSDOF 10
ENDMDL
MODEL 8
REMARK VINA RESULT:      -7.7      1.313      2.289
REMARK  10 active torsions:
REMARK  status: ('A' for Active; 'I' for Inactive)
REMARK    1  A    between atoms: C_6  and  N_7 
REMARK    2  A    between atoms: C_8  and  S_9 
REMARK    3  A    between atoms: S_9  and  C_10 
REMARK    4  A    between atoms: C_10  and  C_11 
REMARK       I    between atoms: C_11  and  N_12 
REMARK    5  A    between atoms: N_12  and  C_13 
REMARK    6  A    between atoms: C_13  and  C_14 
REMARK    7  A    between atoms: C_14  and  C_15 
REMARK    8  A    between atoms: C_17  and  O_18 
REMARK    9  A    between atoms: C_20  and  O_21 
REMARK   10  A    between atoms: C_29  and  N_30 
ROOT
HETATM    1  N   UNL     1     -42.066  59.686 -59.380  1.00  0.00    -0.276 N 
HETATM    2  C   UNL     1     -41.768  60.095 -58.050  1.00  0.00     0.177 A 
HETATM    3  N   UNL     1     -41.152  61.204 -57.714  1.00  0.00    -0.204 NA
HETATM    4  C   UNL     1     -40.822  61.990 -58.760  1.00  0.00     0.162 A 
HETATM    5  C   UNL     1     -41.016  61.783 -60.097  1.00  0.00     0.081 A 
HETATM    6  C   UNL     1     -41.651  60.557 -60.475  1.00  0.00     0.124 A 
HETATM    7  N   UNL     1     -40.215  63.208 -58.670  1.00  0.00    -0.260 N 
HETATM    8  H   UNL     1     -39.925  63.699 -57.830  1.00  0.00     0.191 HD
HETATM    9  N   UNL     1     -40.009  63.787 -59.873  1.00  0.00    -0.177 NA
HETATM   10  C   UNL     1     -40.510  62.911 -60.760  1.00  0.00     0.068 A 
HETATM   11  C   UNL     1     -40.466  63.234 -62.205  1.00  0.00     0.073 C 
ENDROOT
BRANCH   2  12
HETATM   12  S   UNL     1     -42.261  59.071 -56.680  1.00  0.00    -0.082 SA
BRANCH  12  13
HETATM   13  C   UNL     1     -42.397  60.308 -55.361  1.00  0.00     0.185 C 
BRANCH  13  14
HETATM   14  C   UNL     1     -42.617  59.659 -54.002  1.00  0.00     0.227 C 
HETATM   15  N   UNL     1     -43.514  58.608 -54.024  1.00  0.00    -0.360 N 
HETATM   16  H   UNL     1     -44.026  58.394 -54.870  1.00  0.00     0.162 HD
HETATM   17  O   UNL     1     -42.010  59.992 -52.987  1.00  0.00    -0.273 OA
BRANCH  15  18
HETATM   18  C   UNL     1     -43.749  57.772 -52.861  1.00  0.00     0.127 C 
BRANCH  18  19
HETATM   19  C   UNL     1     -43.419  56.298 -53.109  1.00  0.00     0.058 C 
BRANCH  19  20
HETATM   20  C   UNL     1     -42.427  55.786 -52.092  1.00  0.00    -0.054 A 
HETATM   21  C   UNL     1     -41.640  54.659 -52.374  1.00  0.00     0.046 A 
HETATM   22  C   UNL     1     -40.751  54.147 -51.420  1.00  0.00     0.102 A 
HETATM   23  C   UNL     1     -40.646  54.771 -50.160  1.00  0.00     0.101 A 
HETATM   24  C   UNL     1     -41.428  55.896 -49.882  1.00  0.00     0.040 A 
HETATM   25  C   UNL     1     -42.313  56.398 -50.840  1.00  0.00     0.010 A 
BRANCH  22  26
HETATM   26  O   UNL     1     -39.954  53.045 -51.614  1.00  0.00    -0.353 OA
HETATM   27  C   UNL     1     -40.084  52.345 -52.842  1.00  0.00     0.210 C 
ENDBRANCH  22  26
BRANCH  23  28
HETATM   28  O   UNL     1     -39.759  54.204 -49.278  1.00  0.00    -0.353 OA
HETATM   29  C   UNL     1     -40.215  53.943 -47.958  1.00  0.00     0.210 C 
ENDBRANCH  23  28
ENDBRANCH  19  20
ENDBRANCH  18  19
ENDBRANCH  15  18
ENDBRANCH  13  14
ENDBRANCH  12  13
ENDBRANCH   2  12
BRANCH   1  30
HETATM   30  C   UNL     1     -42.770  58.478 -59.660  1.00  0.00     0.045 A 
HETATM   31  C   UNL     1     -44.169  58.449 -59.713  1.00  0.00     0.054 A 
HETATM   32  C   UNL     1     -44.848  57.239 -59.897  1.00  0.00     0.042 A 
HETATM   33  C   UNL     1     -44.144  56.031 -60.013  1.00  0.00    -0.040 A 
HETATM   34 CL   UNL     1     -46.574  57.288 -59.950  1.00  0.00    -0.084 Cl
HETATM   35  C   UNL     1     -44.847  54.715 -60.206  1.00  0.00     0.050 C 
HETATM   36  C   UNL     1     -42.744  56.064 -59.965  1.00  0.00     0.011 A 
HETATM   37  C   UNL     1     -42.064  57.272 -59.788  1.00  0.00     0.031 A 
ENDBRANCH   1  30
BRANCH   6  38
HETATM   38  N   UNL     1     -41.808  60.236 -61.746  1.00  0.00    -0.384 N 
HETATM   39  H   UNL     1     -41.647  59.299 -62.085  1.00  0.00     0.157 HD
HETATM   40  H   UNL     1     -42.128  60.932 -62.409  1.00  0.00     0.157 HD
ENDBRANCH   6  38
TORSDOF 10
ENDMDL
MODEL 9
REMARK VINA RESULT:      -7.7      2.700      4.964
REMARK  10 active torsions:
REMARK  status: ('A' for Active; 'I' for Inactive)
REMARK    1  A    between atoms: C_6  and  N_7 
REMARK    2  A    between atoms: C_8  and  S_9 
REMARK    3  A    between atoms: S_9  and  C_10 
REMARK    4  A    between atoms: C_10  and  C_11 
REMARK       I    between atoms: C_11  and  N_12 
REMARK    5  A    between atoms: N_12  and  C_13 
REMARK    6  A    between atoms: C_13  and  C_14 
REMARK    7  A    between atoms: C_14  and  C_15 
REMARK    8  A    between atoms: C_17  and  O_18 
REMARK    9  A    between atoms: C_20  and  O_21 
REMARK   10  A    between atoms: C_29  and  N_30 
ROOT
HETATM    1  N   UNL     1     -44.012  59.051 -59.923  1.00  0.00    -0.276 N 
HETATM    2  C   UNL     1     -43.704  57.971 -59.049  1.00  0.00     0.177 A 
HETATM    3  N   UNL     1     -44.454  56.913 -58.851  1.00  0.00    -0.204 NA
HETATM    4  C   UNL     1     -45.586  56.894 -59.587  1.00  0.00     0.162 A 
HETATM    5  C   UNL     1     -46.060  57.820 -60.473  1.00  0.00     0.081 A 
HETATM    6  C   UNL     1     -45.268  58.997 -60.664  1.00  0.00     0.124 A 
HETATM    7  N   UNL     1     -46.506  55.887 -59.592  1.00  0.00    -0.260 N 
HETATM    8  H   UNL     1     -46.486  55.022 -59.061  1.00  0.00     0.191 HD
HETATM    9  N   UNL     1     -47.540  56.120 -60.429  1.00  0.00    -0.177 NA
HETATM   10  C   UNL     1     -47.265  57.313 -60.982  1.00  0.00     0.068 A 
HETATM   11  C   UNL     1     -48.200  57.884 -61.981  1.00  0.00     0.073 C 
ENDROOT
BRANCH   2  12
HETATM   12  S   UNL     1     -42.181  57.987 -58.128  1.00  0.00    -0.082 SA
BRANCH  12  13
HETATM   13  C   UNL     1     -42.704  58.839 -56.615  1.00  0.00     0.185 C 
BRANCH  13  14
HETATM   14  C   UNL     1     -42.776  57.887 -55.430  1.00  0.00     0.227 C 
HETATM   15  N   UNL     1     -43.446  56.709 -55.701  1.00  0.00    -0.360 N 
HETATM   16  H   UNL     1     -43.913  56.582 -56.590  1.00  0.00     0.162 HD
HETATM   17  O   UNL     1     -42.238  58.111 -54.349  1.00  0.00    -0.273 OA
BRANCH  15  18
HETATM   18  C   UNL     1     -43.497  55.616 -54.748  1.00  0.00     0.127 C 
BRANCH  18  19
HETATM   19  C   UNL     1     -42.853  54.331 -55.276  1.00  0.00     0.058 C 
BRANCH  19  20
HETATM   20  C   UNL     1     -42.004  53.675 -54.213  1.00  0.00    -0.054 A 
HETATM   21  C   UNL     1     -42.210  53.972 -52.857  1.00  0.00     0.046 A 
HETATM   22  C   UNL     1     -41.398  53.406 -51.866  1.00  0.00     0.102 A 
HETATM   23  C   UNL     1     -40.359  52.527 -52.235  1.00  0.00     0.101 A 
HETATM   24  C   UNL     1     -40.158  52.229 -53.586  1.00  0.00     0.040 A 
HETATM   25  C   UNL     1     -40.973  52.800 -54.567  1.00  0.00     0.010 A 
BRANCH  22  26
HETATM   26  O   UNL     1     -41.528  53.653 -50.521  1.00  0.00    -0.353 OA
HETATM   27  C   UNL     1     -41.845  54.978 -50.121  1.00  0.00     0.210 C 
ENDBRANCH  22  26
BRANCH  23  28
HETATM   28  O   UNL     1     -39.603  52.021 -51.206  1.00  0.00    -0.353 OA
HETATM   29  C   UNL     1     -39.599  50.613 -51.021  1.00  0.00     0.210 C 
ENDBRANCH  23  28
ENDBRANCH  19  20
ENDBRANCH  18  19
ENDBRANCH  15  18
ENDBRANCH  13  14
ENDBRANCH  12  13
ENDBRANCH   2  12
BRANCH   1  30
HETATM   30  C   UNL     1     -43.125  60.153 -60.106  1.00  0.00     0.045 A 
HETATM   31  C   UNL     1     -43.219  61.299 -59.307  1.00  0.00     0.054 A 
HETATM   32  C   UNL     1     -42.404  62.408 -59.559  1.00  0.00     0.042 A 
HETATM   33  C   UNL     1     -41.491  62.401 -60.624  1.00  0.00    -0.040 A 
HETATM   34 CL   UNL     1     -42.581  63.784 -58.529  1.00  0.00    -0.084 Cl
HETATM   35  C   UNL     1     -40.606  63.581 -60.922  1.00  0.00     0.050 C 
HETATM   36  C   UNL     1     -41.396  61.251 -61.419  1.00  0.00     0.011 A 
HETATM   37  C   UNL     1     -42.205  60.140 -61.164  1.00  0.00     0.031 A 
ENDBRANCH   1  30
BRANCH   6  38
HETATM   38  N   UNL     1     -45.687  59.979 -61.440  1.00  0.00    -0.384 N 
HETATM   39  H   UNL     1     -45.945  59.826 -62.403  1.00  0.00     0.157 HD
HETATM   40  H   UNL     1     -45.786  60.915 -61.064  1.00  0.00     0.157 HD
ENDBRANCH   6  38
TORSDOF 10
ENDMDL
MODEL 10
REMARK VINA RESULT:      -7.6      1.516      2.302
REMARK  10 active torsions:
REMARK  status: ('A' for Active; 'I' for Inactive)
REMARK    1  A    between atoms: C_6  and  N_7 
REMARK    2  A    between atoms: C_8  and  S_9 
REMARK    3  A    between atoms: S_9  and  C_10 
REMARK    4  A    between atoms: C_10  and  C_11 
REMARK       I    between atoms: C_11  and  N_12 
REMARK    5  A    between atoms: N_12  and  C_13 
REMARK    6  A    between atoms: C_13  and  C_14 
REMARK    7  A    between atoms: C_14  and  C_15 
REMARK    8  A    between atoms: C_17  and  O_18 
REMARK    9  A    between atoms: C_20  and  O_21 
REMARK   10  A    between atoms: C_29  and  N_30 
ROOT
HETATM    1  N   UNL     1     -42.767  60.380 -59.084  1.00  0.00    -0.276 N 
HETATM    2  C   UNL     1     -42.681  60.957 -57.787  1.00  0.00     0.177 A 
HETATM    3  N   UNL     1     -41.879  61.936 -57.441  1.00  0.00    -0.204 NA
HETATM    4  C   UNL     1     -41.117  62.409 -58.450  1.00  0.00     0.162 A 
HETATM    5  C   UNL     1     -41.050  61.997 -59.752  1.00  0.00     0.081 A 
HETATM    6  C   UNL     1     -41.892  60.902 -60.128  1.00  0.00     0.124 A 
HETATM    7  N   UNL     1     -40.238  63.447 -58.355  1.00  0.00    -0.260 N 
HETATM    8  H   UNL     1     -40.025  64.009 -57.538  1.00  0.00     0.191 HD
HETATM    9  N   UNL     1     -39.613  63.719 -59.521  1.00  0.00    -0.177 NA
HETATM   10  C   UNL     1     -40.118  62.829 -60.391  1.00  0.00     0.068 A 
HETATM   11  C   UNL     1     -39.658  62.847 -61.799  1.00  0.00     0.073 C 
ENDROOT
BRANCH   2  12
HETATM   12  S   UNL     1     -43.734  60.359 -56.482  1.00  0.00    -0.082 SA
BRANCH  12  13
HETATM   13  C   UNL     1     -42.561  59.352 -55.532  1.00  0.00     0.185 C 
BRANCH  13  14
HETATM   14  C   UNL     1     -43.232  58.126 -54.930  1.00  0.00     0.227 C 
HETATM   15  N   UNL     1     -42.356  57.097 -54.638  1.00  0.00    -0.360 N 
HETATM   16  H   UNL     1     -41.384  57.165 -54.911  1.00  0.00     0.162 HD
HETATM   17  O   UNL     1     -44.431  58.070 -54.668  1.00  0.00    -0.273 OA
BRANCH  15  18
HETATM   18  C   UNL     1     -42.779  55.904 -53.929  1.00  0.00     0.127 C 
BRANCH  18  19
HETATM   19  C   UNL     1     -42.400  54.611 -54.655  1.00  0.00     0.058 C 
BRANCH  19  20
HETATM   20  C   UNL     1     -41.508  53.748 -53.793  1.00  0.00    -0.054 A 
HETATM   21  C   UNL     1     -40.721  52.741 -54.373  1.00  0.00     0.046 A 
HETATM   22  C   UNL     1     -39.927  51.903 -53.579  1.00  0.00     0.102 A 
HETATM   23  C   UNL     1     -39.919  52.073 -52.180  1.00  0.00     0.101 A 
HETATM   24  C   UNL     1     -40.701  53.079 -51.605  1.00  0.00     0.040 A 
HETATM   25  C   UNL     1     -41.491  53.909 -52.405  1.00  0.00     0.010 A 
BRANCH  22  26
HETATM   26  O   UNL     1     -39.138  50.890 -54.068  1.00  0.00    -0.353 OA
HETATM   27  C   UNL     1     -39.778  49.688 -54.464  1.00  0.00     0.210 C 
ENDBRANCH  22  26
BRANCH  23  28
HETATM   28  O   UNL     1     -39.121  51.208 -51.472  1.00  0.00    -0.353 OA
HETATM   29  C   UNL     1     -39.761  50.228 -50.667  1.00  0.00     0.210 C 
ENDBRANCH  23  28
ENDBRANCH  19  20
ENDBRANCH  18  19
ENDBRANCH  15  18
ENDBRANCH  13  14
ENDBRANCH  12  13
ENDBRANCH   2  12
BRANCH   1  30
HETATM   30  C   UNL     1     -43.691  59.336 -59.388  1.00  0.00     0.045 A 
HETATM   31  C   UNL     1     -43.316  57.990 -59.308  1.00  0.00     0.054 A 
HETATM   32  C   UNL     1     -44.204  56.981 -59.698  1.00  0.00     0.042 A 
HETATM   33  C   UNL     1     -45.479  57.297 -60.191  1.00  0.00    -0.040 A 
HETATM   34 CL   UNL     1     -43.666  55.345 -59.571  1.00  0.00    -0.084 Cl
HETATM   35  C   UNL     1     -46.452  56.235 -60.623  1.00  0.00     0.050 C 
HETATM   36  C   UNL     1     -45.853  58.646 -60.265  1.00  0.00     0.011 A 
HETATM   37  C   UNL     1     -44.969  59.654 -59.870  1.00  0.00     0.031 A 
ENDBRANCH   1  30
BRANCH   6  38
HETATM   38  N   UNL     1     -41.836  60.388 -61.342  1.00  0.00    -0.384 N 
HETATM   39  H   UNL     1     -42.446  60.700 -62.084  1.00  0.00     0.157 HD
HETATM   40  H   UNL     1     -41.145  59.680 -61.562  1.00  0.00     0.157 HD
ENDBRANCH   6  38
TORSDOF 10
ENDMDL
