MODEL 1
REMARK VINA RESULT:      -7.3      0.000      0.000
REMARK  8 active torsions:
REMARK  status: ('A' for Active; 'I' for Inactive)
REMARK    1  A    between atoms: C_2  and  N_3 
REMARK    2  A    between atoms: C_2  and  C_17 
REMARK    3  A    between atoms: N_3  and  C_6 
REMARK    4  A    between atoms: C_6  and  C_7 
REMARK    5  A    between atoms: C_7  and  O_8 
REMARK    6  A    between atoms: C_7  and  C_9 
REMARK    7  A    between atoms: C_11  and  O_12 
REMARK    8  A    between atoms: C_17  and  C_18 
ROOT
HETATM    1  N   UNL     1     -44.083  55.928 -54.017  1.00  0.00    -0.068 N 
HETATM    2  H   UNL     1     -43.581  55.040 -54.152  1.00  0.00     0.277 HD
HETATM    3  H   UNL     1     -45.082  55.649 -54.024  1.00  0.00     0.277 HD
ENDROOT
BRANCH   1   4
HETATM    4  C   UNL     1     -43.668  56.537 -52.699  1.00  0.00     0.188 C 
HETATM    5  C   UNL     1     -44.351  57.905 -52.619  1.00  0.00     0.040 C 
BRANCH   4   6
HETATM    6  C   UNL     1     -42.135  56.650 -52.604  1.00  0.00     0.099 C 
BRANCH   6   7
HETATM    7  C   UNL     1     -41.490  55.298 -52.604  1.00  0.00     0.078 A 
HETATM    8  S   UNL     1     -40.987  54.575 -51.135  1.00  0.00    -0.073 SA
HETATM    9  C   UNL     1     -40.441  53.191 -52.003  1.00  0.00     0.035 A 
HETATM   10  C   UNL     1     -40.675  53.390 -53.367  1.00  0.00     0.074 A 
HETATM   11  C   UNL     1     -39.849  52.015 -51.516  1.00  0.00     0.021 A 
HETATM   12  N   UNL     1     -41.268  54.602 -53.695  1.00  0.00    -0.245 NA
HETATM   13  C   UNL     1     -40.306  52.376 -54.273  1.00  0.00     0.033 A 
HETATM   14  C   UNL     1     -39.719  51.198 -53.797  1.00  0.00     0.002 A 
HETATM   15  C   UNL     1     -39.494  51.024 -52.435  1.00  0.00     0.002 A 
ENDBRANCH   6   7
ENDBRANCH   4   6
ENDBRANCH   1   4
BRANCH   1  16
HETATM   16  C   UNL     1     -43.877  56.760 -55.261  1.00  0.00     0.269 C 
BRANCH  16  17
HETATM   17  C   UNL     1     -42.916  55.985 -56.189  1.00  0.00     0.177 C 
BRANCH  17  18
HETATM   18  O   UNL     1     -43.327  54.607 -56.176  1.00  0.00    -0.389 OA
HETATM   19  H   UNL     1     -44.302  54.609 -56.076  1.00  0.00     0.210 HD
ENDBRANCH  17  18
BRANCH  17  20
HETATM   20  C   UNL     1     -42.890  56.546 -57.587  1.00  0.00    -0.025 A 
HETATM   21  C   UNL     1     -43.516  55.878 -58.658  1.00  0.00     0.046 A 
HETATM   22  C   UNL     1     -43.499  56.422 -59.944  1.00  0.00     0.068 A 
HETATM   23  C   UNL     1     -42.872  57.650 -60.160  1.00  0.00     0.037 A 
HETATM   24  C   UNL     1     -42.252  58.324 -59.110  1.00  0.00     0.003 A 
HETATM   25  C   UNL     1     -42.260  57.776 -57.829  1.00  0.00     0.010 A 
BRANCH  22  26
HETATM   26  O   UNL     1     -44.064  55.867 -61.057  1.00  0.00    -0.356 OA
HETATM   27  C   UNL     1     -44.984  54.802 -60.864  1.00  0.00     0.210 C 
ENDBRANCH  22  26
ENDBRANCH  17  20
ENDBRANCH  16  17
ENDBRANCH   1  16
TORSDOF 8
ENDMDL
MODEL 2
REMARK VINA RESULT:      -7.2      2.965      7.535
REMARK  8 active torsions:
REMARK  status: ('A' for Active; 'I' for Inactive)
REMARK    1  A    between atoms: C_2  and  N_3 
REMARK    2  A    between atoms: C_2  and  C_17 
REMARK    3  A    between atoms: N_3  and  C_6 
REMARK    4  A    between atoms: C_6  and  C_7 
REMARK    5  A    between atoms: C_7  and  O_8 
REMARK    6  A    between atoms: C_7  and  C_9 
REMARK    7  A    between atoms: C_11  and  O_12 
REMARK    8  A    between atoms: C_17  and  C_18 
ROOT
HETATM    1  N   UNL     1     -43.728  55.712 -55.094  1.00  0.00    -0.068 N 
HETATM    2  H   UNL     1     -44.621  55.528 -54.617  1.00  0.00     0.277 HD
HETATM    3  H   UNL     1     -43.951  55.566 -56.096  1.00  0.00     0.277 HD
ENDROOT
BRANCH   1   4
HETATM    4  C   UNL     1     -43.294  57.128 -54.804  1.00  0.00     0.188 C 
HETATM    5  C   UNL     1     -44.482  57.815 -54.124  1.00  0.00     0.040 C 
BRANCH   4   6
HETATM    6  C   UNL     1     -42.870  57.850 -56.097  1.00  0.00     0.099 C 
BRANCH   6   7
HETATM    7  C   UNL     1     -43.622  57.328 -57.282  1.00  0.00     0.078 A 
HETATM    8  S   UNL     1     -45.052  58.105 -57.816  1.00  0.00    -0.073 SA
HETATM    9  C   UNL     1     -45.198  56.958 -59.093  1.00  0.00     0.035 A 
HETATM   10  C   UNL     1     -44.139  56.049 -59.010  1.00  0.00     0.074 A 
HETATM   11  C   UNL     1     -46.177  56.868 -60.096  1.00  0.00     0.021 A 
HETATM   12  N   UNL     1     -43.252  56.269 -57.966  1.00  0.00    -0.245 NA
HETATM   13  C   UNL     1     -44.056  55.017 -59.965  1.00  0.00     0.033 A 
HETATM   14  C   UNL     1     -45.024  54.920 -60.971  1.00  0.00     0.002 A 
HETATM   15  C   UNL     1     -46.070  55.836 -61.032  1.00  0.00     0.002 A 
ENDBRANCH   6   7
ENDBRANCH   4   6
ENDBRANCH   1   4
BRANCH   1  16
HETATM   16  C   UNL     1     -42.774  54.603 -54.717  1.00  0.00     0.269 C 
BRANCH  16  17
HETATM   17  C   UNL     1     -42.572  54.658 -53.187  1.00  0.00     0.177 C 
BRANCH  17  18
HETATM   18  O   UNL     1     -43.850  54.399 -52.578  1.00  0.00    -0.389 OA
HETATM   19  H   UNL     1     -43.665  54.063 -51.677  1.00  0.00     0.210 HD
ENDBRANCH  17  18
BRANCH  17  20
HETATM   20  C   UNL     1     -41.521  53.690 -52.710  1.00  0.00    -0.025 A 
HETATM   21  C   UNL     1     -40.895  52.791 -53.595  1.00  0.00     0.046 A 
HETATM   22  C   UNL     1     -39.908  51.914 -53.139  1.00  0.00     0.068 A 
HETATM   23  C   UNL     1     -39.527  51.949 -51.798  1.00  0.00     0.037 A 
HETATM   24  C   UNL     1     -40.134  52.837 -50.911  1.00  0.00     0.003 A 
HETATM   25  C   UNL     1     -41.126  53.704 -51.363  1.00  0.00     0.010 A 
BRANCH  22  26
HETATM   26  O   UNL     1     -39.237  50.997 -53.897  1.00  0.00    -0.356 OA
HETATM   27  C   UNL     1     -39.995  49.943 -54.475  1.00  0.00     0.210 C 
ENDBRANCH  22  26
ENDBRANCH  17  20
ENDBRANCH  16  17
ENDBRANCH   1  16
TORSDOF 8
ENDMDL
MODEL 3
REMARK VINA RESULT:      -7.1      2.545      6.796
REMARK  8 active torsions:
REMARK  status: ('A' for Active; 'I' for Inactive)
REMARK    1  A    between atoms: C_2  and  N_3 
REMARK    2  A    between atoms: C_2  and  C_17 
REMARK    3  A    between atoms: N_3  and  C_6 
REMARK    4  A    between atoms: C_6  and  C_7 
REMARK    5  A    between atoms: C_7  and  O_8 
REMARK    6  A    between atoms: C_7  and  C_9 
REMARK    7  A    between atoms: C_11  and  O_12 
REMARK    8  A    between atoms: C_17  and  C_18 
ROOT
HETATM    1  N   UNL     1     -41.934  55.590 -56.201  1.00  0.00    -0.068 N 
HETATM    2  H   UNL     1     -41.198  55.478 -56.911  1.00  0.00     0.277 HD
HETATM    3  H   UNL     1     -41.544  56.300 -55.553  1.00  0.00     0.277 HD
ENDROOT
BRANCH   1   4
HETATM    4  C   UNL     1     -43.201  56.062 -56.872  1.00  0.00     0.188 C 
HETATM    5  C   UNL     1     -42.837  56.353 -58.331  1.00  0.00     0.040 C 
BRANCH   4   6
HETATM    6  C   UNL     1     -43.772  57.303 -56.160  1.00  0.00     0.099 C 
BRANCH   6   7
HETATM    7  C   UNL     1     -43.085  57.542 -54.851  1.00  0.00     0.078 A 
HETATM    8  S   UNL     1     -43.804  57.023 -53.386  1.00  0.00    -0.073 SA
HETATM    9  C   UNL     1     -42.453  57.632 -52.507  1.00  0.00     0.035 A 
HETATM   10  C   UNL     1     -41.549  58.204 -53.406  1.00  0.00     0.074 A 
HETATM   11  C   UNL     1     -42.211  57.607 -51.124  1.00  0.00     0.021 A 
HETATM   12  N   UNL     1     -41.927  58.151 -54.740  1.00  0.00    -0.245 NA
HETATM   13  C   UNL     1     -40.359  58.767 -52.903  1.00  0.00     0.033 A 
HETATM   14  C   UNL     1     -40.105  58.743 -51.527  1.00  0.00     0.002 A 
HETATM   15  C   UNL     1     -41.022  58.170 -50.652  1.00  0.00     0.002 A 
ENDBRANCH   6   7
ENDBRANCH   4   6
ENDBRANCH   1   4
BRANCH   1  16
HETATM   16  C   UNL     1     -42.004  54.304 -55.412  1.00  0.00     0.269 C 
BRANCH  16  17
HETATM   17  C   UNL     1     -40.560  53.909 -55.031  1.00  0.00     0.177 C 
BRANCH  17  18
HETATM   18  O   UNL     1     -39.723  55.050 -55.288  1.00  0.00    -0.389 OA
HETATM   19  H   UNL     1     -38.803  54.766 -55.107  1.00  0.00     0.210 HD
ENDBRANCH  17  18
BRANCH  17  20
HETATM   20  C   UNL     1     -40.449  53.446 -53.601  1.00  0.00    -0.025 A 
HETATM   21  C   UNL     1     -39.947  52.170 -53.279  1.00  0.00     0.046 A 
HETATM   22  C   UNL     1     -39.832  51.765 -51.947  1.00  0.00     0.068 A 
HETATM   23  C   UNL     1     -40.199  52.647 -50.930  1.00  0.00     0.037 A 
HETATM   24  C   UNL     1     -40.693  53.914 -51.233  1.00  0.00     0.003 A 
HETATM   25  C   UNL     1     -40.818  54.313 -52.561  1.00  0.00     0.010 A 
BRANCH  22  26
HETATM   26  O   UNL     1     -39.368  50.557 -51.513  1.00  0.00    -0.356 OA
HETATM   27  C   UNL     1     -39.605  49.427 -52.342  1.00  0.00     0.210 C 
ENDBRANCH  22  26
ENDBRANCH  17  20
ENDBRANCH  16  17
ENDBRANCH   1  16
TORSDOF 8
ENDMDL
MODEL 4
REMARK VINA RESULT:      -7.1      2.763      7.597
REMARK  8 active torsions:
REMARK  status: ('A' for Active; 'I' for Inactive)
REMARK    1  A    between atoms: C_2  and  N_3 
REMARK    2  A    between atoms: C_2  and  C_17 
REMARK    3  A    between atoms: N_3  and  C_6 
REMARK    4  A    between atoms: C_6  and  C_7 
REMARK    5  A    between atoms: C_7  and  O_8 
REMARK    6  A    between atoms: C_7  and  C_9 
REMARK    7  A    between atoms: C_11  and  O_12 
REMARK    8  A    between atoms: C_17  and  C_18 
ROOT
HETATM    1  N   UNL     1     -43.368  56.429 -54.825  1.00  0.00    -0.068 N 
HETATM    2  H   UNL     1     -44.382  56.366 -54.659  1.00  0.00     0.277 HD
HETATM    3  H   UNL     1     -43.248  56.012 -55.767  1.00  0.00     0.277 HD
ENDROOT
BRANCH   1   4
HETATM    4  C   UNL     1     -42.947  57.878 -54.780  1.00  0.00     0.188 C 
HETATM    5  C   UNL     1     -44.140  58.659 -54.221  1.00  0.00     0.040 C 
BRANCH   4   6
HETATM    6  C   UNL     1     -42.536  58.375 -56.179  1.00  0.00     0.099 C 
BRANCH   6   7
HETATM    7  C   UNL     1     -43.328  57.695 -57.252  1.00  0.00     0.078 A 
HETATM    8  S   UNL     1     -44.753  58.418 -57.870  1.00  0.00    -0.073 SA
HETATM    9  C   UNL     1     -44.958  57.091 -58.950  1.00  0.00     0.035 A 
HETATM   10  C   UNL     1     -43.919  56.178 -58.749  1.00  0.00     0.074 A 
HETATM   11  C   UNL     1     -45.964  56.873 -59.905  1.00  0.00     0.021 A 
HETATM   12  N   UNL     1     -43.000  56.534 -57.770  1.00  0.00    -0.245 NA
HETATM   13  C   UNL     1     -43.883  55.008 -59.533  1.00  0.00     0.033 A 
HETATM   14  C   UNL     1     -44.878  54.783 -60.491  1.00  0.00     0.002 A 
HETATM   15  C   UNL     1     -45.904  55.705 -60.671  1.00  0.00     0.002 A 
ENDBRANCH   6   7
ENDBRANCH   4   6
ENDBRANCH   1   4
BRANCH   1  16
HETATM   16  C   UNL     1     -42.692  55.480 -53.863  1.00  0.00     0.269 C 
BRANCH  16  17
HETATM   17  C   UNL     1     -42.027  54.362 -54.698  1.00  0.00     0.177 C 
BRANCH  17  18
HETATM   18  O   UNL     1     -41.277  55.001 -55.747  1.00  0.00    -0.389 OA
HETATM   19  H   UNL     1     -40.487  55.395 -55.322  1.00  0.00     0.210 HD
ENDBRANCH  17  18
BRANCH  17  20
HETATM   20  C   UNL     1     -41.158  53.459 -53.862  1.00  0.00    -0.025 A 
HETATM   21  C   UNL     1     -41.052  53.628 -52.467  1.00  0.00     0.046 A 
HETATM   22  C   UNL     1     -40.257  52.769 -51.705  1.00  0.00     0.068 A 
HETATM   23  C   UNL     1     -39.582  51.723 -52.334  1.00  0.00     0.037 A 
HETATM   24  C   UNL     1     -39.680  51.541 -53.712  1.00  0.00     0.003 A 
HETATM   25  C   UNL     1     -40.464  52.404 -54.474  1.00  0.00     0.010 A 
BRANCH  22  26
HETATM   26  O   UNL     1     -40.072  52.836 -50.353  1.00  0.00    -0.356 OA
HETATM   27  C   UNL     1     -39.827  54.116 -49.787  1.00  0.00     0.210 C 
ENDBRANCH  22  26
ENDBRANCH  17  20
ENDBRANCH  16  17
ENDBRANCH   1  16
TORSDOF 8
ENDMDL
MODEL 5
REMARK VINA RESULT:      -7.1      1.157      1.843
REMARK  8 active torsions:
REMARK  status: ('A' for Active; 'I' for Inactive)
REMARK    1  A    between atoms: C_2  and  N_3 
REMARK    2  A    between atoms: C_2  and  C_17 
REMARK    3  A    between atoms: N_3  and  C_6 
REMARK    4  A    between atoms: C_6  and  C_7 
REMARK    5  A    between atoms: C_7  and  O_8 
REMARK    6  A    between atoms: C_7  and  C_9 
REMARK    7  A    between atoms: C_11  and  O_12 
REMARK    8  A    between atoms: C_17  and  C_18 
ROOT
HETATM    1  N   UNL     1     -43.935  55.560 -53.986  1.00  0.00    -0.068 N 
HETATM    2  H   UNL     1     -43.651  54.602 -54.234  1.00  0.00     0.277 HD
HETATM    3  H   UNL     1     -44.971  55.514 -53.978  1.00  0.00     0.277 HD
ENDROOT
BRANCH   1   4
HETATM    4  C   UNL     1     -43.366  55.910 -52.632  1.00  0.00     0.188 C 
HETATM    5  C   UNL     1     -43.964  57.267 -52.248  1.00  0.00     0.040 C 
BRANCH   4   6
HETATM    6  C   UNL     1     -41.827  55.947 -52.675  1.00  0.00     0.099 C 
BRANCH   6   7
HETATM    7  C   UNL     1     -41.251  54.565 -52.712  1.00  0.00     0.078 A 
HETATM    8  S   UNL     1     -40.526  53.889 -51.315  1.00  0.00    -0.073 SA
HETATM    9  C   UNL     1     -40.204  52.437 -52.185  1.00  0.00     0.035 A 
HETATM   10  C   UNL     1     -40.668  52.582 -53.496  1.00  0.00     0.074 A 
HETATM   11  C   UNL     1     -39.586  51.257 -51.743  1.00  0.00     0.021 A 
HETATM   12  N   UNL     1     -41.257  53.806 -53.783  1.00  0.00    -0.245 NA
HETATM   13  C   UNL     1     -40.510  51.507 -54.393  1.00  0.00     0.033 A 
HETATM   14  C   UNL     1     -39.900  50.325 -53.961  1.00  0.00     0.002 A 
HETATM   15  C   UNL     1     -39.444  50.205 -52.652  1.00  0.00     0.002 A 
ENDBRANCH   6   7
ENDBRANCH   4   6
ENDBRANCH   1   4
BRANCH   1  16
HETATM   16  C   UNL     1     -43.570  56.457 -55.145  1.00  0.00     0.269 C 
BRANCH  16  17
HETATM   17  C   UNL     1     -42.836  55.592 -56.194  1.00  0.00     0.177 C 
BRANCH  17  18
HETATM   18  O   UNL     1     -43.416  54.276 -56.143  1.00  0.00    -0.389 OA
HETATM   19  H   UNL     1     -44.349  54.394 -55.868  1.00  0.00     0.210 HD
ENDBRANCH  17  18
BRANCH  17  20
HETATM   20  C   UNL     1     -42.911  56.181 -57.579  1.00  0.00    -0.025 A 
HETATM   21  C   UNL     1     -42.402  57.464 -57.860  1.00  0.00     0.046 A 
HETATM   22  C   UNL     1     -42.463  57.987 -59.153  1.00  0.00     0.068 A 
HETATM   23  C   UNL     1     -43.012  57.216 -60.178  1.00  0.00     0.037 A 
HETATM   24  C   UNL     1     -43.515  55.943 -59.917  1.00  0.00     0.003 A 
HETATM   25  C   UNL     1     -43.466  55.427 -58.624  1.00  0.00     0.010 A 
BRANCH  22  26
HETATM   26  O   UNL     1     -42.010  59.215 -59.545  1.00  0.00    -0.356 OA
HETATM   27  C   UNL     1     -42.635  59.815 -60.671  1.00  0.00     0.210 C 
ENDBRANCH  22  26
ENDBRANCH  17  20
ENDBRANCH  16  17
ENDBRANCH   1  16
TORSDOF 8
ENDMDL
MODEL 6
REMARK VINA RESULT:      -6.9      2.674      7.163
REMARK  8 active torsions:
REMARK  status: ('A' for Active; 'I' for Inactive)
REMARK    1  A    between atoms: C_2  and  N_3 
REMARK    2  A    between atoms: C_2  and  C_17 
REMARK    3  A    between atoms: N_3  and  C_6 
REMARK    4  A    between atoms: C_6  and  C_7 
REMARK    5  A    between atoms: C_7  and  O_8 
REMARK    6  A    between atoms: C_7  and  C_9 
REMARK    7  A    between atoms: C_11  and  O_12 
REMARK    8  A    between atoms: C_17  and  C_18 
ROOT
HETATM    1  N   UNL     1     -40.993  57.285 -53.708  1.00  0.00    -0.068 N 
HETATM    2  H   UNL     1     -41.564  56.898 -54.472  1.00  0.00     0.277 HD
HETATM    3  H   UNL     1     -40.023  57.037 -53.977  1.00  0.00     0.277 HD
ENDROOT
BRANCH   1   4
HETATM    4  C   UNL     1     -41.205  58.778 -53.640  1.00  0.00     0.188 C 
HETATM    5  C   UNL     1     -41.279  59.139 -52.153  1.00  0.00     0.040 C 
BRANCH   4   6
HETATM    6  C   UNL     1     -42.482  59.189 -54.398  1.00  0.00     0.099 C 
BRANCH   6   7
HETATM    7  C   UNL     1     -42.488  58.636 -55.790  1.00  0.00     0.078 A 
HETATM    8  S   UNL     1     -42.056  59.625 -57.119  1.00  0.00    -0.073 SA
HETATM    9  C   UNL     1     -42.302  58.296 -58.188  1.00  0.00     0.035 A 
HETATM   10  C   UNL     1     -42.712  57.186 -57.444  1.00  0.00     0.074 A 
HETATM   11  C   UNL     1     -42.145  58.239 -59.582  1.00  0.00     0.021 A 
HETATM   12  N   UNL     1     -42.821  57.398 -56.076  1.00  0.00    -0.245 NA
HETATM   13  C   UNL     1     -42.971  55.977 -58.119  1.00  0.00     0.033 A 
HETATM   14  C   UNL     1     -42.813  55.907 -59.507  1.00  0.00     0.002 A 
HETATM   15  C   UNL     1     -42.406  57.026 -60.227  1.00  0.00     0.002 A 
ENDBRANCH   6   7
ENDBRANCH   4   6
ENDBRANCH   1   4
BRANCH   1  16
HETATM   16  C   UNL     1     -41.296  56.484 -52.464  1.00  0.00     0.269 C 
BRANCH  16  17
HETATM   17  C   UNL     1     -41.966  55.165 -52.908  1.00  0.00     0.177 C 
BRANCH  17  18
HETATM   18  O   UNL     1     -42.122  55.224 -54.337  1.00  0.00    -0.389 OA
HETATM   19  H   UNL     1     -42.943  54.733 -54.547  1.00  0.00     0.210 HD
ENDBRANCH  17  18
BRANCH  17  20
HETATM   20  C   UNL     1     -41.181  53.950 -52.483  1.00  0.00    -0.025 A 
HETATM   21  C   UNL     1     -40.591  53.090 -53.430  1.00  0.00     0.046 A 
HETATM   22  C   UNL     1     -39.851  51.979 -53.018  1.00  0.00     0.068 A 
HETATM   23  C   UNL     1     -39.679  51.738 -51.655  1.00  0.00     0.037 A 
HETATM   24  C   UNL     1     -40.253  52.583 -50.707  1.00  0.00     0.003 A 
HETATM   25  C   UNL     1     -41.001  53.684 -51.117  1.00  0.00     0.010 A 
BRANCH  22  26
HETATM   26  O   UNL     1     -39.240  51.073 -53.838  1.00  0.00    -0.356 OA
HETATM   27  C   UNL     1     -40.025  49.994 -54.324  1.00  0.00     0.210 C 
ENDBRANCH  22  26
ENDBRANCH  17  20
ENDBRANCH  16  17
ENDBRANCH   1  16
TORSDOF 8
ENDMDL
MODEL 7
REMARK VINA RESULT:      -6.9      2.593      7.259
REMARK  8 active torsions:
REMARK  status: ('A' for Active; 'I' for Inactive)
REMARK    1  A    between atoms: C_2  and  N_3 
REMARK    2  A    between atoms: C_2  and  C_17 
REMARK    3  A    between atoms: N_3  and  C_6 
REMARK    4  A    between atoms: C_6  and  C_7 
REMARK    5  A    between atoms: C_7  and  O_8 
REMARK    6  A    between atoms: C_7  and  C_9 
REMARK    7  A    between atoms: C_11  and  O_12 
REMARK    8  A    between atoms: C_17  and  C_18 
ROOT
HETATM    1  N   UNL     1     -41.496  57.626 -53.897  1.00  0.00    -0.068 N 
HETATM    2  H   UNL     1     -41.718  57.360 -54.866  1.00  0.00     0.277 HD
HETATM    3  H   UNL     1     -40.530  57.996 -53.959  1.00  0.00     0.277 HD
ENDROOT
BRANCH   1   4
HETATM    4  C   UNL     1     -42.482  58.671 -53.432  1.00  0.00     0.188 C 
HETATM    5  C   UNL     1     -42.882  58.285 -52.005  1.00  0.00     0.040 C 
BRANCH   4   6
HETATM    6  C   UNL     1     -43.698  58.738 -54.376  1.00  0.00     0.099 C 
BRANCH   6   7
HETATM    7  C   UNL     1     -43.330  58.323 -55.766  1.00  0.00     0.078 A 
HETATM    8  S   UNL     1     -42.569  59.429 -56.831  1.00  0.00    -0.073 SA
HETATM    9  C   UNL     1     -42.510  58.214 -58.051  1.00  0.00     0.035 A 
HETATM   10  C   UNL     1     -43.093  57.044 -57.555  1.00  0.00     0.074 A 
HETATM   11  C   UNL     1     -41.988  58.289 -59.352  1.00  0.00     0.021 A 
HETATM   12  N   UNL     1     -43.563  57.125 -56.251  1.00  0.00    -0.245 NA
HETATM   13  C   UNL     1     -43.152  55.910 -58.388  1.00  0.00     0.033 A 
HETATM   14  C   UNL     1     -42.630  55.973 -59.685  1.00  0.00     0.002 A 
HETATM   15  C   UNL     1     -42.057  57.149 -60.158  1.00  0.00     0.002 A 
ENDBRANCH   6   7
ENDBRANCH   4   6
ENDBRANCH   1   4
BRANCH   1  16
HETATM   16  C   UNL     1     -41.400  56.354 -53.087  1.00  0.00     0.269 C 
BRANCH  16  17
HETATM   17  C   UNL     1     -41.515  55.165 -54.066  1.00  0.00     0.177 C 
BRANCH  17  18
HETATM   18  O   UNL     1     -40.923  55.578 -55.311  1.00  0.00    -0.389 OA
HETATM   19  H   UNL     1     -40.783  56.545 -55.244  1.00  0.00     0.210 HD
ENDBRANCH  17  18
BRANCH  17  20
HETATM   20  C   UNL     1     -40.869  53.914 -53.530  1.00  0.00    -0.025 A 
HETATM   21  C   UNL     1     -40.782  53.668 -52.146  1.00  0.00     0.046 A 
HETATM   22  C   UNL     1     -40.196  52.493 -51.667  1.00  0.00     0.068 A 
HETATM   23  C   UNL     1     -39.717  51.548 -52.575  1.00  0.00     0.037 A 
HETATM   24  C   UNL     1     -39.801  51.775 -53.947  1.00  0.00     0.003 A 
HETATM   25  C   UNL     1     -40.374  52.952 -54.424  1.00  0.00     0.010 A 
BRANCH  22  26
HETATM   26  O   UNL     1     -40.050  52.147 -50.354  1.00  0.00    -0.356 OA
HETATM   27  C   UNL     1     -40.433  53.105 -49.377  1.00  0.00     0.210 C 
ENDBRANCH  22  26
ENDBRANCH  17  20
ENDBRANCH  16  17
ENDBRANCH   1  16
TORSDOF 8
ENDMDL
MODEL 8
REMARK VINA RESULT:      -6.8      4.055      6.294
REMARK  8 active torsions:
REMARK  status: ('A' for Active; 'I' for Inactive)
REMARK    1  A    between atoms: C_2  and  N_3 
REMARK    2  A    between atoms: C_2  and  C_17 
REMARK    3  A    between atoms: N_3  and  C_6 
REMARK    4  A    between atoms: C_6  and  C_7 
REMARK    5  A    between atoms: C_7  and  O_8 
REMARK    6  A    between atoms: C_7  and  C_9 
REMARK    7  A    between atoms: C_11  and  O_12 
REMARK    8  A    between atoms: C_17  and  C_18 
ROOT
HETATM    1  N   UNL     1     -44.147  59.726 -52.441  1.00  0.00    -0.068 N 
HETATM    2  H   UNL     1     -44.272  60.665 -52.041  1.00  0.00     0.277 HD
HETATM    3  H   UNL     1     -45.059  59.530 -52.895  1.00  0.00     0.277 HD
ENDROOT
BRANCH   1   4
HETATM    4  C   UNL     1     -43.009  59.757 -53.433  1.00  0.00     0.188 C 
HETATM    5  C   UNL     1     -42.712  61.234 -53.706  1.00  0.00     0.040 C 
BRANCH   4   6
HETATM    6  C   UNL     1     -43.379  58.995 -54.720  1.00  0.00     0.099 C 
BRANCH   6   7
HETATM    7  C   UNL     1     -42.895  57.579 -54.670  1.00  0.00     0.078 A 
HETATM    8  S   UNL     1     -44.010  56.282 -54.565  1.00  0.00    -0.073 SA
HETATM    9  C   UNL     1     -42.705  55.158 -54.581  1.00  0.00     0.035 A 
HETATM   10  C   UNL     1     -41.500  55.863 -54.653  1.00  0.00     0.074 A 
HETATM   11  C   UNL     1     -42.742  53.755 -54.532  1.00  0.00     0.021 A 
HETATM   12  N   UNL     1     -41.625  57.245 -54.696  1.00  0.00    -0.245 NA
HETATM   13  C   UNL     1     -40.292  55.139 -54.681  1.00  0.00     0.033 A 
HETATM   14  C   UNL     1     -40.318  53.741 -54.637  1.00  0.00     0.002 A 
HETATM   15  C   UNL     1     -41.530  53.061 -54.562  1.00  0.00     0.002 A 
ENDBRANCH   6   7
ENDBRANCH   4   6
ENDBRANCH   1   4
BRANCH   1  16
HETATM   16  C   UNL     1     -44.039  58.751 -51.292  1.00  0.00     0.269 C 
BRANCH  16  17
HETATM   17  C   UNL     1     -42.575  58.264 -51.227  1.00  0.00     0.177 C 
BRANCH  17  18
HETATM   18  O   UNL     1     -41.955  58.920 -50.106  1.00  0.00    -0.389 OA
HETATM   19  H   UNL     1     -42.071  59.883 -50.249  1.00  0.00     0.210 HD
ENDBRANCH  17  18
BRANCH  17  20
HETATM   20  C   UNL     1     -42.472  56.765 -51.122  1.00  0.00    -0.025 A 
HETATM   21  C   UNL     1     -41.225  56.110 -51.162  1.00  0.00     0.046 A 
HETATM   22  C   UNL     1     -41.147  54.720 -51.043  1.00  0.00     0.068 A 
HETATM   23  C   UNL     1     -42.316  53.982 -50.861  1.00  0.00     0.037 A 
HETATM   24  C   UNL     1     -43.556  54.616 -50.814  1.00  0.00     0.003 A 
HETATM   25  C   UNL     1     -43.635  56.001 -50.944  1.00  0.00     0.010 A 
BRANCH  22  26
HETATM   26  O   UNL     1     -40.002  53.975 -51.073  1.00  0.00    -0.356 OA
HETATM   27  C   UNL     1     -40.139  52.562 -51.039  1.00  0.00     0.210 C 
ENDBRANCH  22  26
ENDBRANCH  17  20
ENDBRANCH  16  17
ENDBRANCH   1  16
TORSDOF 8
ENDMDL
MODEL 9
REMARK VINA RESULT:      -6.8      2.695      7.370
REMARK  8 active torsions:
REMARK  status: ('A' for Active; 'I' for Inactive)
REMARK    1  A    between atoms: C_2  and  N_3 
REMARK    2  A    between atoms: C_2  and  C_17 
REMARK    3  A    between atoms: N_3  and  C_6 
REMARK    4  A    between atoms: C_6  and  C_7 
REMARK    5  A    between atoms: C_7  and  O_8 
REMARK    6  A    between atoms: C_7  and  C_9 
REMARK    7  A    between atoms: C_11  and  O_12 
REMARK    8  A    between atoms: C_17  and  C_18 
ROOT
HETATM    1  N   UNL     1     -43.871  56.084 -55.270  1.00  0.00    -0.068 N 
HETATM    2  H   UNL     1     -44.756  56.017 -55.792  1.00  0.00     0.277 HD
HETATM    3  H   UNL     1     -43.148  56.087 -56.012  1.00  0.00     0.277 HD
ENDROOT
BRANCH   1   4
HETATM    4  C   UNL     1     -43.869  57.358 -54.461  1.00  0.00     0.188 C 
HETATM    5  C   UNL     1     -45.100  58.155 -54.903  1.00  0.00     0.040 C 
BRANCH   4   6
HETATM    6  C   UNL     1     -42.562  58.145 -54.678  1.00  0.00     0.099 C 
BRANCH   6   7
HETATM    7  C   UNL     1     -42.413  58.566 -56.107  1.00  0.00     0.078 A 
HETATM    8  S   UNL     1     -42.352  60.227 -56.521  1.00  0.00    -0.073 SA
HETATM    9  C   UNL     1     -42.169  59.806 -58.182  1.00  0.00     0.035 A 
HETATM   10  C   UNL     1     -42.180  58.414 -58.300  1.00  0.00     0.074 A 
HETATM   11  C   UNL     1     -42.026  60.645 -59.299  1.00  0.00     0.021 A 
HETATM   12  N   UNL     1     -42.327  57.720 -57.107  1.00  0.00    -0.245 NA
HETATM   13  C   UNL     1     -42.040  57.841 -59.580  1.00  0.00     0.033 A 
HETATM   14  C   UNL     1     -41.893  58.668 -60.699  1.00  0.00     0.002 A 
HETATM   15  C   UNL     1     -41.888  60.052 -60.557  1.00  0.00     0.002 A 
ENDBRANCH   6   7
ENDBRANCH   4   6
ENDBRANCH   1   4
BRANCH   1  16
HETATM   16  C   UNL     1     -43.689  54.785 -54.519  1.00  0.00     0.269 C 
BRANCH  16  17
HETATM   17  C   UNL     1     -42.449  54.075 -55.107  1.00  0.00     0.177 C 
BRANCH  17  18
HETATM   18  O   UNL     1     -41.759  55.032 -55.931  1.00  0.00    -0.389 OA
HETATM   19  H   UNL     1     -42.252  55.078 -56.776  1.00  0.00     0.210 HD
ENDBRANCH  17  18
BRANCH  17  20
HETATM   20  C   UNL     1     -41.550  53.510 -54.038  1.00  0.00    -0.025 A 
HETATM   21  C   UNL     1     -40.840  52.309 -54.236  1.00  0.00     0.046 A 
HETATM   22  C   UNL     1     -39.996  51.809 -53.241  1.00  0.00     0.068 A 
HETATM   23  C   UNL     1     -39.841  52.522 -52.052  1.00  0.00     0.037 A 
HETATM   24  C   UNL     1     -40.533  53.714 -51.845  1.00  0.00     0.003 A 
HETATM   25  C   UNL     1     -41.384  54.207 -52.832  1.00  0.00     0.010 A 
BRANCH  22  26
HETATM   26  O   UNL     1     -39.264  50.658 -53.314  1.00  0.00    -0.356 OA
HETATM   27  C   UNL     1     -39.555  49.762 -54.378  1.00  0.00     0.210 C 
ENDBRANCH  22  26
ENDBRANCH  17  20
ENDBRANCH  16  17
ENDBRANCH   1  16
TORSDOF 8
ENDMDL
MODEL 10
REMARK VINA RESULT:      -6.8      1.469      2.098
REMARK  8 active torsions:
REMARK  status: ('A' for Active; 'I' for Inactive)
REMARK    1  A    between atoms: C_2  and  N_3 
REMARK    2  A    between atoms: C_2  and  C_17 
REMARK    3  A    between atoms: N_3  and  C_6 
REMARK    4  A    between atoms: C_6  and  C_7 
REMARK    5  A    between atoms: C_7  and  O_8 
REMARK    6  A    between atoms: C_7  and  C_9 
REMARK    7  A    between atoms: C_11  and  O_12 
REMARK    8  A    between atoms: C_17  and  C_18 
ROOT
HETATM    1  N   UNL     1     -41.696  56.199 -55.050  1.00  0.00    -0.068 N 
HETATM    2  H   UNL     1     -40.989  56.944 -54.986  1.00  0.00     0.277 HD
HETATM    3  H   UNL     1     -41.164  55.386 -55.411  1.00  0.00     0.277 HD
ENDROOT
BRANCH   1   4
HETATM    4  C   UNL     1     -42.274  55.944 -53.679  1.00  0.00     0.188 C 
HETATM    5  C   UNL     1     -43.101  57.182 -53.319  1.00  0.00     0.040 C 
BRANCH   4   6
HETATM    6  C   UNL     1     -41.157  55.677 -52.653  1.00  0.00     0.099 C 
BRANCH   6   7
HETATM    7  C   UNL     1     -40.748  54.237 -52.657  1.00  0.00     0.078 A 
HETATM    8  S   UNL     1     -40.225  53.477 -51.214  1.00  0.00    -0.073 SA
HETATM    9  C   UNL     1     -40.007  51.999 -52.070  1.00  0.00     0.035 A 
HETATM   10  C   UNL     1     -40.342  52.199 -53.412  1.00  0.00     0.074 A 
HETATM   11  C   UNL     1     -39.572  50.752 -51.591  1.00  0.00     0.021 A 
HETATM   12  N   UNL     1     -40.756  53.484 -53.733  1.00  0.00    -0.245 NA
HETATM   13  C   UNL     1     -40.240  51.114 -54.305  1.00  0.00     0.033 A 
HETATM   14  C   UNL     1     -39.811  49.866 -53.838  1.00  0.00     0.002 A 
HETATM   15  C   UNL     1     -39.482  49.692 -52.497  1.00  0.00     0.002 A 
ENDBRANCH   6   7
ENDBRANCH   4   6
ENDBRANCH   1   4
BRANCH   1  16
HETATM   16  C   UNL     1     -42.661  56.582 -56.149  1.00  0.00     0.269 C 
BRANCH  16  17
HETATM   17  C   UNL     1     -42.846  55.348 -57.060  1.00  0.00     0.177 C 
BRANCH  17  18
HETATM   18  O   UNL     1     -43.478  54.325 -56.269  1.00  0.00    -0.389 OA
HETATM   19  H   UNL     1     -44.437  54.376 -56.464  1.00  0.00     0.210 HD
ENDBRANCH  17  18
BRANCH  17  20
HETATM   20  C   UNL     1     -43.640  55.663 -58.301  1.00  0.00    -0.025 A 
HETATM   21  C   UNL     1     -44.035  56.981 -58.604  1.00  0.00     0.046 A 
HETATM   22  C   UNL     1     -44.755  57.258 -59.769  1.00  0.00     0.068 A 
HETATM   23  C   UNL     1     -45.062  56.219 -60.648  1.00  0.00     0.037 A 
HETATM   24  C   UNL     1     -44.674  54.911 -60.363  1.00  0.00     0.003 A 
HETATM   25  C   UNL     1     -43.966  54.633 -59.196  1.00  0.00     0.010 A 
BRANCH  22  26
HETATM   26  O   UNL     1     -45.196  58.488 -60.166  1.00  0.00    -0.356 OA
HETATM   27  C   UNL     1     -46.567  58.611 -60.518  1.00  0.00     0.210 C 
ENDBRANCH  22  26
ENDBRANCH  17  20
ENDBRANCH  16  17
ENDBRANCH   1  16
TORSDOF 8
ENDMDL
