MODEL 1
REMARK VINA RESULT:      -8.6      0.000      0.000
REMARK  2 active torsions:
REMARK  status: ('A' for Active; 'I' for Inactive)
REMARK    1  A    between atoms: C_5  and  C_6 
REMARK    2  A    between atoms: C_9  and  C_10 
ROOT
HETATM    1  C   UNL     1     -43.662  57.262 -51.431  1.00  0.00     0.220 C 
HETATM    2  N   UNL     1     -43.247  55.871 -51.478  1.00  0.00    -0.126 NA
HETATM    3  N   UNL     1     -41.818  55.857 -51.469  1.00  0.00    -0.126 NA
HETATM    4  C   UNL     1     -41.404  54.621 -50.825  1.00  0.00     0.220 C 
HETATM    5  N   UNL     1     -42.617  54.126 -50.229  1.00  0.00    -0.324 N 
HETATM    6  C   UNL     1     -43.692  54.937 -50.549  1.00  0.00     0.315 C 
HETATM    7  O   UNL     1     -44.795  54.864 -50.036  1.00  0.00    -0.252 OA
HETATM    8  C   UNL     1     -41.375  57.104 -51.044  1.00  0.00     0.315 C 
HETATM    9  O   UNL     1     -40.276  57.391 -50.603  1.00  0.00    -0.252 OA
HETATM   10  N   UNL     1     -42.449  57.974 -51.128  1.00  0.00    -0.324 N 
HETATM   11  H   UNL     1     -42.674  53.412 -49.520  1.00  0.00     0.165 HD
HETATM   12  H   UNL     1     -42.396  58.923 -50.791  1.00  0.00     0.165 HD
ENDROOT
BRANCH   1  13
HETATM   13  C   UNL     1     -44.249  57.769 -52.734  1.00  0.00    -0.020 A 
HETATM   14  C   UNL     1     -44.334  56.961 -53.881  1.00  0.00     0.011 A 
HETATM   15  C   UNL     1     -44.816  57.472 -55.089  1.00  0.00     0.007 A 
HETATM   16  C   UNL     1     -45.215  58.807 -55.183  1.00  0.00    -0.062 A 
HETATM   17  C   UNL     1     -45.710  59.372 -56.480  1.00  0.00     0.048 C 
HETATM   18  C   UNL     1     -45.143  59.619 -54.045  1.00  0.00     0.007 A 
HETATM   19  C   UNL     1     -44.663  59.107 -52.835  1.00  0.00     0.011 A 
ENDBRANCH   1  13
BRANCH   4  20
HETATM   20  C   UNL     1     -40.844  53.587 -51.786  1.00  0.00    -0.020 A 
HETATM   21  C   UNL     1     -41.189  53.557 -53.146  1.00  0.00     0.011 A 
HETATM   22  C   UNL     1     -40.722  52.544 -53.988  1.00  0.00     0.007 A 
HETATM   23  C   UNL     1     -39.899  51.532 -53.488  1.00  0.00    -0.062 A 
HETATM   24  C   UNL     1     -39.423  50.420 -54.374  1.00  0.00     0.048 C 
HETATM   25  C   UNL     1     -39.535  51.561 -52.137  1.00  0.00     0.007 A 
HETATM   26  C   UNL     1     -40.001  52.575 -51.297  1.00  0.00     0.011 A 
ENDBRANCH   4  20
TORSDOF 2
ENDMDL
MODEL 2
REMARK VINA RESULT:      -8.6      0.057      6.687
REMARK  2 active torsions:
REMARK  status: ('A' for Active; 'I' for Inactive)
REMARK    1  A    between atoms: C_5  and  C_6 
REMARK    2  A    between atoms: C_9  and  C_10 
ROOT
HETATM    1  C   UNL     1     -41.466  54.634 -50.821  1.00  0.00     0.220 C 
HETATM    2  N   UNL     1     -41.887  55.864 -51.470  1.00  0.00    -0.126 NA
HETATM    3  N   UNL     1     -43.315  55.884 -51.452  1.00  0.00    -0.126 NA
HETATM    4  C   UNL     1     -43.726  57.278 -51.413  1.00  0.00     0.220 C 
HETATM    5  N   UNL     1     -42.508  57.982 -51.108  1.00  0.00    -0.324 N 
HETATM    6  C   UNL     1     -41.433  57.110 -51.052  1.00  0.00     0.315 C 
HETATM    7  O   UNL     1     -40.325  57.399 -50.635  1.00  0.00    -0.252 OA
HETATM    8  C   UNL     1     -43.750  54.952 -50.517  1.00  0.00     0.315 C 
HETATM    9  O   UNL     1     -44.843  54.890 -49.982  1.00  0.00    -0.252 OA
HETATM   10  N   UNL     1     -42.674  54.131 -50.222  1.00  0.00    -0.324 N 
HETATM   11  H   UNL     1     -42.445  58.934 -50.786  1.00  0.00     0.165 HD
HETATM   12  H   UNL     1     -42.720  53.427 -49.502  1.00  0.00     0.165 HD
ENDROOT
BRANCH   1  13
HETATM   13  C   UNL     1     -40.892  53.605 -51.776  1.00  0.00    -0.020 A 
HETATM   14  C   UNL     1     -41.228  53.580 -53.140  1.00  0.00     0.011 A 
HETATM   15  C   UNL     1     -40.739  52.580 -53.985  1.00  0.00     0.007 A 
HETATM   16  C   UNL     1     -39.911  51.574 -53.484  1.00  0.00    -0.062 A 
HETATM   17  C   UNL     1     -39.401  50.482 -54.376  1.00  0.00     0.048 C 
HETATM   18  C   UNL     1     -39.563  51.593 -52.128  1.00  0.00     0.007 A 
HETATM   19  C   UNL     1     -40.050  52.595 -51.283  1.00  0.00     0.011 A 
ENDBRANCH   1  13
BRANCH   4  20
HETATM   20  C   UNL     1     -44.299  57.786 -52.723  1.00  0.00    -0.020 A 
HETATM   21  C   UNL     1     -44.369  56.986 -53.876  1.00  0.00     0.011 A 
HETATM   22  C   UNL     1     -44.827  57.507 -55.089  1.00  0.00     0.007 A 
HETATM   23  C   UNL     1     -45.223  58.844 -55.181  1.00  0.00    -0.062 A 
HETATM   24  C   UNL     1     -45.679  59.422 -56.487  1.00  0.00     0.048 C 
HETATM   25  C   UNL     1     -45.174  59.645 -54.036  1.00  0.00     0.007 A 
HETATM   26  C   UNL     1     -44.718  59.124 -52.822  1.00  0.00     0.011 A 
ENDBRANCH   4  20
TORSDOF 2
ENDMDL
MODEL 3
REMARK VINA RESULT:      -8.6      2.953      3.604
REMARK  2 active torsions:
REMARK  status: ('A' for Active; 'I' for Inactive)
REMARK    1  A    between atoms: C_5  and  C_6 
REMARK    2  A    between atoms: C_9  and  C_10 
ROOT
HETATM    1  C   UNL     1     -42.496  58.842 -54.910  1.00  0.00     0.220 C 
HETATM    2  N   UNL     1     -42.521  57.463 -54.454  1.00  0.00    -0.126 NA
HETATM    3  N   UNL     1     -41.302  57.230 -53.747  1.00  0.00    -0.126 NA
HETATM    4  C   UNL     1     -41.576  56.218 -52.739  1.00  0.00     0.220 C 
HETATM    5  N   UNL     1     -43.013  56.136 -52.722  1.00  0.00    -0.324 N 
HETATM    6  C   UNL     1     -43.567  56.959 -53.689  1.00  0.00     0.315 C 
HETATM    7  O   UNL     1     -44.752  57.227 -53.777  1.00  0.00    -0.252 OA
HETATM    8  C   UNL     1     -40.741  58.462 -53.432  1.00  0.00     0.315 C 
HETATM    9  O   UNL     1     -39.901  58.701 -52.583  1.00  0.00    -0.252 OA
HETATM   10  N   UNL     1     -41.376  59.415 -54.211  1.00  0.00    -0.324 N 
HETATM   11  H   UNL     1     -43.568  55.707 -52.000  1.00  0.00     0.165 HD
HETATM   12  H   UNL     1     -41.200  60.401 -54.100  1.00  0.00     0.165 HD
ENDROOT
BRANCH   1  13
HETATM   13  C   UNL     1     -42.302  58.987 -56.407  1.00  0.00    -0.020 A 
HETATM   14  C   UNL     1     -42.054  60.230 -57.013  1.00  0.00     0.011 A 
HETATM   15  C   UNL     1     -41.947  60.347 -58.402  1.00  0.00     0.007 A 
HETATM   16  C   UNL     1     -42.099  59.225 -59.219  1.00  0.00    -0.062 A 
HETATM   17  C   UNL     1     -42.011  59.343 -60.711  1.00  0.00     0.048 C 
HETATM   18  C   UNL     1     -42.339  57.980 -58.627  1.00  0.00     0.007 A 
HETATM   19  C   UNL     1     -42.442  57.862 -57.237  1.00  0.00     0.011 A 
ENDBRANCH   1  13
BRANCH   4  20
HETATM   20  C   UNL     1     -40.988  54.856 -53.062  1.00  0.00    -0.020 A 
HETATM   21  C   UNL     1     -40.690  54.456 -54.374  1.00  0.00     0.011 A 
HETATM   22  C   UNL     1     -40.225  53.166 -54.648  1.00  0.00     0.007 A 
HETATM   23  C   UNL     1     -40.051  52.242 -53.614  1.00  0.00    -0.062 A 
HETATM   24  C   UNL     1     -39.590  50.845 -53.902  1.00  0.00     0.048 C 
HETATM   25  C   UNL     1     -40.329  52.636 -52.301  1.00  0.00     0.007 A 
HETATM   26  C   UNL     1     -40.791  53.926 -52.028  1.00  0.00     0.011 A 
ENDBRANCH   4  20
TORSDOF 2
ENDMDL
MODEL 4
REMARK VINA RESULT:      -8.6      2.974      7.072
REMARK  2 active torsions:
REMARK  status: ('A' for Active; 'I' for Inactive)
REMARK    1  A    between atoms: C_5  and  C_6 
REMARK    2  A    between atoms: C_9  and  C_10 
ROOT
HETATM    1  C   UNL     1     -41.603  56.224 -52.778  1.00  0.00     0.220 C 
HETATM    2  N   UNL     1     -41.328  57.227 -53.793  1.00  0.00    -0.126 NA
HETATM    3  N   UNL     1     -42.554  57.476 -54.483  1.00  0.00    -0.126 NA
HETATM    4  C   UNL     1     -42.515  58.854 -54.945  1.00  0.00     0.220 C 
HETATM    5  N   UNL     1     -41.394  59.418 -54.240  1.00  0.00    -0.324 N 
HETATM    6  C   UNL     1     -40.752  58.453 -53.481  1.00  0.00     0.315 C 
HETATM    7  O   UNL     1     -39.894  58.683 -52.647  1.00  0.00    -0.252 OA
HETATM    8  C   UNL     1     -43.596  56.979 -53.708  1.00  0.00     0.315 C 
HETATM    9  O   UNL     1     -44.777  57.268 -53.779  1.00  0.00    -0.252 OA
HETATM   10  N   UNL     1     -43.039  56.139 -52.758  1.00  0.00    -0.324 N 
HETATM   11  H   UNL     1     -41.198  60.400 -54.138  1.00  0.00     0.165 HD
HETATM   12  H   UNL     1     -43.589  55.724 -52.023  1.00  0.00     0.165 HD
ENDROOT
BRANCH   1  13
HETATM   13  C   UNL     1     -41.006  54.864 -53.087  1.00  0.00    -0.020 A 
HETATM   14  C   UNL     1     -40.706  54.459 -54.398  1.00  0.00     0.011 A 
HETATM   15  C   UNL     1     -40.221  53.175 -54.662  1.00  0.00     0.007 A 
HETATM   16  C   UNL     1     -40.037  52.261 -53.623  1.00  0.00    -0.062 A 
HETATM   17  C   UNL     1     -39.541  50.873 -53.898  1.00  0.00     0.048 C 
HETATM   18  C   UNL     1     -40.325  52.656 -52.312  1.00  0.00     0.007 A 
HETATM   19  C   UNL     1     -40.807  53.942 -52.046  1.00  0.00     0.011 A 
ENDBRANCH   1  13
BRANCH   4  20
HETATM   20  C   UNL     1     -42.303  58.993 -56.442  1.00  0.00    -0.020 A 
HETATM   21  C   UNL     1     -42.038  60.228 -57.055  1.00  0.00     0.011 A 
HETATM   22  C   UNL     1     -41.928  60.336 -58.444  1.00  0.00     0.007 A 
HETATM   23  C   UNL     1     -42.084  59.210 -59.256  1.00  0.00    -0.062 A 
HETATM   24  C   UNL     1     -42.006  59.323 -60.749  1.00  0.00     0.048 C 
HETATM   25  C   UNL     1     -42.331  57.971 -58.656  1.00  0.00     0.007 A 
HETATM   26  C   UNL     1     -42.439  57.863 -57.267  1.00  0.00     0.011 A 
ENDBRANCH   4  20
TORSDOF 2
ENDMDL
MODEL 5
REMARK VINA RESULT:      -7.7      1.683      2.397
REMARK  2 active torsions:
REMARK  status: ('A' for Active; 'I' for Inactive)
REMARK    1  A    between atoms: C_5  and  C_6 
REMARK    2  A    between atoms: C_9  and  C_10 
ROOT
HETATM    1  C   UNL     1     -43.294  58.522 -53.629  1.00  0.00     0.220 C 
HETATM    2  N   UNL     1     -43.034  57.189 -53.113  1.00  0.00    -0.126 NA
HETATM    3  N   UNL     1     -41.623  56.979 -53.181  1.00  0.00    -0.126 NA
HETATM    4  C   UNL     1     -41.271  56.067 -52.103  1.00  0.00     0.220 C 
HETATM    5  N   UNL     1     -42.456  56.034 -51.287  1.00  0.00    -0.324 N 
HETATM    6  C   UNL     1     -43.470  56.787 -51.856  1.00  0.00     0.315 C 
HETATM    7  O   UNL     1     -44.512  57.085 -51.298  1.00  0.00    -0.252 OA
HETATM    8  C   UNL     1     -41.007  58.215 -53.341  1.00  0.00     0.315 C 
HETATM    9  O   UNL     1     -39.843  58.499 -53.124  1.00  0.00    -0.252 OA
HETATM   10  N   UNL     1     -41.987  59.117 -53.721  1.00  0.00    -0.324 N 
HETATM   11  H   UNL     1     -42.510  55.687 -50.343  1.00  0.00     0.165 HD
HETATM   12  H   UNL     1     -41.800  60.103 -53.815  1.00  0.00     0.165 HD
ENDROOT
BRANCH   1  13
HETATM   13  C   UNL     1     -43.965  58.530 -54.989  1.00  0.00    -0.020 A 
HETATM   14  C   UNL     1     -43.345  59.074 -56.127  1.00  0.00     0.011 A 
HETATM   15  C   UNL     1     -44.011  59.131 -57.353  1.00  0.00     0.007 A 
HETATM   16  C   UNL     1     -45.319  58.657 -57.470  1.00  0.00    -0.062 A 
HETATM   17  C   UNL     1     -46.053  58.736 -58.776  1.00  0.00     0.048 C 
HETATM   18  C   UNL     1     -45.945  58.106 -56.346  1.00  0.00     0.007 A 
HETATM   19  C   UNL     1     -45.277  58.046 -55.119  1.00  0.00     0.011 A 
ENDBRANCH   1  13
BRANCH   4  20
HETATM   20  C   UNL     1     -40.932  54.664 -52.573  1.00  0.00    -0.020 A 
HETATM   21  C   UNL     1     -40.454  53.672 -51.702  1.00  0.00     0.011 A 
HETATM   22  C   UNL     1     -40.072  52.415 -52.179  1.00  0.00     0.007 A 
HETATM   23  C   UNL     1     -40.156  52.120 -53.542  1.00  0.00    -0.062 A 
HETATM   24  C   UNL     1     -39.713  50.788 -54.068  1.00  0.00     0.048 C 
HETATM   25  C   UNL     1     -40.647  53.095 -54.417  1.00  0.00     0.007 A 
HETATM   26  C   UNL     1     -41.030  54.351 -53.939  1.00  0.00     0.011 A 
ENDBRANCH   4  20
TORSDOF 2
ENDMDL
MODEL 6
REMARK VINA RESULT:      -7.5      1.713      6.646
REMARK  2 active torsions:
REMARK  status: ('A' for Active; 'I' for Inactive)
REMARK    1  A    between atoms: C_5  and  C_6 
REMARK    2  A    between atoms: C_9  and  C_10 
ROOT
HETATM    1  C   UNL     1     -41.583  56.278 -50.618  1.00  0.00     0.220 C 
HETATM    2  N   UNL     1     -41.573  57.162 -51.771  1.00  0.00    -0.126 NA
HETATM    3  N   UNL     1     -42.927  57.305 -52.204  1.00  0.00    -0.126 NA
HETATM    4  C   UNL     1     -43.047  58.621 -52.812  1.00  0.00     0.220 C 
HETATM    5  N   UNL     1     -41.829  59.284 -52.429  1.00  0.00    -0.324 N 
HETATM    6  C   UNL     1     -40.999  58.427 -51.725  1.00  0.00     0.315 C 
HETATM    7  O   UNL     1     -39.996  58.769 -51.125  1.00  0.00    -0.252 OA
HETATM    8  C   UNL     1     -43.759  56.881 -51.175  1.00  0.00     0.315 C 
HETATM    9  O   UNL     1     -44.940  57.136 -51.021  1.00  0.00    -0.252 OA
HETATM   10  N   UNL     1     -42.978  56.168 -50.280  1.00  0.00    -0.324 N 
HETATM   11  H   UNL     1     -41.659  60.276 -52.479  1.00  0.00     0.165 HD
HETATM   12  H   UNL     1     -43.342  55.830 -49.403  1.00  0.00     0.165 HD
ENDROOT
BRANCH   1  13
HETATM   13  C   UNL     1     -41.006  54.904 -50.897  1.00  0.00    -0.020 A 
HETATM   14  C   UNL     1     -40.803  54.428 -52.203  1.00  0.00     0.011 A 
HETATM   15  C   UNL     1     -40.334  53.132 -52.434  1.00  0.00     0.007 A 
HETATM   16  C   UNL     1     -40.068  52.275 -51.364  1.00  0.00    -0.062 A 
HETATM   17  C   UNL     1     -39.589  50.875 -51.601  1.00  0.00     0.048 C 
HETATM   18  C   UNL     1     -40.260  52.741 -50.058  1.00  0.00     0.007 A 
HETATM   19  C   UNL     1     -40.726  54.039 -49.826  1.00  0.00     0.011 A 
ENDBRANCH   1  13
BRANCH   4  20
HETATM   20  C   UNL     1     -43.162  58.589 -54.326  1.00  0.00    -0.020 A 
HETATM   21  C   UNL     1     -42.186  59.148 -55.167  1.00  0.00     0.011 A 
HETATM   22  C   UNL     1     -42.359  59.175 -56.554  1.00  0.00     0.007 A 
HETATM   23  C   UNL     1     -43.515  58.647 -57.134  1.00  0.00    -0.062 A 
HETATM   24  C   UNL     1     -43.727  58.706 -58.617  1.00  0.00     0.048 C 
HETATM   25  C   UNL     1     -44.486  58.073 -56.306  1.00  0.00     0.007 A 
HETATM   26  C   UNL     1     -44.312  58.044 -54.920  1.00  0.00     0.011 A 
ENDBRANCH   4  20
TORSDOF 2
ENDMDL
MODEL 7
REMARK VINA RESULT:      -7.4      2.786      7.314
REMARK  2 active torsions:
REMARK  status: ('A' for Active; 'I' for Inactive)
REMARK    1  A    between atoms: C_5  and  C_6 
REMARK    2  A    between atoms: C_9  and  C_10 
ROOT
HETATM    1  C   UNL     1     -42.150  56.359 -53.730  1.00  0.00     0.220 C 
HETATM    2  N   UNL     1     -43.145  57.228 -53.125  1.00  0.00    -0.126 NA
HETATM    3  N   UNL     1     -42.487  58.450 -52.786  1.00  0.00    -0.126 NA
HETATM    4  C   UNL     1     -43.481  59.509 -52.863  1.00  0.00     0.220 C 
HETATM    5  N   UNL     1     -44.591  58.885 -53.533  1.00  0.00    -0.324 N 
HETATM    6  C   UNL     1     -44.336  57.544 -53.769  1.00  0.00     0.315 C 
HETATM    7  O   UNL     1     -45.016  56.822 -54.477  1.00  0.00    -0.252 OA
HETATM    8  C   UNL     1     -41.285  58.503 -53.482  1.00  0.00     0.315 C 
HETATM    9  O   UNL     1     -40.605  59.487 -53.717  1.00  0.00    -0.252 OA
HETATM   10  N   UNL     1     -41.024  57.227 -53.952  1.00  0.00    -0.324 N 
HETATM   11  H   UNL     1     -45.368  59.367 -53.956  1.00  0.00     0.165 HD
HETATM   12  H   UNL     1     -40.246  57.030 -54.562  1.00  0.00     0.165 HD
ENDROOT
BRANCH   1  13
HETATM   13  C   UNL     1     -41.742  55.193 -52.850  1.00  0.00    -0.020 A 
HETATM   14  C   UNL     1     -42.078  55.130 -51.488  1.00  0.00     0.011 A 
HETATM   15  C   UNL     1     -41.632  54.079 -50.683  1.00  0.00     0.007 A 
HETATM   16  C   UNL     1     -40.827  53.071 -51.218  1.00  0.00    -0.062 A 
HETATM   17  C   UNL     1     -40.322  51.952 -50.358  1.00  0.00     0.048 C 
HETATM   18  C   UNL     1     -40.492  53.119 -52.576  1.00  0.00     0.007 A 
HETATM   19  C   UNL     1     -40.942  54.169 -53.383  1.00  0.00     0.011 A 
ENDBRANCH   1  13
BRANCH   4  20
HETATM   20  C   UNL     1     -43.926  60.033 -51.509  1.00  0.00    -0.020 A 
HETATM   21  C   UNL     1     -45.121  59.622 -50.898  1.00  0.00     0.011 A 
HETATM   22  C   UNL     1     -45.544  60.182 -49.690  1.00  0.00     0.007 A 
HETATM   23  C   UNL     1     -44.782  61.172 -49.063  1.00  0.00    -0.062 A 
HETATM   24  C   UNL     1     -45.246  61.806 -47.787  1.00  0.00     0.048 C 
HETATM   25  C   UNL     1     -43.580  61.576 -49.654  1.00  0.00     0.007 A 
HETATM   26  C   UNL     1     -43.157  61.014 -50.862  1.00  0.00     0.011 A 
ENDBRANCH   4  20
TORSDOF 2
ENDMDL
MODEL 8
REMARK VINA RESULT:      -7.3      2.594      4.150
REMARK  2 active torsions:
REMARK  status: ('A' for Active; 'I' for Inactive)
REMARK    1  A    between atoms: C_5  and  C_6 
REMARK    2  A    between atoms: C_9  and  C_10 
ROOT
HETATM    1  C   UNL     1     -42.895  56.426 -54.659  1.00  0.00     0.220 C 
HETATM    2  N   UNL     1     -41.807  55.554 -54.249  1.00  0.00    -0.126 NA
HETATM    3  N   UNL     1     -42.196  54.217 -54.569  1.00  0.00    -0.126 NA
HETATM    4  C   UNL     1     -40.979  53.470 -54.844  1.00  0.00     0.220 C 
HETATM    5  N   UNL     1     -39.972  54.491 -54.959  1.00  0.00    -0.324 N 
HETATM    6  C   UNL     1     -40.504  55.742 -54.694  1.00  0.00     0.315 C 
HETATM    7  O   UNL     1     -39.931  56.798 -54.896  1.00  0.00    -0.252 OA
HETATM    8  C   UNL     1     -43.254  54.276 -55.469  1.00  0.00     0.315 C 
HETATM    9  O   UNL     1     -43.647  53.395 -56.212  1.00  0.00    -0.252 OA
HETATM   10  N   UNL     1     -43.748  55.570 -55.440  1.00  0.00    -0.324 N 
HETATM   11  H   UNL     1     -39.057  54.371 -55.362  1.00  0.00     0.165 HD
HETATM   12  H   UNL     1     -44.467  55.882 -56.074  1.00  0.00     0.165 HD
ENDROOT
BRANCH   1  13
HETATM   13  C   UNL     1     -43.674  57.016 -53.499  1.00  0.00    -0.020 A 
HETATM   14  C   UNL     1     -44.453  58.178 -53.635  1.00  0.00     0.011 A 
HETATM   15  C   UNL     1     -45.107  58.740 -52.535  1.00  0.00     0.007 A 
HETATM   16  C   UNL     1     -44.988  58.161 -51.270  1.00  0.00    -0.062 A 
HETATM   17  C   UNL     1     -45.664  58.770 -50.078  1.00  0.00     0.048 C 
HETATM   18  C   UNL     1     -44.221  56.999 -51.124  1.00  0.00     0.007 A 
HETATM   19  C   UNL     1     -43.569  56.435 -52.225  1.00  0.00     0.011 A 
ENDBRANCH   1  13
BRANCH   4  20
HETATM   20  C   UNL     1     -40.597  52.493 -53.746  1.00  0.00    -0.020 A 
HETATM   21  C   UNL     1     -40.505  52.874 -52.398  1.00  0.00     0.011 A 
HETATM   22  C   UNL     1     -40.072  51.973 -51.421  1.00  0.00     0.007 A 
HETATM   23  C   UNL     1     -39.718  50.667 -51.770  1.00  0.00    -0.062 A 
HETATM   24  C   UNL     1     -39.216  49.705 -50.736  1.00  0.00     0.048 C 
HETATM   25  C   UNL     1     -39.822  50.272 -53.108  1.00  0.00     0.007 A 
HETATM   26  C   UNL     1     -40.257  51.173 -54.083  1.00  0.00     0.011 A 
ENDBRANCH   4  20
TORSDOF 2
ENDMDL
MODEL 9
REMARK VINA RESULT:      -7.3      3.717      6.792
REMARK  2 active torsions:
REMARK  status: ('A' for Active; 'I' for Inactive)
REMARK    1  A    between atoms: C_5  and  C_6 
REMARK    2  A    between atoms: C_9  and  C_10 
ROOT
HETATM    1  C   UNL     1     -42.363  56.317 -53.325  1.00  0.00     0.220 C 
HETATM    2  N   UNL     1     -42.847  56.932 -54.549  1.00  0.00    -0.126 NA
HETATM    3  N   UNL     1     -42.171  56.297 -55.635  1.00  0.00    -0.126 NA
HETATM    4  C   UNL     1     -43.065  56.340 -56.782  1.00  0.00     0.220 C 
HETATM    5  N   UNL     1     -44.327  56.733 -56.213  1.00  0.00    -0.324 N 
HETATM    6  C   UNL     1     -44.201  56.991 -54.858  1.00  0.00     0.315 C 
HETATM    7  O   UNL     1     -45.134  57.161 -54.093  1.00  0.00    -0.252 OA
HETATM    8  C   UNL     1     -41.616  55.112 -55.168  1.00  0.00     0.315 C 
HETATM    9  O   UNL     1     -41.250  54.153 -55.824  1.00  0.00    -0.252 OA
HETATM   10  N   UNL     1     -41.625  55.170 -53.784  1.00  0.00    -0.324 N 
HETATM   11  H   UNL     1     -45.225  56.652 -56.663  1.00  0.00     0.165 HD
HETATM   12  H   UNL     1     -41.349  54.386 -53.213  1.00  0.00     0.165 HD
ENDROOT
BRANCH   1  13
HETATM   13  C   UNL     1     -41.462  57.219 -52.503  1.00  0.00    -0.020 A 
HETATM   14  C   UNL     1     -41.501  57.238 -51.099  1.00  0.00     0.011 A 
HETATM   15  C   UNL     1     -40.710  58.127 -50.367  1.00  0.00     0.007 A 
HETATM   16  C   UNL     1     -39.868  59.028 -51.022  1.00  0.00    -0.062 A 
HETATM   17  C   UNL     1     -39.033  60.003 -50.248  1.00  0.00     0.048 C 
HETATM   18  C   UNL     1     -39.814  59.013 -52.420  1.00  0.00     0.007 A 
HETATM   19  C   UNL     1     -40.604  58.121 -53.153  1.00  0.00     0.011 A 
ENDBRANCH   1  13
BRANCH   4  20
HETATM   20  C   UNL     1     -42.648  57.338 -57.847  1.00  0.00    -0.020 A 
HETATM   21  C   UNL     1     -42.312  58.667 -57.545  1.00  0.00     0.011 A 
HETATM   22  C   UNL     1     -42.011  59.584 -58.556  1.00  0.00     0.007 A 
HETATM   23  C   UNL     1     -42.044  59.194 -59.897  1.00  0.00    -0.062 A 
HETATM   24  C   UNL     1     -41.760  60.180 -60.991  1.00  0.00     0.048 C 
HETATM   25  C   UNL     1     -42.361  57.868 -60.210  1.00  0.00     0.007 A 
HETATM   26  C   UNL     1     -42.660  56.951 -59.198  1.00  0.00     0.011 A 
ENDBRANCH   4  20
TORSDOF 2
ENDMDL
MODEL 10
REMARK VINA RESULT:      -7.2     16.053     19.008
REMARK  2 active torsions:
REMARK  status: ('A' for Active; 'I' for Inactive)
REMARK    1  A    between atoms: C_5  and  C_6 
REMARK    2  A    between atoms: C_9  and  C_10 
ROOT
HETATM    1  C   UNL     1     -33.895  40.462 -54.371  1.00  0.00     0.220 C 
HETATM    2  N   UNL     1     -34.880  40.692 -55.414  1.00  0.00    -0.126 NA
HETATM    3  N   UNL     1     -35.909  39.716 -55.244  1.00  0.00    -0.126 NA
HETATM    4  C   UNL     1     -37.146  40.306 -55.730  1.00  0.00     0.220 C 
HETATM    5  N   UNL     1     -36.822  41.700 -55.880  1.00  0.00    -0.324 N 
HETATM    6  C   UNL     1     -35.486  41.930 -55.594  1.00  0.00     0.315 C 
HETATM    7  O   UNL     1     -34.984  43.032 -55.460  1.00  0.00    -0.252 OA
HETATM    8  C   UNL     1     -35.791  39.178 -53.967  1.00  0.00     0.315 C 
HETATM    9  O   UNL     1     -36.639  38.575 -53.334  1.00  0.00    -0.252 OA
HETATM   10  N   UNL     1     -34.540  39.528 -53.487  1.00  0.00    -0.324 N 
HETATM   11  H   UNL     1     -37.486  42.449 -55.983  1.00  0.00     0.165 HD
HETATM   12  H   UNL     1     -34.253  39.324 -52.542  1.00  0.00     0.165 HD
ENDROOT
BRANCH   1  13
HETATM   13  C   UNL     1     -32.591  39.877 -54.882  1.00  0.00    -0.020 A 
HETATM   14  C   UNL     1     -32.026  40.266 -56.108  1.00  0.00     0.011 A 
HETATM   15  C   UNL     1     -30.861  39.663 -56.588  1.00  0.00     0.007 A 
HETATM   16  C   UNL     1     -30.238  38.648 -55.858  1.00  0.00    -0.062 A 
HETATM   17  C   UNL     1     -29.001  37.977 -56.376  1.00  0.00     0.048 C 
HETATM   18  C   UNL     1     -30.787  38.258 -54.632  1.00  0.00     0.007 A 
HETATM   19  C   UNL     1     -31.952  38.864 -54.150  1.00  0.00     0.011 A 
ENDBRANCH   1  13
BRANCH   4  20
HETATM   20  C   UNL     1     -37.613  39.741 -57.060  1.00  0.00    -0.020 A 
HETATM   21  C   UNL     1     -37.610  38.365 -57.338  1.00  0.00     0.011 A 
HETATM   22  C   UNL     1     -37.968  37.881 -58.599  1.00  0.00     0.007 A 
HETATM   23  C   UNL     1     -38.336  38.765 -59.617  1.00  0.00    -0.062 A 
HETATM   24  C   UNL     1     -38.685  38.259 -60.985  1.00  0.00     0.048 C 
HETATM   25  C   UNL     1     -38.360  40.137 -59.347  1.00  0.00     0.007 A 
HETATM   26  C   UNL     1     -38.003  40.620 -58.085  1.00  0.00     0.011 A 
ENDBRANCH   4  20
TORSDOF 2
ENDMDL
