MODEL 1
REMARK VINA RESULT:      -8.5      0.000      0.000
REMARK  7 active torsions:
REMARK  status: ('A' for Active; 'I' for Inactive)
REMARK    1  A    between atoms: O_2  and  C_3 
REMARK    2  A    between atoms: C_6  and  C_7 
REMARK    3  A    between atoms: C_11  and  C_12 
REMARK       I    between atoms: C_12  and  N_13 
REMARK    4  A    between atoms: N_13  and  N_14 
REMARK       I    between atoms: N_14  and  C_15 
REMARK    5  A    between atoms: C_15  and  C_16 
REMARK    6  A    between atoms: C_16  and  C_17 
REMARK    7  A    between atoms: C_17  and  C_18 
ROOT
HETATM    1  C   UNL     1     -44.686  57.874 -51.053  1.00  0.00     0.288 C 
HETATM    2  N   UNL     1     -43.915  58.966 -50.716  1.00  0.00    -0.262 N 
HETATM    3  O   UNL     1     -45.869  57.794 -50.725  1.00  0.00    -0.264 OA
HETATM    4  H   UNL     1     -42.946  59.090 -50.999  1.00  0.00     0.190 HD
ENDROOT
BRANCH   1   5
HETATM    5  C   UNL     1     -44.024  56.858 -51.819  1.00  0.00     0.121 A 
HETATM    6  N   UNL     1     -44.254  56.703 -53.157  1.00  0.00    -0.272 N 
HETATM    7  N   UNL     1     -43.524  55.739 -53.734  1.00  0.00    -0.174 NA
HETATM    8  H   UNL     1     -44.894  57.243 -53.732  1.00  0.00     0.189 HD
HETATM    9  C   UNL     1     -42.794  55.220 -52.734  1.00  0.00     0.089 A 
HETATM   10  C   UNL     1     -43.089  55.889 -51.513  1.00  0.00     0.071 A 
BRANCH   9  11
HETATM   11  C   UNL     1     -41.826  54.143 -52.964  1.00  0.00    -0.005 A 
HETATM   12  C   UNL     1     -41.069  53.632 -51.899  1.00  0.00     0.016 A 
HETATM   13  C   UNL     1     -40.172  52.573 -52.092  1.00  0.00     0.037 A 
HETATM   14  C   UNL     1     -40.018  52.010 -53.357  1.00  0.00     0.068 A 
HETATM   15  C   UNL     1     -40.748  52.530 -54.428  1.00  0.00     0.037 A 
HETATM   16  C   UNL     1     -41.649  53.585 -54.236  1.00  0.00     0.016 A 
BRANCH  14  17
HETATM   17  O   UNL     1     -39.191  50.970 -53.678  1.00  0.00    -0.356 OA
HETATM   18  C   UNL     1     -39.754  49.928 -54.465  1.00  0.00     0.210 C 
ENDBRANCH  14  17
ENDBRANCH   9  11
ENDBRANCH   1   5
BRANCH   2  19
HETATM   19  N   UNL     1     -44.513  60.033 -50.039  1.00  0.00    -0.267 N 
HETATM   20  C   UNL     1     -43.783  61.191 -49.880  1.00  0.00     0.236 C 
HETATM   21  O   UNL     1     -42.606  61.287 -50.220  1.00  0.00    -0.272 OA
HETATM   22  H   UNL     1     -45.521  59.977 -49.900  1.00  0.00     0.190 HD
BRANCH  20  23
HETATM   23  C   UNL     1     -44.551  62.326 -49.249  1.00  0.00     0.109 C 
BRANCH  23  24
HETATM   24  C   UNL     1     -45.602  61.799 -48.276  1.00  0.00     0.048 C 
BRANCH  24  25
HETATM   25  C   UNL     1     -45.222  62.071 -46.840  1.00  0.00    -0.058 A 
HETATM   26  C   UNL     1     -45.309  63.367 -46.313  1.00  0.00     0.009 A 
HETATM   27  C   UNL     1     -44.949  63.616 -44.986  1.00  0.00     0.024 A 
HETATM   28  C   UNL     1     -44.498  62.572 -44.183  1.00  0.00     0.034 A 
HETATM   29 CL   UNL     1     -44.053  62.880 -42.550  1.00  0.00    -0.084 Cl
HETATM   30  C   UNL     1     -44.404  61.280 -44.694  1.00  0.00     0.024 A 
HETATM   31  C   UNL     1     -44.766  61.030 -46.019  1.00  0.00     0.009 A 
ENDBRANCH  24  25
ENDBRANCH  23  24
ENDBRANCH  20  23
ENDBRANCH   2  19
TORSDOF 7
ENDMDL
MODEL 2
REMARK VINA RESULT:      -8.4      1.081      1.412
REMARK  7 active torsions:
REMARK  status: ('A' for Active; 'I' for Inactive)
REMARK    1  A    between atoms: O_2  and  C_3 
REMARK    2  A    between atoms: C_6  and  C_7 
REMARK    3  A    between atoms: C_11  and  C_12 
REMARK       I    between atoms: C_12  and  N_13 
REMARK    4  A    between atoms: N_13  and  N_14 
REMARK       I    between atoms: N_14  and  C_15 
REMARK    5  A    between atoms: C_15  and  C_16 
REMARK    6  A    between atoms: C_16  and  C_17 
REMARK    7  A    between atoms: C_17  and  C_18 
ROOT
HETATM    1  C   UNL     1     -42.778  58.920 -51.573  1.00  0.00     0.288 C 
HETATM    2  N   UNL     1     -43.759  59.116 -50.625  1.00  0.00    -0.262 N 
HETATM    3  O   UNL     1     -42.099  59.852 -52.001  1.00  0.00    -0.264 OA
HETATM    4  H   UNL     1     -44.316  58.369 -50.217  1.00  0.00     0.190 HD
ENDROOT
BRANCH   1   5
HETATM    5  C   UNL     1     -42.593  57.564 -52.006  1.00  0.00     0.121 A 
HETATM    6  N   UNL     1     -43.575  56.882 -52.667  1.00  0.00    -0.272 N 
HETATM    7  N   UNL     1     -43.228  55.644 -53.042  1.00  0.00    -0.174 NA
HETATM    8  H   UNL     1     -44.502  57.223 -52.902  1.00  0.00     0.189 HD
HETATM    9  C   UNL     1     -41.971  55.490 -52.595  1.00  0.00     0.089 A 
HETATM   10  C   UNL     1     -41.541  56.673 -51.928  1.00  0.00     0.071 A 
BRANCH   9  11
HETATM   11  C   UNL     1     -41.211  54.261 -52.836  1.00  0.00    -0.005 A 
HETATM   12  C   UNL     1     -40.657  53.549 -51.761  1.00  0.00     0.016 A 
HETATM   13  C   UNL     1     -39.966  52.349 -51.969  1.00  0.00     0.037 A 
HETATM   14  C   UNL     1     -39.815  51.843 -53.259  1.00  0.00     0.068 A 
HETATM   15  C   UNL     1     -40.340  52.559 -54.336  1.00  0.00     0.037 A 
HETATM   16  C   UNL     1     -41.036  53.756 -54.130  1.00  0.00     0.016 A 
BRANCH  14  17
HETATM   17  O   UNL     1     -39.177  50.682 -53.597  1.00  0.00    -0.356 OA
HETATM   18  C   UNL     1     -39.818  49.862 -54.566  1.00  0.00     0.210 C 
ENDBRANCH  14  17
ENDBRANCH   9  11
ENDBRANCH   1   5
BRANCH   2  19
HETATM   19  N   UNL     1     -43.943  60.396 -50.097  1.00  0.00    -0.267 N 
HETATM   20  C   UNL     1     -45.080  60.635 -49.356  1.00  0.00     0.236 C 
HETATM   21  O   UNL     1     -45.975  59.803 -49.225  1.00  0.00    -0.272 OA
HETATM   22  H   UNL     1     -43.130  61.011 -50.097  1.00  0.00     0.190 HD
BRANCH  20  23
HETATM   23  C   UNL     1     -45.132  62.004 -48.724  1.00  0.00     0.109 C 
BRANCH  23  24
HETATM   24  C   UNL     1     -46.126  62.034 -47.567  1.00  0.00     0.048 C 
BRANCH  24  25
HETATM   25  C   UNL     1     -45.436  62.242 -46.240  1.00  0.00    -0.058 A 
HETATM   26  C   UNL     1     -45.416  63.506 -45.637  1.00  0.00     0.009 A 
HETATM   27  C   UNL     1     -44.769  63.697 -44.414  1.00  0.00     0.024 A 
HETATM   28  C   UNL     1     -44.136  62.624 -43.791  1.00  0.00     0.034 A 
HETATM   29 CL   UNL     1     -43.338  62.859 -42.285  1.00  0.00    -0.084 Cl
HETATM   30  C   UNL     1     -44.145  61.362 -44.380  1.00  0.00     0.024 A 
HETATM   31  C   UNL     1     -44.794  61.171 -45.601  1.00  0.00     0.009 A 
ENDBRANCH  24  25
ENDBRANCH  23  24
ENDBRANCH  20  23
ENDBRANCH   2  19
TORSDOF 7
ENDMDL
MODEL 3
REMARK VINA RESULT:      -8.4      7.939      9.745
REMARK  7 active torsions:
REMARK  status: ('A' for Active; 'I' for Inactive)
REMARK    1  A    between atoms: O_2  and  C_3 
REMARK    2  A    between atoms: C_6  and  C_7 
REMARK    3  A    between atoms: C_11  and  C_12 
REMARK       I    between atoms: C_12  and  N_13 
REMARK    4  A    between atoms: N_13  and  N_14 
REMARK       I    between atoms: N_14  and  C_15 
REMARK    5  A    between atoms: C_15  and  C_16 
REMARK    6  A    between atoms: C_16  and  C_17 
REMARK    7  A    between atoms: C_17  and  C_18 
ROOT
HETATM    1  C   UNL     1     -42.866  57.042 -56.949  1.00  0.00     0.288 C 
HETATM    2  N   UNL     1     -41.809  57.381 -57.766  1.00  0.00    -0.262 N 
HETATM    3  O   UNL     1     -43.930  57.658 -56.981  1.00  0.00    -0.264 OA
HETATM    4  H   UNL     1     -40.927  56.874 -57.799  1.00  0.00     0.190 HD
ENDROOT
BRANCH   1   5
HETATM    5  C   UNL     1     -42.646  55.921 -56.080  1.00  0.00     0.121 A 
HETATM    6  N   UNL     1     -43.614  54.982 -55.862  1.00  0.00    -0.272 N 
HETATM    7  N   UNL     1     -43.235  53.976 -55.061  1.00  0.00    -0.174 NA
HETATM    8  H   UNL     1     -44.553  54.971 -56.250  1.00  0.00     0.189 HD
HETATM    9  C   UNL     1     -41.971  54.271 -54.719  1.00  0.00     0.089 A 
HETATM   10  C   UNL     1     -41.569  55.492 -55.330  1.00  0.00     0.071 A 
BRANCH   9  11
HETATM   11  C   UNL     1     -41.178  53.385 -53.862  1.00  0.00    -0.005 A 
HETATM   12  C   UNL     1     -41.045  53.657 -52.492  1.00  0.00     0.016 A 
HETATM   13  C   UNL     1     -40.328  52.798 -51.650  1.00  0.00     0.037 A 
HETATM   14  C   UNL     1     -39.729  51.651 -52.168  1.00  0.00     0.068 A 
HETATM   15  C   UNL     1     -39.833  51.387 -53.535  1.00  0.00     0.037 A 
HETATM   16  C   UNL     1     -40.554  52.242 -54.377  1.00  0.00     0.016 A 
BRANCH  14  17
HETATM   17  O   UNL     1     -39.015  50.726 -51.457  1.00  0.00    -0.356 OA
HETATM   18  C   UNL     1     -39.729  49.584 -51.002  1.00  0.00     0.210 C 
ENDBRANCH  14  17
ENDBRANCH   9  11
ENDBRANCH   1   5
BRANCH   2  19
HETATM   19  N   UNL     1     -41.976  58.411 -58.695  1.00  0.00    -0.267 N 
HETATM   20  C   UNL     1     -42.117  58.071 -60.023  1.00  0.00     0.236 C 
HETATM   21  O   UNL     1     -42.006  56.916 -60.429  1.00  0.00    -0.272 OA
HETATM   22  H   UNL     1     -42.207  59.330 -58.320  1.00  0.00     0.190 HD
BRANCH  20  23
HETATM   23  C   UNL     1     -42.416  59.236 -60.933  1.00  0.00     0.109 C 
BRANCH  23  24
HETATM   24  C   UNL     1     -42.686  60.503 -60.127  1.00  0.00     0.048 C 
BRANCH  24  25
HETATM   25  C   UNL     1     -41.544  61.485 -60.226  1.00  0.00    -0.058 A 
HETATM   26  C   UNL     1     -41.161  62.011 -61.467  1.00  0.00     0.009 A 
HETATM   27  C   UNL     1     -40.098  62.913 -61.556  1.00  0.00     0.024 A 
HETATM   28  C   UNL     1     -39.412  63.290 -60.405  1.00  0.00     0.034 A 
HETATM   29 CL   UNL     1     -38.102  64.399 -60.515  1.00  0.00    -0.084 Cl
HETATM   30  C   UNL     1     -39.779  62.774 -59.165  1.00  0.00     0.024 A 
HETATM   31  C   UNL     1     -40.843  61.874 -59.075  1.00  0.00     0.009 A 
ENDBRANCH  24  25
ENDBRANCH  23  24
ENDBRANCH  20  23
ENDBRANCH   2  19
TORSDOF 7
ENDMDL
MODEL 4
REMARK VINA RESULT:      -8.3      7.942     11.691
REMARK  7 active torsions:
REMARK  status: ('A' for Active; 'I' for Inactive)
REMARK    1  A    between atoms: O_2  and  C_3 
REMARK    2  A    between atoms: C_6  and  C_7 
REMARK    3  A    between atoms: C_11  and  C_12 
REMARK       I    between atoms: C_12  and  N_13 
REMARK    4  A    between atoms: N_13  and  N_14 
REMARK       I    between atoms: N_14  and  C_15 
REMARK    5  A    between atoms: C_15  and  C_16 
REMARK    6  A    between atoms: C_16  and  C_17 
REMARK    7  A    between atoms: C_17  and  C_18 
ROOT
HETATM    1  C   UNL     1     -43.276  56.535 -58.188  1.00  0.00     0.288 C 
HETATM    2  N   UNL     1     -43.300  55.809 -57.016  1.00  0.00    -0.262 N 
HETATM    3  O   UNL     1     -42.218  56.833 -58.741  1.00  0.00    -0.264 OA
HETATM    4  H   UNL     1     -44.151  55.509 -56.548  1.00  0.00     0.190 HD
ENDROOT
BRANCH   1   5
HETATM    5  C   UNL     1     -44.558  56.901 -58.720  1.00  0.00     0.121 A 
HETATM    6  N   UNL     1     -45.584  57.297 -57.910  1.00  0.00    -0.272 N 
HETATM    7  N   UNL     1     -46.699  57.647 -58.565  1.00  0.00    -0.174 NA
HETATM    8  H   UNL     1     -45.572  57.362 -56.896  1.00  0.00     0.189 HD
HETATM    9  C   UNL     1     -46.407  57.455 -59.862  1.00  0.00     0.089 A 
HETATM   10  C   UNL     1     -45.074  56.975 -59.998  1.00  0.00     0.071 A 
BRANCH   9  11
HETATM   11  C   UNL     1     -47.372  57.759 -60.923  1.00  0.00    -0.005 A 
HETATM   12  C   UNL     1     -48.044  56.722 -61.586  1.00  0.00     0.016 A 
HETATM   13  C   UNL     1     -49.002  56.995 -62.571  1.00  0.00     0.037 A 
HETATM   14  C   UNL     1     -49.299  58.313 -62.911  1.00  0.00     0.068 A 
HETATM   15  C   UNL     1     -48.615  59.350 -62.274  1.00  0.00     0.037 A 
HETATM   16  C   UNL     1     -47.662  59.080 -61.285  1.00  0.00     0.016 A 
BRANCH  14  17
HETATM   17  O   UNL     1     -50.217  58.716 -63.840  1.00  0.00    -0.356 OA
HETATM   18  C   UNL     1     -51.474  59.159 -63.344  1.00  0.00     0.210 C 
ENDBRANCH  14  17
ENDBRANCH   9  11
ENDBRANCH   1   5
BRANCH   2  19
HETATM   19  N   UNL     1     -42.093  55.349 -56.481  1.00  0.00    -0.267 N 
HETATM   20  C   UNL     1     -41.764  55.735 -55.200  1.00  0.00     0.236 C 
HETATM   21  O   UNL     1     -42.434  56.538 -54.554  1.00  0.00    -0.272 OA
HETATM   22  H   UNL     1     -41.638  54.582 -56.974  1.00  0.00     0.190 HD
BRANCH  20  23
HETATM   23  C   UNL     1     -40.509  55.092 -54.663  1.00  0.00     0.109 C 
BRANCH  23  24
HETATM   24  C   UNL     1     -40.366  53.662 -55.175  1.00  0.00     0.048 C 
BRANCH  24  25
HETATM   25  C   UNL     1     -40.138  52.684 -54.048  1.00  0.00    -0.058 A 
HETATM   26  C   UNL     1     -40.187  53.109 -52.713  1.00  0.00     0.009 A 
HETATM   27  C   UNL     1     -39.966  52.202 -51.673  1.00  0.00     0.024 A 
HETATM   28  C   UNL     1     -39.693  50.868 -51.964  1.00  0.00     0.034 A 
HETATM   29 CL   UNL     1     -39.421  49.752 -50.683  1.00  0.00    -0.084 Cl
HETATM   30  C   UNL     1     -39.639  50.432 -53.286  1.00  0.00     0.024 A 
HETATM   31  C   UNL     1     -39.862  51.337 -54.325  1.00  0.00     0.009 A 
ENDBRANCH  24  25
ENDBRANCH  23  24
ENDBRANCH  20  23
ENDBRANCH   2  19
TORSDOF 7
ENDMDL
MODEL 5
REMARK VINA RESULT:      -8.1     18.992     22.036
REMARK  7 active torsions:
REMARK  status: ('A' for Active; 'I' for Inactive)
REMARK    1  A    between atoms: O_2  and  C_3 
REMARK    2  A    between atoms: C_6  and  C_7 
REMARK    3  A    between atoms: C_11  and  C_12 
REMARK       I    between atoms: C_12  and  N_13 
REMARK    4  A    between atoms: N_13  and  N_14 
REMARK       I    between atoms: N_14  and  C_15 
REMARK    5  A    between atoms: C_15  and  C_16 
REMARK    6  A    between atoms: C_16  and  C_17 
REMARK    7  A    between atoms: C_17  and  C_18 
ROOT
HETATM    1  C   UNL     1     -34.099  39.977 -52.288  1.00  0.00     0.288 C 
HETATM    2  N   UNL     1     -33.851  41.085 -53.070  1.00  0.00    -0.262 N 
HETATM    3  O   UNL     1     -35.008  39.191 -52.552  1.00  0.00    -0.264 OA
HETATM    4  H   UNL     1     -33.087  41.737 -52.911  1.00  0.00     0.190 HD
ENDROOT
BRANCH   1   5
HETATM    5  C   UNL     1     -33.221  39.797 -51.168  1.00  0.00     0.121 A 
HETATM    6  N   UNL     1     -31.882  40.052 -51.258  1.00  0.00    -0.272 N 
HETATM    7  N   UNL     1     -31.210  39.878 -50.112  1.00  0.00    -0.174 NA
HETATM    8  H   UNL     1     -31.374  40.364 -52.080  1.00  0.00     0.189 HD
HETATM    9  C   UNL     1     -32.137  39.472 -49.230  1.00  0.00     0.089 A 
HETATM   10  C   UNL     1     -33.412  39.397 -49.860  1.00  0.00     0.071 A 
BRANCH   9  11
HETATM   11  C   UNL     1     -31.804  39.201 -47.829  1.00  0.00    -0.005 A 
HETATM   12  C   UNL     1     -30.750  39.887 -47.207  1.00  0.00     0.016 A 
HETATM   13  C   UNL     1     -30.446  39.673 -45.856  1.00  0.00     0.037 A 
HETATM   14  C   UNL     1     -31.192  38.766 -45.107  1.00  0.00     0.068 A 
HETATM   15  C   UNL     1     -32.226  38.061 -45.725  1.00  0.00     0.037 A 
HETATM   16  C   UNL     1     -32.535  38.276 -47.073  1.00  0.00     0.016 A 
BRANCH  14  17
HETATM   17  O   UNL     1     -31.010  38.475 -43.783  1.00  0.00    -0.356 OA
HETATM   18  C   UNL     1     -31.963  37.607 -43.185  1.00  0.00     0.210 C 
ENDBRANCH  14  17
ENDBRANCH   9  11
ENDBRANCH   1   5
BRANCH   2  19
HETATM   19  N   UNL     1     -34.615  41.282 -54.224  1.00  0.00    -0.267 N 
HETATM   20  C   UNL     1     -35.681  42.153 -54.155  1.00  0.00     0.236 C 
HETATM   21  O   UNL     1     -36.041  42.681 -53.105  1.00  0.00    -0.272 OA
HETATM   22  H   UNL     1     -34.212  40.952 -55.100  1.00  0.00     0.190 HD
BRANCH  20  23
HETATM   23  C   UNL     1     -36.368  42.398 -55.476  1.00  0.00     0.109 C 
BRANCH  23  24
HETATM   24  C   UNL     1     -35.383  42.270 -56.635  1.00  0.00     0.048 C 
BRANCH  24  25
HETATM   25  C   UNL     1     -35.990  41.538 -57.807  1.00  0.00    -0.058 A 
HETATM   26  C   UNL     1     -36.821  42.208 -58.715  1.00  0.00     0.009 A 
HETATM   27  C   UNL     1     -37.388  41.525 -59.794  1.00  0.00     0.024 A 
HETATM   28  C   UNL     1     -37.128  40.168 -59.967  1.00  0.00     0.034 A 
HETATM   29 CL   UNL     1     -37.827  39.326 -61.295  1.00  0.00    -0.084 Cl
HETATM   30  C   UNL     1     -36.306  39.487 -59.071  1.00  0.00     0.024 A 
HETATM   31  C   UNL     1     -35.738  40.171 -57.995  1.00  0.00     0.009 A 
ENDBRANCH  24  25
ENDBRANCH  23  24
ENDBRANCH  20  23
ENDBRANCH   2  19
TORSDOF 7
ENDMDL
MODEL 6
REMARK VINA RESULT:      -8.0      8.156     10.890
REMARK  7 active torsions:
REMARK  status: ('A' for Active; 'I' for Inactive)
REMARK    1  A    between atoms: O_2  and  C_3 
REMARK    2  A    between atoms: C_6  and  C_7 
REMARK    3  A    between atoms: C_11  and  C_12 
REMARK       I    between atoms: C_12  and  N_13 
REMARK    4  A    between atoms: N_13  and  N_14 
REMARK       I    between atoms: N_14  and  C_15 
REMARK    5  A    between atoms: C_15  and  C_16 
REMARK    6  A    between atoms: C_16  and  C_17 
REMARK    7  A    between atoms: C_17  and  C_18 
ROOT
HETATM    1  C   UNL     1     -42.796  56.389 -57.015  1.00  0.00     0.288 C 
HETATM    2  N   UNL     1     -43.573  55.536 -57.769  1.00  0.00    -0.262 N 
HETATM    3  O   UNL     1     -42.657  57.573 -57.317  1.00  0.00    -0.264 OA
HETATM    4  H   UNL     1     -43.746  54.561 -57.533  1.00  0.00     0.190 HD
ENDROOT
BRANCH   1   5
HETATM    5  C   UNL     1     -42.181  55.808 -55.855  1.00  0.00     0.121 A 
HETATM    6  N   UNL     1     -42.065  56.500 -54.683  1.00  0.00    -0.272 N 
HETATM    7  N   UNL     1     -41.509  55.801 -53.684  1.00  0.00    -0.174 NA
HETATM    8  H   UNL     1     -42.365  57.454 -54.505  1.00  0.00     0.189 HD
HETATM    9  C   UNL     1     -41.226  54.604 -54.221  1.00  0.00     0.089 A 
HETATM   10  C   UNL     1     -41.623  54.574 -55.588  1.00  0.00     0.071 A 
BRANCH   9  11
HETATM   11  C   UNL     1     -40.627  53.525 -53.429  1.00  0.00    -0.005 A 
HETATM   12  C   UNL     1     -40.557  53.628 -52.032  1.00  0.00     0.016 A 
HETATM   13  C   UNL     1     -40.028  52.588 -51.256  1.00  0.00     0.037 A 
HETATM   14  C   UNL     1     -39.559  51.428 -51.869  1.00  0.00     0.068 A 
HETATM   15  C   UNL     1     -39.601  51.329 -53.261  1.00  0.00     0.037 A 
HETATM   16  C   UNL     1     -40.134  52.365 -54.038  1.00  0.00     0.016 A 
BRANCH  14  17
HETATM   17  O   UNL     1     -39.033  50.338 -51.232  1.00  0.00    -0.356 OA
HETATM   18  C   UNL     1     -39.957  49.474 -50.583  1.00  0.00     0.210 C 
ENDBRANCH  14  17
ENDBRANCH   9  11
ENDBRANCH   1   5
BRANCH   2  19
HETATM   19  N   UNL     1     -44.267  56.048 -58.868  1.00  0.00    -0.267 N 
HETATM   20  C   UNL     1     -44.803  55.155 -59.771  1.00  0.00     0.236 C 
HETATM   21  O   UNL     1     -44.611  53.943 -59.700  1.00  0.00    -0.272 OA
HETATM   22  H   UNL     1     -44.531  57.031 -58.823  1.00  0.00     0.190 HD
BRANCH  20  23
HETATM   23  C   UNL     1     -45.637  55.793 -60.854  1.00  0.00     0.109 C 
BRANCH  23  24
HETATM   24  C   UNL     1     -47.030  56.140 -60.336  1.00  0.00     0.048 C 
BRANCH  24  25
HETATM   25  C   UNL     1     -47.706  57.179 -61.198  1.00  0.00    -0.058 A 
HETATM   26  C   UNL     1     -48.574  56.796 -62.228  1.00  0.00     0.009 A 
HETATM   27  C   UNL     1     -49.191  57.760 -63.029  1.00  0.00     0.024 A 
HETATM   28  C   UNL     1     -48.938  59.111 -62.805  1.00  0.00     0.034 A 
HETATM   29 CL   UNL     1     -49.697  60.298 -63.792  1.00  0.00    -0.084 Cl
HETATM   30  C   UNL     1     -48.075  59.507 -61.786  1.00  0.00     0.024 A 
HETATM   31  C   UNL     1     -47.461  58.543 -60.984  1.00  0.00     0.009 A 
ENDBRANCH  24  25
ENDBRANCH  23  24
ENDBRANCH  20  23
ENDBRANCH   2  19
TORSDOF 7
ENDMDL
MODEL 7
REMARK VINA RESULT:      -7.7      7.467      9.974
REMARK  7 active torsions:
REMARK  status: ('A' for Active; 'I' for Inactive)
REMARK    1  A    between atoms: O_2  and  C_3 
REMARK    2  A    between atoms: C_6  and  C_7 
REMARK    3  A    between atoms: C_11  and  C_12 
REMARK       I    between atoms: C_12  and  N_13 
REMARK    4  A    between atoms: N_13  and  N_14 
REMARK       I    between atoms: N_14  and  C_15 
REMARK    5  A    between atoms: C_15  and  C_16 
REMARK    6  A    between atoms: C_16  and  C_17 
REMARK    7  A    between atoms: C_17  and  C_18 
ROOT
HETATM    1  C   UNL     1     -42.762  56.118 -57.269  1.00  0.00     0.288 C 
HETATM    2  N   UNL     1     -41.971  57.217 -57.526  1.00  0.00    -0.262 N 
HETATM    3  O   UNL     1     -43.363  55.531 -58.168  1.00  0.00    -0.264 OA
HETATM    4  H   UNL     1     -41.427  57.706 -56.819  1.00  0.00     0.190 HD
ENDROOT
BRANCH   1   5
HETATM    5  C   UNL     1     -42.822  55.701 -55.897  1.00  0.00     0.121 A 
HETATM    6  N   UNL     1     -43.689  54.732 -55.478  1.00  0.00    -0.272 N 
HETATM    7  N   UNL     1     -43.588  54.427 -54.177  1.00  0.00    -0.174 NA
HETATM    8  H   UNL     1     -44.366  54.232 -56.047  1.00  0.00     0.189 HD
HETATM    9  C   UNL     1     -42.628  55.241 -53.710  1.00  0.00     0.089 A 
HETATM   10  C   UNL     1     -42.130  56.065 -54.759  1.00  0.00     0.071 A 
BRANCH   9  11
HETATM   11  C   UNL     1     -42.191  55.194 -52.312  1.00  0.00    -0.005 A 
HETATM   12  C   UNL     1     -41.396  56.222 -51.784  1.00  0.00     0.016 A 
HETATM   13  C   UNL     1     -41.006  56.216 -50.438  1.00  0.00     0.037 A 
HETATM   14  C   UNL     1     -41.404  55.177 -49.600  1.00  0.00     0.068 A 
HETATM   15  C   UNL     1     -42.173  54.136 -50.124  1.00  0.00     0.037 A 
HETATM   16  C   UNL     1     -42.568  54.143 -51.467  1.00  0.00     0.016 A 
BRANCH  14  17
HETATM   17  O   UNL     1     -41.105  55.057 -48.271  1.00  0.00    -0.356 OA
HETATM   18  C   UNL     1     -40.323  53.932 -47.892  1.00  0.00     0.210 C 
ENDBRANCH  14  17
ENDBRANCH   9  11
ENDBRANCH   1   5
BRANCH   2  19
HETATM   19  N   UNL     1     -41.801  57.633 -58.849  1.00  0.00    -0.267 N 
HETATM   20  C   UNL     1     -42.494  58.746 -59.273  1.00  0.00     0.236 C 
HETATM   21  O   UNL     1     -43.322  59.321 -58.570  1.00  0.00    -0.272 OA
HETATM   22  H   UNL     1     -41.012  57.233 -59.355  1.00  0.00     0.190 HD
BRANCH  20  23
HETATM   23  C   UNL     1     -42.154  59.192 -60.673  1.00  0.00     0.109 C 
BRANCH  23  24
HETATM   24  C   UNL     1     -42.576  60.640 -60.902  1.00  0.00     0.048 C 
BRANCH  24  25
HETATM   25  C   UNL     1     -41.439  61.602 -60.648  1.00  0.00    -0.058 A 
HETATM   26  C   UNL     1     -40.777  62.220 -61.717  1.00  0.00     0.009 A 
HETATM   27  C   UNL     1     -39.720  63.103 -61.478  1.00  0.00     0.024 A 
HETATM   28  C   UNL     1     -39.320  63.367 -60.171  1.00  0.00     0.034 A 
HETATM   29 CL   UNL     1     -38.018  64.452 -59.878  1.00  0.00    -0.084 Cl
HETATM   30  C   UNL     1     -39.968  62.757 -59.099  1.00  0.00     0.024 A 
HETATM   31  C   UNL     1     -41.026  61.877 -59.337  1.00  0.00     0.009 A 
ENDBRANCH  24  25
ENDBRANCH  23  24
ENDBRANCH  20  23
ENDBRANCH   2  19
TORSDOF 7
ENDMDL
MODEL 8
REMARK VINA RESULT:      -7.5     19.100     21.821
REMARK  7 active torsions:
REMARK  status: ('A' for Active; 'I' for Inactive)
REMARK    1  A    between atoms: O_2  and  C_3 
REMARK    2  A    between atoms: C_6  and  C_7 
REMARK    3  A    between atoms: C_11  and  C_12 
REMARK       I    between atoms: C_12  and  N_13 
REMARK    4  A    between atoms: N_13  and  N_14 
REMARK       I    between atoms: N_14  and  C_15 
REMARK    5  A    between atoms: C_15  and  C_16 
REMARK    6  A    between atoms: C_16  and  C_17 
REMARK    7  A    between atoms: C_17  and  C_18 
ROOT
HETATM    1  C   UNL     1     -35.210  41.655 -52.849  1.00  0.00     0.288 C 
HETATM    2  N   UNL     1     -34.804  41.719 -54.165  1.00  0.00    -0.262 N 
HETATM    3  O   UNL     1     -36.316  42.062 -52.494  1.00  0.00    -0.264 OA
HETATM    4  H   UNL     1     -33.916  41.359 -54.507  1.00  0.00     0.190 HD
ENDROOT
BRANCH   1   5
HETATM    5  C   UNL     1     -34.270  41.071 -51.935  1.00  0.00     0.121 A 
HETATM    6  N   UNL     1     -32.931  41.041 -52.205  1.00  0.00    -0.272 N 
HETATM    7  N   UNL     1     -32.185  40.502 -51.232  1.00  0.00    -0.174 NA
HETATM    8  H   UNL     1     -32.469  41.390 -53.040  1.00  0.00     0.189 HD
HETATM    9  C   UNL     1     -33.067  40.142 -50.285  1.00  0.00     0.089 A 
HETATM   10  C   UNL     1     -34.389  40.473 -50.697  1.00  0.00     0.071 A 
BRANCH   9  11
HETATM   11  C   UNL     1     -32.638  39.535 -49.022  1.00  0.00    -0.005 A 
HETATM   12  C   UNL     1     -31.475  39.984 -48.379  1.00  0.00     0.016 A 
HETATM   13  C   UNL     1     -31.075  39.446 -47.150  1.00  0.00     0.037 A 
HETATM   14  C   UNL     1     -31.832  38.445 -46.545  1.00  0.00     0.068 A 
HETATM   15  C   UNL     1     -32.977  37.973 -47.191  1.00  0.00     0.037 A 
HETATM   16  C   UNL     1     -33.382  38.514 -48.418  1.00  0.00     0.016 A 
BRANCH  14  17
HETATM   17  O   UNL     1     -31.562  37.846 -45.346  1.00  0.00    -0.356 OA
HETATM   18  C   UNL     1     -31.886  38.587 -44.177  1.00  0.00     0.210 C 
ENDBRANCH  14  17
ENDBRANCH   9  11
ENDBRANCH   1   5
BRANCH   2  19
HETATM   19  N   UNL     1     -35.697  42.202 -55.125  1.00  0.00    -0.267 N 
HETATM   20  C   UNL     1     -36.577  41.311 -55.700  1.00  0.00     0.236 C 
HETATM   21  O   UNL     1     -36.541  40.103 -55.476  1.00  0.00    -0.272 OA
HETATM   22  H   UNL     1     -35.802  43.215 -55.182  1.00  0.00     0.190 HD
BRANCH  20  23
HETATM   23  C   UNL     1     -37.581  41.944 -56.630  1.00  0.00     0.109 C 
BRANCH  23  24
HETATM   24  C   UNL     1     -37.026  42.043 -58.048  1.00  0.00     0.048 C 
BRANCH  24  25
HETATM   25  C   UNL     1     -37.525  40.919 -58.925  1.00  0.00    -0.058 A 
HETATM   26  C   UNL     1     -38.357  39.921 -58.400  1.00  0.00     0.009 A 
HETATM   27  C   UNL     1     -38.810  38.878 -59.213  1.00  0.00     0.024 A 
HETATM   28  C   UNL     1     -38.429  38.828 -60.551  1.00  0.00     0.034 A 
HETATM   29 CL   UNL     1     -38.985  37.543 -61.551  1.00  0.00    -0.084 Cl
HETATM   30  C   UNL     1     -37.600  39.812 -61.086  1.00  0.00     0.024 A 
HETATM   31  C   UNL     1     -37.150  40.855 -60.274  1.00  0.00     0.009 A 
ENDBRANCH  24  25
ENDBRANCH  23  24
ENDBRANCH  20  23
ENDBRANCH   2  19
TORSDOF 7
ENDMDL
MODEL 9
REMARK VINA RESULT:      -7.5      7.914      9.863
REMARK  7 active torsions:
REMARK  status: ('A' for Active; 'I' for Inactive)
REMARK    1  A    between atoms: O_2  and  C_3 
REMARK    2  A    between atoms: C_6  and  C_7 
REMARK    3  A    between atoms: C_11  and  C_12 
REMARK       I    between atoms: C_12  and  N_13 
REMARK    4  A    between atoms: N_13  and  N_14 
REMARK       I    between atoms: N_14  and  C_15 
REMARK    5  A    between atoms: C_15  and  C_16 
REMARK    6  A    between atoms: C_16  and  C_17 
REMARK    7  A    between atoms: C_17  and  C_18 
ROOT
HETATM    1  C   UNL     1     -42.631  56.964 -56.568  1.00  0.00     0.288 C 
HETATM    2  N   UNL     1     -43.630  56.320 -57.266  1.00  0.00    -0.262 N 
HETATM    3  O   UNL     1     -42.341  58.138 -56.790  1.00  0.00    -0.264 OA
HETATM    4  H   UNL     1     -43.927  55.364 -57.087  1.00  0.00     0.190 HD
ENDROOT
BRANCH   1   5
HETATM    5  C   UNL     1     -41.972  56.181 -55.562  1.00  0.00     0.121 A 
HETATM    6  N   UNL     1     -41.552  56.731 -54.384  1.00  0.00    -0.272 N 
HETATM    7  N   UNL     1     -40.996  55.857 -53.535  1.00  0.00    -0.174 NA
HETATM    8  H   UNL     1     -41.635  57.704 -54.102  1.00  0.00     0.189 HD
HETATM    9  C   UNL     1     -41.030  54.682 -54.183  1.00  0.00     0.089 A 
HETATM   10  C   UNL     1     -41.625  54.847 -55.466  1.00  0.00     0.071 A 
BRANCH   9  11
HETATM   11  C   UNL     1     -40.536  53.447 -53.568  1.00  0.00    -0.005 A 
HETATM   12  C   UNL     1     -40.367  53.367 -52.177  1.00  0.00     0.016 A 
HETATM   13  C   UNL     1     -39.938  52.181 -51.568  1.00  0.00     0.037 A 
HETATM   14  C   UNL     1     -39.668  51.055 -52.343  1.00  0.00     0.068 A 
HETATM   15  C   UNL     1     -39.808  51.134 -53.730  1.00  0.00     0.037 A 
HETATM   16  C   UNL     1     -40.242  52.317 -54.341  1.00  0.00     0.016 A 
BRANCH  14  17
HETATM   17  O   UNL     1     -39.258  49.837 -51.876  1.00  0.00    -0.356 OA
HETATM   18  C   UNL     1     -39.577  49.533 -50.525  1.00  0.00     0.210 C 
ENDBRANCH  14  17
ENDBRANCH   9  11
ENDBRANCH   1   5
BRANCH   2  19
HETATM   19  N   UNL     1     -44.371  57.042 -58.206  1.00  0.00    -0.267 N 
HETATM   20  C   UNL     1     -44.098  56.839 -59.541  1.00  0.00     0.236 C 
HETATM   21  O   UNL     1     -43.172  56.130 -59.930  1.00  0.00    -0.272 OA
HETATM   22  H   UNL     1     -45.214  57.503 -57.866  1.00  0.00     0.190 HD
BRANCH  20  23
HETATM   23  C   UNL     1     -45.027  57.565 -60.482  1.00  0.00     0.109 C 
BRANCH  23  24
HETATM   24  C   UNL     1     -45.175  59.030 -60.080  1.00  0.00     0.048 C 
BRANCH  24  25
HETATM   25  C   UNL     1     -44.002  59.860 -60.546  1.00  0.00    -0.058 A 
HETATM   26  C   UNL     1     -42.932  60.130 -59.684  1.00  0.00     0.009 A 
HETATM   27  C   UNL     1     -41.853  60.906 -60.116  1.00  0.00     0.024 A 
HETATM   28  C   UNL     1     -41.843  61.416 -61.411  1.00  0.00     0.034 A 
HETATM   29 CL   UNL     1     -40.515  62.372 -61.943  1.00  0.00    -0.084 Cl
HETATM   30  C   UNL     1     -42.901  61.158 -62.279  1.00  0.00     0.024 A 
HETATM   31  C   UNL     1     -43.978  60.381 -61.848  1.00  0.00     0.009 A 
ENDBRANCH  24  25
ENDBRANCH  23  24
ENDBRANCH  20  23
ENDBRANCH   2  19
TORSDOF 7
ENDMDL
MODEL 10
REMARK VINA RESULT:      -7.2     18.860     20.915
REMARK  7 active torsions:
REMARK  status: ('A' for Active; 'I' for Inactive)
REMARK    1  A    between atoms: O_2  and  C_3 
REMARK    2  A    between atoms: C_6  and  C_7 
REMARK    3  A    between atoms: C_11  and  C_12 
REMARK       I    between atoms: C_12  and  N_13 
REMARK    4  A    between atoms: N_13  and  N_14 
REMARK       I    between atoms: N_14  and  C_15 
REMARK    5  A    between atoms: C_15  and  C_16 
REMARK    6  A    between atoms: C_16  and  C_17 
REMARK    7  A    between atoms: C_17  and  C_18 
ROOT
HETATM    1  C   UNL     1     -34.050  40.285 -50.647  1.00  0.00     0.288 C 
HETATM    2  N   UNL     1     -34.832  39.318 -50.053  1.00  0.00    -0.262 N 
HETATM    3  O   UNL     1     -32.928  40.558 -50.223  1.00  0.00    -0.264 OA
HETATM    4  H   UNL     1     -35.748  39.035 -50.394  1.00  0.00     0.190 HD
ENDROOT
BRANCH   1   5
HETATM    5  C   UNL     1     -34.623  40.931 -51.793  1.00  0.00     0.121 A 
HETATM    6  N   UNL     1     -34.965  42.253 -51.775  1.00  0.00    -0.272 N 
HETATM    7  N   UNL     1     -35.445  42.714 -52.938  1.00  0.00    -0.174 NA
HETATM    8  H   UNL     1     -34.876  42.896 -50.994  1.00  0.00     0.189 HD
HETATM    9  C   UNL     1     -35.441  41.649 -53.755  1.00  0.00     0.089 A 
HETATM   10  C   UNL     1     -34.942  40.506 -53.068  1.00  0.00     0.071 A 
BRANCH   9  11
HETATM   11  C   UNL     1     -35.870  41.747 -55.153  1.00  0.00    -0.005 A 
HETATM   12  C   UNL     1     -37.236  41.742 -55.475  1.00  0.00     0.016 A 
HETATM   13  C   UNL     1     -37.666  41.880 -56.802  1.00  0.00     0.037 A 
HETATM   14  C   UNL     1     -36.734  42.021 -57.828  1.00  0.00     0.068 A 
HETATM   15  C   UNL     1     -35.372  42.000 -57.518  1.00  0.00     0.037 A 
HETATM   16  C   UNL     1     -34.941  41.868 -56.193  1.00  0.00     0.016 A 
BRANCH  14  17
HETATM   17  O   UNL     1     -37.018  42.176 -59.156  1.00  0.00    -0.356 OA
HETATM   18  C   UNL     1     -37.245  40.987 -59.902  1.00  0.00     0.210 C 
ENDBRANCH  14  17
ENDBRANCH   9  11
ENDBRANCH   1   5
BRANCH   2  19
HETATM   19  N   UNL     1     -34.309  38.590 -48.980  1.00  0.00    -0.267 N 
HETATM   20  C   UNL     1     -35.157  38.259 -47.946  1.00  0.00     0.236 C 
HETATM   21  O   UNL     1     -36.318  38.659 -47.884  1.00  0.00    -0.272 OA
HETATM   22  H   UNL     1     -33.399  38.155 -49.125  1.00  0.00     0.190 HD
BRANCH  20  23
HETATM   23  C   UNL     1     -34.538  37.371 -46.896  1.00  0.00     0.109 C 
BRANCH  23  24
HETATM   24  C   UNL     1     -33.050  37.164 -47.166  1.00  0.00     0.048 C 
BRANCH  24  25
HETATM   25  C   UNL     1     -32.198  38.120 -46.366  1.00  0.00    -0.058 A 
HETATM   26  C   UNL     1     -31.257  38.939 -47.004  1.00  0.00     0.009 A 
HETATM   27  C   UNL     1     -30.463  39.817 -46.260  1.00  0.00     0.024 A 
HETATM   28  C   UNL     1     -30.606  39.874 -44.876  1.00  0.00     0.034 A 
HETATM   29 CL   UNL     1     -29.628  40.954 -43.960  1.00  0.00    -0.084 Cl
HETATM   30  C   UNL     1     -31.535  39.064 -44.228  1.00  0.00     0.024 A 
HETATM   31  C   UNL     1     -32.330  38.189 -44.972  1.00  0.00     0.009 A 
ENDBRANCH  24  25
ENDBRANCH  23  24
ENDBRANCH  20  23
ENDBRANCH   2  19
TORSDOF 7
ENDMDL
