MODEL 1
REMARK VINA RESULT:      -9.4      0.000      0.000
REMARK  3 active torsions:
REMARK  status: ('A' for Active; 'I' for Inactive)
REMARK    1  A    between atoms: C_8  and  C_9 
REMARK    2  A    between atoms: C_14  and  C_15 
REMARK    3  A    between atoms: C_17  and  O_18 
ROOT
HETATM    1  C   UNL     1     -42.801  56.590 -56.942  1.00  0.00     0.143 A 
HETATM    2  N   UNL     1     -43.779  56.824 -56.091  1.00  0.00    -0.223 NA
HETATM    3  C   UNL     1     -43.281  56.559 -54.831  1.00  0.00     0.149 A 
HETATM    4  C   UNL     1     -41.965  56.142 -54.932  1.00  0.00     0.046 A 
HETATM    5  C   UNL     1     -40.970  55.839 -53.869  1.00  0.00     0.070 C 
HETATM    6  C   UNL     1     -41.448  54.824 -52.806  1.00  0.00     0.042 C 
HETATM    7  C   UNL     1     -42.975  54.707 -52.620  1.00  0.00     0.132 C 
HETATM    8  N   UNL     1     -43.668  55.977 -52.504  1.00  0.00    -0.355 N 
HETATM    9  C   UNL     1     -44.045  56.738 -53.595  1.00  0.00     0.272 C 
HETATM   10  O   UNL     1     -44.987  57.520 -53.479  1.00  0.00    -0.266 OA
HETATM   11  N   UNL     1     -41.683  56.161 -56.275  1.00  0.00    -0.341 N 
HETATM   12  H   UNL     1     -40.795  55.947 -56.702  1.00  0.00     0.167 HD
HETATM   13  H   UNL     1     -44.317  56.096 -51.736  1.00  0.00     0.162 HD
ENDROOT
BRANCH   1  14
HETATM   14  C   UNL     1     -42.922  56.791 -58.411  1.00  0.00     0.059 A 
HETATM   15  C   UNL     1     -42.534  57.887 -59.159  1.00  0.00     0.040 A 
HETATM   16  C   UNL     1     -41.903  59.184 -58.831  1.00  0.00     0.071 C 
HETATM   17  N   UNL     1     -42.870  57.572 -60.451  1.00  0.00    -0.281 N 
HETATM   18  H   UNL     1     -42.743  58.135 -61.285  1.00  0.00     0.189 HD
HETATM   19  N   UNL     1     -43.433  56.367 -60.594  1.00  0.00    -0.179 NA
HETATM   20  C   UNL     1     -43.478  55.878 -59.347  1.00  0.00     0.067 A 
HETATM   21  C   UNL     1     -44.065  54.538 -59.092  1.00  0.00     0.073 C 
ENDBRANCH   1  14
BRANCH   6  22
HETATM   22  C   UNL     1     -40.846  53.439 -53.025  1.00  0.00    -0.049 A 
HETATM   23  C   UNL     1     -40.224  52.732 -51.979  1.00  0.00     0.044 A 
HETATM   24  C   UNL     1     -39.668  51.470 -52.203  1.00  0.00     0.068 A 
HETATM   25  C   UNL     1     -39.731  50.911 -53.480  1.00  0.00     0.037 A 
HETATM   26  C   UNL     1     -40.339  51.601 -54.528  1.00  0.00     0.003 A 
HETATM   27  C   UNL     1     -40.893  52.859 -54.302  1.00  0.00     0.007 A 
BRANCH  24  28
HETATM   28  O   UNL     1     -39.044  50.688 -51.271  1.00  0.00    -0.356 OA
HETATM   29  C   UNL     1     -39.839  49.714 -50.606  1.00  0.00     0.210 C 
ENDBRANCH  24  28
ENDBRANCH   6  22
TORSDOF 3
ENDMDL
MODEL 2
REMARK VINA RESULT:      -9.3      0.299      1.622
REMARK  3 active torsions:
REMARK  status: ('A' for Active; 'I' for Inactive)
REMARK    1  A    between atoms: C_8  and  C_9 
REMARK    2  A    between atoms: C_14  and  C_15 
REMARK    3  A    between atoms: C_17  and  O_18 
ROOT
HETATM    1  C   UNL     1     -42.870  56.269 -56.981  1.00  0.00     0.143 A 
HETATM    2  N   UNL     1     -43.797  56.549 -56.089  1.00  0.00    -0.223 NA
HETATM    3  C   UNL     1     -43.234  56.329 -54.848  1.00  0.00     0.149 A 
HETATM    4  C   UNL     1     -41.930  55.891 -55.003  1.00  0.00     0.046 A 
HETATM    5  C   UNL     1     -40.881  55.619 -53.983  1.00  0.00     0.070 C 
HETATM    6  C   UNL     1     -41.311  54.654 -52.855  1.00  0.00     0.042 C 
HETATM    7  C   UNL     1     -42.827  54.563 -52.583  1.00  0.00     0.132 C 
HETATM    8  N   UNL     1     -43.499  55.846 -52.481  1.00  0.00    -0.355 N 
HETATM    9  C   UNL     1     -43.928  56.567 -53.580  1.00  0.00     0.272 C 
HETATM   10  O   UNL     1     -44.854  57.364 -53.446  1.00  0.00    -0.266 OA
HETATM   11  N   UNL     1     -41.721  55.853 -56.358  1.00  0.00    -0.341 N 
HETATM   12  H   UNL     1     -40.860  55.611 -56.824  1.00  0.00     0.167 HD
HETATM   13  H   UNL     1     -44.104  56.003 -51.684  1.00  0.00     0.162 HD
ENDROOT
BRANCH   1  14
HETATM   14  C   UNL     1     -43.068  56.411 -58.448  1.00  0.00     0.059 A 
HETATM   15  C   UNL     1     -43.667  55.521 -59.320  1.00  0.00     0.040 A 
HETATM   16  C   UNL     1     -44.292  54.189 -59.161  1.00  0.00     0.071 C 
HETATM   17  N   UNL     1     -43.588  56.121 -60.550  1.00  0.00    -0.281 N 
HETATM   18  H   UNL     1     -43.919  55.767 -61.441  1.00  0.00     0.189 HD
HETATM   19  N   UNL     1     -42.997  57.322 -60.539  1.00  0.00    -0.179 NA
HETATM   20  C   UNL     1     -42.666  57.509 -59.254  1.00  0.00     0.067 A 
HETATM   21  C   UNL     1     -41.960  58.749 -58.840  1.00  0.00     0.073 C 
ENDBRANCH   1  14
BRANCH   6  22
HETATM   22  C   UNL     1     -40.736  53.254 -53.050  1.00  0.00    -0.049 A 
HETATM   23  C   UNL     1     -40.195  52.524 -51.975  1.00  0.00     0.044 A 
HETATM   24  C   UNL     1     -39.662  51.248 -52.176  1.00  0.00     0.068 A 
HETATM   25  C   UNL     1     -39.667  50.698 -53.459  1.00  0.00     0.037 A 
HETATM   26  C   UNL     1     -40.195  51.411 -54.534  1.00  0.00     0.003 A 
HETATM   27  C   UNL     1     -40.726  52.683 -54.331  1.00  0.00     0.007 A 
BRANCH  24  28
HETATM   28  O   UNL     1     -39.114  50.443 -51.216  1.00  0.00    -0.356 OA
HETATM   29  C   UNL     1     -39.999  49.902 -50.242  1.00  0.00     0.210 C 
ENDBRANCH  24  28
ENDBRANCH   6  22
TORSDOF 3
ENDMDL
MODEL 3
REMARK VINA RESULT:      -8.9      2.775      5.429
REMARK  3 active torsions:
REMARK  status: ('A' for Active; 'I' for Inactive)
REMARK    1  A    between atoms: C_8  and  C_9 
REMARK    2  A    between atoms: C_14  and  C_15 
REMARK    3  A    between atoms: C_17  and  O_18 
ROOT
HETATM    1  C   UNL     1     -43.000  58.084 -52.537  1.00  0.00     0.143 A 
HETATM    2  N   UNL     1     -42.694  58.328 -53.794  1.00  0.00    -0.223 NA
HETATM    3  C   UNL     1     -42.683  57.111 -54.445  1.00  0.00     0.149 A 
HETATM    4  C   UNL     1     -42.983  56.103 -53.544  1.00  0.00     0.046 A 
HETATM    5  C   UNL     1     -43.193  54.647 -53.768  1.00  0.00     0.070 C 
HETATM    6  C   UNL     1     -42.051  53.938 -54.531  1.00  0.00     0.042 C 
HETATM    7  C   UNL     1     -41.181  54.836 -55.435  1.00  0.00     0.132 C 
HETATM    8  N   UNL     1     -41.931  55.730 -56.298  1.00  0.00    -0.355 N 
HETATM    9  C   UNL     1     -42.427  56.951 -55.878  1.00  0.00     0.272 C 
HETATM   10  O   UNL     1     -42.630  57.830 -56.712  1.00  0.00    -0.266 OA
HETATM   11  N   UNL     1     -43.172  56.737 -52.343  1.00  0.00    -0.341 N 
HETATM   12  H   UNL     1     -43.441  56.303 -51.473  1.00  0.00     0.167 HD
HETATM   13  H   UNL     1     -41.692  55.754 -57.281  1.00  0.00     0.162 HD
ENDROOT
BRANCH   1  14
HETATM   14  C   UNL     1     -43.148  59.143 -51.503  1.00  0.00     0.059 A 
HETATM   15  C   UNL     1     -42.161  59.726 -50.730  1.00  0.00     0.040 A 
HETATM   16  C   UNL     1     -40.696  59.546 -50.625  1.00  0.00     0.071 C 
HETATM   17  N   UNL     1     -42.819  60.632 -49.938  1.00  0.00    -0.281 N 
HETATM   18  H   UNL     1     -42.428  61.249 -49.236  1.00  0.00     0.189 HD
HETATM   19  N   UNL     1     -44.141  60.684 -50.144  1.00  0.00    -0.179 NA
HETATM   20  C   UNL     1     -44.357  59.768 -51.099  1.00  0.00     0.067 A 
HETATM   21  C   UNL     1     -45.735  59.518 -51.592  1.00  0.00     0.073 C 
ENDBRANCH   1  14
BRANCH   6  22
HETATM   22  C   UNL     1     -41.158  53.126 -53.597  1.00  0.00    -0.049 A 
HETATM   23  C   UNL     1     -41.080  53.409 -52.220  1.00  0.00     0.044 A 
HETATM   24  C   UNL     1     -40.247  52.663 -51.384  1.00  0.00     0.068 A 
HETATM   25  C   UNL     1     -39.483  51.627 -51.925  1.00  0.00     0.037 A 
HETATM   26  C   UNL     1     -39.544  51.338 -53.288  1.00  0.00     0.003 A 
HETATM   27  C   UNL     1     -40.377  52.084 -54.120  1.00  0.00     0.007 A 
BRANCH  24  28
HETATM   28  O   UNL     1     -40.090  52.839 -50.037  1.00  0.00    -0.356 OA
HETATM   29  C   UNL     1     -39.753  54.146 -49.590  1.00  0.00     0.210 C 
ENDBRANCH  24  28
ENDBRANCH   6  22
TORSDOF 3
ENDMDL
MODEL 4
REMARK VINA RESULT:      -8.4      2.563      3.374
REMARK  3 active torsions:
REMARK  status: ('A' for Active; 'I' for Inactive)
REMARK    1  A    between atoms: C_8  and  C_9 
REMARK    2  A    between atoms: C_14  and  C_15 
REMARK    3  A    between atoms: C_17  and  O_18 
ROOT
HETATM    1  C   UNL     1     -42.678  58.539 -53.629  1.00  0.00     0.143 A 
HETATM    2  N   UNL     1     -43.781  58.246 -52.973  1.00  0.00    -0.223 NA
HETATM    3  C   UNL     1     -43.453  57.262 -52.062  1.00  0.00     0.149 A 
HETATM    4  C   UNL     1     -42.110  56.948 -52.185  1.00  0.00     0.046 A 
HETATM    5  C   UNL     1     -41.259  56.036 -51.374  1.00  0.00     0.070 C 
HETATM    6  C   UNL     1     -41.814  54.602 -51.218  1.00  0.00     0.042 C 
HETATM    7  C   UNL     1     -43.340  54.444 -51.381  1.00  0.00     0.132 C 
HETATM    8  N   UNL     1     -44.128  55.412 -50.639  1.00  0.00    -0.355 N 
HETATM    9  C   UNL     1     -44.397  56.687 -51.101  1.00  0.00     0.272 C 
HETATM   10  O   UNL     1     -45.397  57.271 -50.691  1.00  0.00    -0.266 OA
HETATM   11  N   UNL     1     -41.640  57.760 -53.186  1.00  0.00    -0.341 N 
HETATM   12  H   UNL     1     -40.687  57.818 -53.511  1.00  0.00     0.167 HD
HETATM   13  H   UNL     1     -44.887  55.066 -50.065  1.00  0.00     0.162 HD
ENDROOT
BRANCH   1  14
HETATM   14  C   UNL     1     -42.601  59.585 -54.684  1.00  0.00     0.059 A 
HETATM   15  C   UNL     1     -42.683  60.956 -54.536  1.00  0.00     0.040 A 
HETATM   16  C   UNL     1     -42.867  61.855 -53.375  1.00  0.00     0.071 C 
HETATM   17  N   UNL     1     -42.561  61.460 -55.805  1.00  0.00    -0.281 N 
HETATM   18  H   UNL     1     -42.578  62.430 -56.098  1.00  0.00     0.189 HD
HETATM   19  N   UNL     1     -42.401  60.528 -56.753  1.00  0.00    -0.179 NA
HETATM   20  C   UNL     1     -42.431  59.370 -56.078  1.00  0.00     0.067 A 
HETATM   21  C   UNL     1     -42.299  58.081 -56.804  1.00  0.00     0.073 C 
ENDBRANCH   1  14
BRANCH   6  22
HETATM   22  C   UNL     1     -41.093  53.608 -52.124  1.00  0.00    -0.049 A 
HETATM   23  C   UNL     1     -40.469  52.457 -51.606  1.00  0.00     0.044 A 
HETATM   24  C   UNL     1     -39.802  51.565 -52.450  1.00  0.00     0.068 A 
HETATM   25  C   UNL     1     -39.756  51.825 -53.821  1.00  0.00     0.037 A 
HETATM   26  C   UNL     1     -40.364  52.963 -54.348  1.00  0.00     0.003 A 
HETATM   27  C   UNL     1     -41.029  53.851 -53.504  1.00  0.00     0.007 A 
BRANCH  24  28
HETATM   28  O   UNL     1     -39.165  50.418 -52.068  1.00  0.00    -0.356 OA
HETATM   29  C   UNL     1     -39.560  49.839 -50.830  1.00  0.00     0.210 C 
ENDBRANCH  24  28
ENDBRANCH   6  22
TORSDOF 3
ENDMDL
MODEL 5
REMARK VINA RESULT:      -8.1      1.973      2.695
REMARK  3 active torsions:
REMARK  status: ('A' for Active; 'I' for Inactive)
REMARK    1  A    between atoms: C_8  and  C_9 
REMARK    2  A    between atoms: C_14  and  C_15 
REMARK    3  A    between atoms: C_17  and  O_18 
ROOT
HETATM    1  C   UNL     1     -42.577  57.296 -54.450  1.00  0.00     0.143 A 
HETATM    2  N   UNL     1     -43.633  57.322 -53.663  1.00  0.00    -0.223 NA
HETATM    3  C   UNL     1     -43.242  56.780 -52.455  1.00  0.00     0.149 A 
HETATM    4  C   UNL     1     -41.911  56.408 -52.524  1.00  0.00     0.046 A 
HETATM    5  C   UNL     1     -41.006  55.879 -51.469  1.00  0.00     0.070 C 
HETATM    6  C   UNL     1     -41.547  54.645 -50.712  1.00  0.00     0.042 C 
HETATM    7  C   UNL     1     -43.080  54.475 -50.701  1.00  0.00     0.132 C 
HETATM    8  N   UNL     1     -43.817  55.680 -50.366  1.00  0.00    -0.355 N 
HETATM    9  C   UNL     1     -44.118  56.667 -51.287  1.00  0.00     0.272 C 
HETATM   10  O   UNL     1     -45.089  57.394 -51.085  1.00  0.00    -0.266 OA
HETATM   11  N   UNL     1     -41.511  56.735 -53.795  1.00  0.00    -0.341 N 
HETATM   12  H   UNL     1     -40.582  56.632 -54.175  1.00  0.00     0.167 HD
HETATM   13  H   UNL     1     -44.535  55.615 -49.655  1.00  0.00     0.162 HD
ENDROOT
BRANCH   1  14
HETATM   14  C   UNL     1     -42.573  57.825 -55.840  1.00  0.00     0.059 A 
HETATM   15  C   UNL     1     -42.435  59.136 -56.255  1.00  0.00     0.040 A 
HETATM   16  C   UNL     1     -42.256  60.424 -55.549  1.00  0.00     0.071 C 
HETATM   17  N   UNL     1     -42.505  59.085 -57.623  1.00  0.00    -0.281 N 
HETATM   18  H   UNL     1     -42.448  59.854 -58.282  1.00  0.00     0.189 HD
HETATM   19  N   UNL     1     -42.669  57.853 -58.119  1.00  0.00    -0.179 NA
HETATM   20  C   UNL     1     -42.719  57.069 -57.033  1.00  0.00     0.067 A 
HETATM   21  C   UNL     1     -42.914  55.604 -57.180  1.00  0.00     0.073 C 
ENDBRANCH   1  14
BRANCH   6  22
HETATM   22  C   UNL     1     -40.888  53.351 -51.182  1.00  0.00    -0.049 A 
HETATM   23  C   UNL     1     -40.712  53.068 -52.550  1.00  0.00     0.044 A 
HETATM   24  C   UNL     1     -40.118  51.872 -52.960  1.00  0.00     0.068 A 
HETATM   25  C   UNL     1     -39.699  50.950 -52.000  1.00  0.00     0.037 A 
HETATM   26  C   UNL     1     -39.872  51.213 -50.641  1.00  0.00     0.003 A 
HETATM   27  C   UNL     1     -40.463  52.407 -50.234  1.00  0.00     0.007 A 
BRANCH  24  28
HETATM   28  O   UNL     1     -39.890  51.488 -54.253  1.00  0.00    -0.356 OA
HETATM   29  C   UNL     1     -39.661  50.104 -54.486  1.00  0.00     0.210 C 
ENDBRANCH  24  28
ENDBRANCH   6  22
TORSDOF 3
ENDMDL
MODEL 6
REMARK VINA RESULT:      -8.1      1.968      2.639
REMARK  3 active torsions:
REMARK  status: ('A' for Active; 'I' for Inactive)
REMARK    1  A    between atoms: C_8  and  C_9 
REMARK    2  A    between atoms: C_14  and  C_15 
REMARK    3  A    between atoms: C_17  and  O_18 
ROOT
HETATM    1  C   UNL     1     -43.808  57.635 -54.870  1.00  0.00     0.143 A 
HETATM    2  N   UNL     1     -44.575  57.597 -53.800  1.00  0.00    -0.223 NA
HETATM    3  C   UNL     1     -43.792  57.129 -52.765  1.00  0.00     0.149 A 
HETATM    4  C   UNL     1     -42.515  56.868 -53.233  1.00  0.00     0.046 A 
HETATM    5  C   UNL     1     -41.290  56.450 -52.499  1.00  0.00     0.070 C 
HETATM    6  C   UNL     1     -41.465  55.200 -51.608  1.00  0.00     0.042 C 
HETATM    7  C   UNL     1     -42.902  54.902 -51.133  1.00  0.00     0.132 C 
HETATM    8  N   UNL     1     -43.609  56.051 -50.595  1.00  0.00    -0.355 N 
HETATM    9  C   UNL     1     -44.261  56.979 -51.386  1.00  0.00     0.272 C 
HETATM   10  O   UNL     1     -45.187  57.627 -50.903  1.00  0.00    -0.266 OA
HETATM   11  N   UNL     1     -42.548  57.187 -54.567  1.00  0.00    -0.341 N 
HETATM   12  H   UNL     1     -41.772  57.151 -55.210  1.00  0.00     0.167 HD
HETATM   13  H   UNL     1     -44.070  55.948 -49.699  1.00  0.00     0.162 HD
ENDROOT
BRANCH   1  14
HETATM   14  C   UNL     1     -44.270  58.119 -56.199  1.00  0.00     0.059 A 
HETATM   15  C   UNL     1     -44.098  57.520 -57.433  1.00  0.00     0.040 A 
HETATM   16  C   UNL     1     -43.444  56.274 -57.889  1.00  0.00     0.071 C 
HETATM   17  N   UNL     1     -44.700  58.368 -58.326  1.00  0.00    -0.281 N 
HETATM   18  H   UNL     1     -44.775  58.267 -59.332  1.00  0.00     0.189 HD
HETATM   19  N   UNL     1     -45.249  59.455 -57.768  1.00  0.00    -0.179 NA
HETATM   20  C   UNL     1     -44.985  59.317 -56.461  1.00  0.00     0.067 A 
HETATM   21  C   UNL     1     -45.430  60.357 -55.498  1.00  0.00     0.073 C 
ENDBRANCH   1  14
BRANCH   6  22
HETATM   22  C   UNL     1     -40.865  53.952 -52.250  1.00  0.00    -0.049 A 
HETATM   23  C   UNL     1     -40.388  52.879 -51.472  1.00  0.00     0.044 A 
HETATM   24  C   UNL     1     -39.831  51.751 -52.078  1.00  0.00     0.068 A 
HETATM   25  C   UNL     1     -39.745  51.692 -53.470  1.00  0.00     0.037 A 
HETATM   26  C   UNL     1     -40.207  52.749 -54.254  1.00  0.00     0.003 A 
HETATM   27  C   UNL     1     -40.764  53.873 -53.647  1.00  0.00     0.007 A 
BRANCH  24  28
HETATM   28  O   UNL     1     -39.340  50.650 -51.432  1.00  0.00    -0.356 OA
HETATM   29  C   UNL     1     -39.515  49.392 -52.073  1.00  0.00     0.210 C 
ENDBRANCH  24  28
ENDBRANCH   6  22
TORSDOF 3
ENDMDL
MODEL 7
REMARK VINA RESULT:      -8.1     14.167     15.699
REMARK  3 active torsions:
REMARK  status: ('A' for Active; 'I' for Inactive)
REMARK    1  A    between atoms: C_8  and  C_9 
REMARK    2  A    between atoms: C_14  and  C_15 
REMARK    3  A    between atoms: C_17  and  O_18 
ROOT
HETATM    1  C   UNL     1     -37.494  40.817 -57.370  1.00  0.00     0.143 A 
HETATM    2  N   UNL     1     -38.588  40.697 -56.646  1.00  0.00    -0.223 NA
HETATM    3  C   UNL     1     -38.314  41.258 -55.415  1.00  0.00     0.149 A 
HETATM    4  C   UNL     1     -37.009  41.719 -55.398  1.00  0.00     0.046 A 
HETATM    5  C   UNL     1     -36.275  42.484 -54.354  1.00  0.00     0.070 C 
HETATM    6  C   UNL     1     -36.311  41.851 -52.944  1.00  0.00     0.042 C 
HETATM    7  C   UNL     1     -37.499  40.911 -52.653  1.00  0.00     0.132 C 
HETATM    8  N   UNL     1     -38.794  41.440 -53.040  1.00  0.00    -0.355 N 
HETATM    9  C   UNL     1     -39.290  41.366 -54.329  1.00  0.00     0.272 C 
HETATM   10  O   UNL     1     -40.507  41.395 -54.502  1.00  0.00    -0.266 OA
HETATM   11  N   UNL     1     -36.506  41.424 -56.639  1.00  0.00    -0.341 N 
HETATM   12  H   UNL     1     -35.586  41.656 -56.982  1.00  0.00     0.167 HD
HETATM   13  H   UNL     1     -39.544  41.407 -52.360  1.00  0.00     0.162 HD
ENDROOT
BRANCH   1  14
HETATM   14  C   UNL     1     -37.387  40.362 -58.782  1.00  0.00     0.059 A 
HETATM   15  C   UNL     1     -37.321  41.136 -59.926  1.00  0.00     0.040 A 
HETATM   16  C   UNL     1     -37.332  42.593 -60.184  1.00  0.00     0.071 C 
HETATM   17  N   UNL     1     -37.239  40.237 -60.959  1.00  0.00    -0.281 N 
HETATM   18  H   UNL     1     -37.179  40.430 -61.952  1.00  0.00     0.189 HD
HETATM   19  N   UNL     1     -37.240  38.956 -60.573  1.00  0.00    -0.179 NA
HETATM   20  C   UNL     1     -37.338  39.018 -59.237  1.00  0.00     0.067 A 
HETATM   21  C   UNL     1     -37.387  37.769 -58.435  1.00  0.00     0.073 C 
ENDBRANCH   1  14
BRANCH   6  22
HETATM   22  C   UNL     1     -35.000  41.149 -52.599  1.00  0.00    -0.049 A 
HETATM   23  C   UNL     1     -34.355  40.299 -53.517  1.00  0.00     0.044 A 
HETATM   24  C   UNL     1     -33.163  39.655 -53.178  1.00  0.00     0.068 A 
HETATM   25  C   UNL     1     -32.612  39.858 -51.912  1.00  0.00     0.037 A 
HETATM   26  C   UNL     1     -33.242  40.692 -50.989  1.00  0.00     0.003 A 
HETATM   27  C   UNL     1     -34.430  41.334 -51.330  1.00  0.00     0.007 A 
BRANCH  24  28
HETATM   28  O   UNL     1     -32.445  38.814 -53.981  1.00  0.00    -0.356 OA
HETATM   29  C   UNL     1     -31.432  39.399 -54.790  1.00  0.00     0.210 C 
ENDBRANCH  24  28
ENDBRANCH   6  22
TORSDOF 3
ENDMDL
MODEL 8
REMARK VINA RESULT:      -8.1      3.178      7.318
REMARK  3 active torsions:
REMARK  status: ('A' for Active; 'I' for Inactive)
REMARK    1  A    between atoms: C_8  and  C_9 
REMARK    2  A    between atoms: C_14  and  C_15 
REMARK    3  A    between atoms: C_17  and  O_18 
ROOT
HETATM    1  C   UNL     1     -41.473  55.670 -52.902  1.00  0.00     0.143 A 
HETATM    2  N   UNL     1     -41.064  56.894 -52.638  1.00  0.00    -0.223 NA
HETATM    3  C   UNL     1     -41.776  57.739 -53.466  1.00  0.00     0.149 A 
HETATM    4  C   UNL     1     -42.631  56.995 -54.260  1.00  0.00     0.046 A 
HETATM    5  C   UNL     1     -43.668  57.437 -55.231  1.00  0.00     0.070 C 
HETATM    6  C   UNL     1     -43.168  58.429 -56.305  1.00  0.00     0.042 C 
HETATM    7  C   UNL     1     -41.921  59.258 -55.933  1.00  0.00     0.132 C 
HETATM    8  N   UNL     1     -41.975  59.870 -54.617  1.00  0.00    -0.355 N 
HETATM    9  C   UNL     1     -41.647  59.198 -53.454  1.00  0.00     0.272 C 
HETATM   10  O   UNL     1     -41.271  59.844 -52.478  1.00  0.00    -0.266 OA
HETATM   11  N   UNL     1     -42.420  55.690 -53.894  1.00  0.00    -0.341 N 
HETATM   12  H   UNL     1     -42.907  54.882 -54.250  1.00  0.00     0.167 HD
HETATM   13  H   UNL     1     -41.755  60.855 -54.542  1.00  0.00     0.162 HD
ENDROOT
BRANCH   1  14
HETATM   14  C   UNL     1     -40.971  54.463 -52.193  1.00  0.00     0.059 A 
HETATM   15  C   UNL     1     -40.913  54.234 -50.831  1.00  0.00     0.040 A 
HETATM   16  C   UNL     1     -41.289  55.025 -49.639  1.00  0.00     0.071 C 
HETATM   17  N   UNL     1     -40.366  52.983 -50.705  1.00  0.00    -0.281 N 
HETATM   18  H   UNL     1     -40.164  52.472 -49.853  1.00  0.00     0.189 HD
HETATM   19  N   UNL     1     -40.076  52.389 -51.869  1.00  0.00    -0.179 NA
HETATM   20  C   UNL     1     -40.437  53.291 -52.792  1.00  0.00     0.067 A 
HETATM   21  C   UNL     1     -40.248  52.996 -54.235  1.00  0.00     0.073 C 
ENDBRANCH   1  14
BRANCH   6  22
HETATM   22  C   UNL     1     -42.952  57.750 -57.655  1.00  0.00    -0.049 A 
HETATM   23  C   UNL     1     -43.583  56.534 -57.977  1.00  0.00     0.044 A 
HETATM   24  C   UNL     1     -43.362  55.921 -59.213  1.00  0.00     0.068 A 
HETATM   25  C   UNL     1     -42.504  56.525 -60.133  1.00  0.00     0.037 A 
HETATM   26  C   UNL     1     -41.867  57.727 -59.826  1.00  0.00     0.003 A 
HETATM   27  C   UNL     1     -42.089  58.336 -58.593  1.00  0.00     0.007 A 
BRANCH  24  28
HETATM   28  O   UNL     1     -43.918  54.747 -59.641  1.00  0.00    -0.356 OA
HETATM   29  C   UNL     1     -44.919  54.834 -60.647  1.00  0.00     0.210 C 
ENDBRANCH  24  28
ENDBRANCH   6  22
TORSDOF 3
ENDMDL
MODEL 9
REMARK VINA RESULT:      -8.1      3.162      7.393
REMARK  3 active torsions:
REMARK  status: ('A' for Active; 'I' for Inactive)
REMARK    1  A    between atoms: C_8  and  C_9 
REMARK    2  A    between atoms: C_14  and  C_15 
REMARK    3  A    between atoms: C_17  and  O_18 
ROOT
HETATM    1  C   UNL     1     -41.426  55.604 -52.890  1.00  0.00     0.143 A 
HETATM    2  N   UNL     1     -40.997  56.822 -52.633  1.00  0.00    -0.223 NA
HETATM    3  C   UNL     1     -41.713  57.677 -53.446  1.00  0.00     0.149 A 
HETATM    4  C   UNL     1     -42.593  56.944 -54.225  1.00  0.00     0.046 A 
HETATM    5  C   UNL     1     -43.643  57.401 -55.175  1.00  0.00     0.070 C 
HETATM    6  C   UNL     1     -43.150  58.388 -56.258  1.00  0.00     0.042 C 
HETATM    7  C   UNL     1     -41.887  59.201 -55.908  1.00  0.00     0.132 C 
HETATM    8  N   UNL     1     -41.908  59.812 -54.591  1.00  0.00    -0.355 N 
HETATM    9  C   UNL     1     -41.567  59.134 -53.435  1.00  0.00     0.272 C 
HETATM   10  O   UNL     1     -41.165  59.774 -52.466  1.00  0.00    -0.266 OA
HETATM   11  N   UNL     1     -42.391  55.636 -53.864  1.00  0.00    -0.341 N 
HETATM   12  H   UNL     1     -42.895  54.835 -54.212  1.00  0.00     0.167 HD
HETATM   13  H   UNL     1     -41.675  60.794 -54.519  1.00  0.00     0.162 HD
ENDROOT
BRANCH   1  14
HETATM   14  C   UNL     1     -40.925  54.390 -52.192  1.00  0.00     0.059 A 
HETATM   15  C   UNL     1     -40.425  53.229 -52.751  1.00  0.00     0.040 A 
HETATM   16  C   UNL     1     -40.208  52.766 -54.139  1.00  0.00     0.071 C 
HETATM   17  N   UNL     1     -40.113  52.427 -51.683  1.00  0.00    -0.281 N 
HETATM   18  H   UNL     1     -39.724  51.490 -51.697  1.00  0.00     0.189 HD
HETATM   19  N   UNL     1     -40.364  52.978 -50.490  1.00  0.00    -0.179 NA
HETATM   20  C   UNL     1     -40.871  54.182 -50.788  1.00  0.00     0.067 A 
HETATM   21  C   UNL     1     -41.296  55.102 -49.702  1.00  0.00     0.073 C 
ENDBRANCH   1  14
BRANCH   6  22
HETATM   22  C   UNL     1     -42.968  57.708 -57.612  1.00  0.00    -0.049 A 
HETATM   23  C   UNL     1     -43.616  56.497 -57.922  1.00  0.00     0.044 A 
HETATM   24  C   UNL     1     -43.426  55.883 -59.162  1.00  0.00     0.068 A 
HETATM   25  C   UNL     1     -42.581  56.481 -60.100  1.00  0.00     0.037 A 
HETATM   26  C   UNL     1     -41.928  57.677 -59.805  1.00  0.00     0.003 A 
HETATM   27  C   UNL     1     -42.119  58.287 -58.568  1.00  0.00     0.007 A 
BRANCH  24  28
HETATM   28  O   UNL     1     -44.000  54.715 -59.579  1.00  0.00    -0.356 OA
HETATM   29  C   UNL     1     -45.040  54.813 -60.545  1.00  0.00     0.210 C 
ENDBRANCH  24  28
ENDBRANCH   6  22
TORSDOF 3
ENDMDL
MODEL 10
REMARK VINA RESULT:      -8.0      2.900      5.303
REMARK  3 active torsions:
REMARK  status: ('A' for Active; 'I' for Inactive)
REMARK    1  A    between atoms: C_8  and  C_9 
REMARK    2  A    between atoms: C_14  and  C_15 
REMARK    3  A    between atoms: C_17  and  O_18 
ROOT
HETATM    1  C   UNL     1     -43.057  58.638 -53.102  1.00  0.00     0.143 A 
HETATM    2  N   UNL     1     -42.823  58.733 -54.394  1.00  0.00    -0.223 NA
HETATM    3  C   UNL     1     -42.914  57.456 -54.910  1.00  0.00     0.149 A 
HETATM    4  C   UNL     1     -43.202  56.565 -53.891  1.00  0.00     0.046 A 
HETATM    5  C   UNL     1     -43.497  55.108 -53.945  1.00  0.00     0.070 C 
HETATM    6  C   UNL     1     -42.442  54.262 -54.694  1.00  0.00     0.042 C 
HETATM    7  C   UNL     1     -41.591  55.011 -55.740  1.00  0.00     0.132 C 
HETATM    8  N   UNL     1     -42.353  55.851 -56.647  1.00  0.00    -0.355 N 
HETATM    9  C   UNL     1     -42.761  57.134 -56.331  1.00  0.00     0.272 C 
HETATM   10  O   UNL     1     -42.975  57.932 -57.241  1.00  0.00    -0.266 OA
HETATM   11  N   UNL     1     -43.281  57.330 -52.755  1.00  0.00    -0.341 N 
HETATM   12  H   UNL     1     -43.513  57.004 -51.830  1.00  0.00     0.167 HD
HETATM   13  H   UNL     1     -42.177  55.760 -57.640  1.00  0.00     0.162 HD
ENDROOT
BRANCH   1  14
HETATM   14  C   UNL     1     -43.085  59.805 -52.181  1.00  0.00     0.059 A 
HETATM   15  C   UNL     1     -43.969  60.868 -52.176  1.00  0.00     0.040 A 
HETATM   16  C   UNL     1     -45.135  61.240 -53.007  1.00  0.00     0.071 C 
HETATM   17  N   UNL     1     -43.558  61.667 -51.140  1.00  0.00    -0.281 N 
HETATM   18  H   UNL     1     -43.960  62.544 -50.828  1.00  0.00     0.189 HD
HETATM   19  N   UNL     1     -42.491  61.203 -50.478  1.00  0.00    -0.179 NA
HETATM   20  C   UNL     1     -42.186  60.062 -51.113  1.00  0.00     0.067 A 
HETATM   21  C   UNL     1     -41.023  59.251 -50.669  1.00  0.00     0.073 C 
ENDBRANCH   1  14
BRANCH   6  22
HETATM   22  C   UNL     1     -41.530  53.503 -53.735  1.00  0.00    -0.049 A 
HETATM   23  C   UNL     1     -40.813  52.363 -54.146  1.00  0.00     0.044 A 
HETATM   24  C   UNL     1     -39.993  51.675 -53.249  1.00  0.00     0.068 A 
HETATM   25  C   UNL     1     -39.889  52.125 -51.931  1.00  0.00     0.037 A 
HETATM   26  C   UNL     1     -40.598  53.248 -51.508  1.00  0.00     0.003 A 
HETATM   27  C   UNL     1     -41.414  53.934 -52.405  1.00  0.00     0.007 A 
BRANCH  24  28
HETATM   28  O   UNL     1     -39.247  50.563 -53.529  1.00  0.00    -0.356 OA
HETATM   29  C   UNL     1     -39.536  49.386 -52.785  1.00  0.00     0.210 C 
ENDBRANCH  24  28
ENDBRANCH   6  22
TORSDOF 3
ENDMDL
