MODEL 1
REMARK VINA RESULT:      -7.6      0.000      0.000
REMARK  9 active torsions:
REMARK  status: ('A' for Active; 'I' for Inactive)
REMARK    1  A    between atoms: C_6  and  C_7 
REMARK    2  A    between atoms: C_7  and  C_8 
REMARK    3  A    between atoms: C_11  and  N_12 
REMARK       I    between atoms: N_12  and  C_13 
REMARK       I    between atoms: C_13  and  N_14 
REMARK    4  A    between atoms: N_14  and  C_15 
REMARK    5  A    between atoms: C_15  and  C_16 
REMARK    6  A    between atoms: C_16  and  C_17 
REMARK    7  A    between atoms: C_16  and  C_19 
REMARK    8  A    between atoms: C_17  and  O_18 
REMARK    9  A    between atoms: C_19  and  C_20 
ROOT
HETATM    1  N   UNL     1     -44.076  56.502 -50.646  1.00  0.00    -0.309 N 
HETATM    2  C   UNL     1     -44.637  57.329 -51.569  1.00  0.00     0.320 C 
HETATM    3  N   UNL     1     -44.362  57.106 -52.881  1.00  0.00    -0.342 N 
HETATM    4  O   UNL     1     -45.399  58.218 -51.192  1.00  0.00    -0.247 OA
HETATM    5  H   UNL     1     -44.499  56.652 -49.737  1.00  0.00     0.170 HD
HETATM    6  H   UNL     1     -44.164  56.148 -53.134  1.00  0.00     0.164 HD
ENDROOT
BRANCH   1   7
HETATM    7  C   UNL     1     -42.989  55.610 -50.686  1.00  0.00     0.036 A 
HETATM    8  C   UNL     1     -43.045  54.304 -51.174  1.00  0.00     0.030 A 
HETATM    9  C   UNL     1     -41.898  53.501 -51.196  1.00  0.00     0.010 A 
HETATM   10  C   UNL     1     -40.665  54.000 -50.757  1.00  0.00    -0.051 A 
HETATM   11  C   UNL     1     -40.600  55.319 -50.295  1.00  0.00     0.010 A 
HETATM   12  C   UNL     1     -41.751  56.111 -50.261  1.00  0.00     0.030 A 
BRANCH  10  13
HETATM   13  C   UNL     1     -39.416  53.153 -50.848  1.00  0.00     0.118 C 
BRANCH  13  14
HETATM   14  C   UNL     1     -39.560  51.921 -51.678  1.00  0.00     0.126 A 
HETATM   15  N   UNL     1     -39.651  50.653 -51.173  1.00  0.00    -0.263 N 
HETATM   16  N   UNL     1     -39.761  49.740 -52.151  1.00  0.00    -0.158 NA
HETATM   17  H   UNL     1     -39.639  50.349 -50.205  1.00  0.00     0.190 HD
HETATM   18  C   UNL     1     -39.736  50.511 -53.242  1.00  0.00     0.144 A 
HETATM   19  C   UNL     1     -39.838  49.962 -54.608  1.00  0.00     0.095 C 
HETATM   20  N   UNL     1     -39.615  51.854 -52.993  1.00  0.00    -0.217 NA
ENDBRANCH  13  14
ENDBRANCH  10  13
ENDBRANCH   1   7
BRANCH   3  21
HETATM   21  C   UNL     1     -44.838  57.991 -53.927  1.00  0.00     0.131 C 
BRANCH  21  22
HETATM   22  C   UNL     1     -44.584  57.478 -55.356  1.00  0.00     0.033 C 
BRANCH  22  23
HETATM   23  C   UNL     1     -45.454  58.207 -56.390  1.00  0.00     0.170 C 
BRANCH  23  24
HETATM   24  O   UNL     1     -46.775  57.674 -56.379  1.00  0.00    -0.400 OA
HETATM   25  H   UNL     1     -46.701  56.706 -56.444  1.00  0.00     0.209 HD
ENDBRANCH  23  24
ENDBRANCH  22  23
BRANCH  22  26
HETATM   26  C   UNL     1     -43.096  57.631 -55.740  1.00  0.00     0.073 C 
BRANCH  26  27
HETATM   27  C   UNL     1     -42.253  56.470 -55.348  1.00  0.00     0.053 A 
HETATM   28  O   UNL     1     -41.441  56.641 -54.267  1.00  0.00    -0.327 OA
HETATM   29  C   UNL     1     -40.774  55.473 -54.086  1.00  0.00     0.142 A 
HETATM   30  C   UNL     1     -41.144  54.554 -55.040  1.00  0.00     0.027 A 
HETATM   31  C   UNL     1     -42.104  55.198 -55.857  1.00  0.00     0.034 A 
ENDBRANCH  26  27
ENDBRANCH  22  26
ENDBRANCH  21  22
ENDBRANCH   3  21
TORSDOF 9
ENDMDL
MODEL 2
REMARK VINA RESULT:      -7.5      2.795      6.661
REMARK  9 active torsions:
REMARK  status: ('A' for Active; 'I' for Inactive)
REMARK    1  A    between atoms: C_6  and  C_7 
REMARK    2  A    between atoms: C_7  and  C_8 
REMARK    3  A    between atoms: C_11  and  N_12 
REMARK       I    between atoms: N_12  and  C_13 
REMARK       I    between atoms: C_13  and  N_14 
REMARK    4  A    between atoms: N_14  and  C_15 
REMARK    5  A    between atoms: C_15  and  C_16 
REMARK    6  A    between atoms: C_16  and  C_17 
REMARK    7  A    between atoms: C_16  and  C_19 
REMARK    8  A    between atoms: C_17  and  O_18 
REMARK    9  A    between atoms: C_19  and  C_20 
ROOT
HETATM    1  N   UNL     1     -40.960  53.201 -49.726  1.00  0.00    -0.309 N 
HETATM    2  C   UNL     1     -40.390  52.169 -50.403  1.00  0.00     0.320 C 
HETATM    3  N   UNL     1     -39.920  52.407 -51.656  1.00  0.00    -0.342 N 
HETATM    4  O   UNL     1     -40.283  51.075 -49.851  1.00  0.00    -0.247 OA
HETATM    5  H   UNL     1     -41.096  52.949 -48.753  1.00  0.00     0.170 HD
HETATM    6  H   UNL     1     -39.605  53.350 -51.838  1.00  0.00     0.164 HD
ENDROOT
BRANCH   1   7
HETATM    7  C   UNL     1     -41.482  54.445 -50.124  1.00  0.00     0.036 A 
HETATM    8  C   UNL     1     -40.839  55.672 -49.959  1.00  0.00     0.030 A 
HETATM    9  C   UNL     1     -41.431  56.856 -50.415  1.00  0.00     0.010 A 
HETATM   10  C   UNL     1     -42.668  56.830 -51.072  1.00  0.00    -0.051 A 
HETATM   11  C   UNL     1     -43.301  55.598 -51.265  1.00  0.00     0.010 A 
HETATM   12  C   UNL     1     -42.712  54.421 -50.795  1.00  0.00     0.030 A 
BRANCH  10  13
HETATM   13  C   UNL     1     -43.271  58.102 -51.624  1.00  0.00     0.118 C 
BRANCH  13  14
HETATM   14  C   UNL     1     -42.579  58.646 -52.830  1.00  0.00     0.126 A 
HETATM   15  N   UNL     1     -41.297  59.125 -52.836  1.00  0.00    -0.263 N 
HETATM   16  N   UNL     1     -40.940  59.561 -54.054  1.00  0.00    -0.158 NA
HETATM   17  H   UNL     1     -40.636  59.189 -52.069  1.00  0.00     0.190 HD
HETATM   18  C   UNL     1     -42.048  59.317 -54.762  1.00  0.00     0.144 A 
HETATM   19  C   UNL     1     -42.156  59.621 -56.201  1.00  0.00     0.095 C 
HETATM   20  N   UNL     1     -43.073  58.755 -54.046  1.00  0.00    -0.217 NA
ENDBRANCH  13  14
ENDBRANCH  10  13
ENDBRANCH   1   7
BRANCH   3  21
HETATM   21  C   UNL     1     -39.383  51.348 -52.490  1.00  0.00     0.131 C 
BRANCH  21  22
HETATM   22  C   UNL     1     -39.788  51.441 -53.972  1.00  0.00     0.033 C 
BRANCH  22  23
HETATM   23  C   UNL     1     -39.650  50.090 -54.689  1.00  0.00     0.170 C 
BRANCH  23  24
HETATM   24  O   UNL     1     -39.260  49.082 -53.760  1.00  0.00    -0.400 OA
HETATM   25  H   UNL     1     -40.048  48.838 -53.246  1.00  0.00     0.209 HD
ENDBRANCH  23  24
ENDBRANCH  22  23
BRANCH  22  26
HETATM   26  C   UNL     1     -41.240  51.950 -54.116  1.00  0.00     0.073 C 
BRANCH  26  27
HETATM   27  C   UNL     1     -41.338  53.409 -54.384  1.00  0.00     0.053 A 
HETATM   28  O   UNL     1     -40.203  54.142 -54.208  1.00  0.00    -0.327 OA
HETATM   29  C   UNL     1     -40.513  55.429 -54.506  1.00  0.00     0.142 A 
HETATM   30  C   UNL     1     -41.835  55.535 -54.866  1.00  0.00     0.027 A 
HETATM   31  C   UNL     1     -42.371  54.227 -54.790  1.00  0.00     0.034 A 
ENDBRANCH  26  27
ENDBRANCH  22  26
ENDBRANCH  21  22
ENDBRANCH   3  21
TORSDOF 9
ENDMDL
MODEL 3
REMARK VINA RESULT:      -7.4      3.037      7.346
REMARK  9 active torsions:
REMARK  status: ('A' for Active; 'I' for Inactive)
REMARK    1  A    between atoms: C_6  and  C_7 
REMARK    2  A    between atoms: C_7  and  C_8 
REMARK    3  A    between atoms: C_11  and  N_12 
REMARK       I    between atoms: N_12  and  C_13 
REMARK       I    between atoms: C_13  and  N_14 
REMARK    4  A    between atoms: N_14  and  C_15 
REMARK    5  A    between atoms: C_15  and  C_16 
REMARK    6  A    between atoms: C_16  and  C_17 
REMARK    7  A    between atoms: C_16  and  C_19 
REMARK    8  A    between atoms: C_17  and  O_18 
REMARK    9  A    between atoms: C_19  and  C_20 
ROOT
HETATM    1  N   UNL     1     -41.180  53.735 -49.873  1.00  0.00    -0.309 N 
HETATM    2  C   UNL     1     -40.550  52.641 -50.379  1.00  0.00     0.320 C 
HETATM    3  N   UNL     1     -40.133  52.683 -51.671  1.00  0.00    -0.342 N 
HETATM    4  O   UNL     1     -40.344  51.675 -49.646  1.00  0.00    -0.247 OA
HETATM    5  H   UNL     1     -41.271  53.653 -48.867  1.00  0.00     0.170 HD
HETATM    6  H   UNL     1     -39.896  53.597 -52.030  1.00  0.00     0.164 HD
ENDROOT
BRANCH   1   7
HETATM    7  C   UNL     1     -41.808  54.846 -50.465  1.00  0.00     0.036 A 
HETATM    8  C   UNL     1     -43.110  54.855 -50.967  1.00  0.00     0.030 A 
HETATM    9  C   UNL     1     -43.655  56.023 -51.515  1.00  0.00     0.010 A 
HETATM   10  C   UNL     1     -42.917  57.212 -51.543  1.00  0.00    -0.051 A 
HETATM   11  C   UNL     1     -41.623  57.214 -51.014  1.00  0.00     0.010 A 
HETATM   12  C   UNL     1     -41.077  56.042 -50.482  1.00  0.00     0.030 A 
BRANCH  10  13
HETATM   13  C   UNL     1     -43.535  58.488 -52.072  1.00  0.00     0.118 C 
BRANCH  13  14
HETATM   14  C   UNL     1     -44.184  59.341 -51.033  1.00  0.00     0.126 A 
HETATM   15  N   UNL     1     -45.332  59.010 -50.366  1.00  0.00    -0.263 N 
HETATM   16  N   UNL     1     -45.691  59.969 -49.498  1.00  0.00    -0.158 NA
HETATM   17  H   UNL     1     -45.905  58.178 -50.456  1.00  0.00     0.190 HD
HETATM   18  C   UNL     1     -44.716  60.868 -49.673  1.00  0.00     0.144 A 
HETATM   19  C   UNL     1     -44.656  62.134 -48.919  1.00  0.00     0.095 C 
HETATM   20  N   UNL     1     -43.774  60.518 -50.605  1.00  0.00    -0.217 NA
ENDBRANCH  13  14
ENDBRANCH  10  13
ENDBRANCH   1   7
BRANCH   3  21
HETATM   21  C   UNL     1     -39.537  51.533 -52.325  1.00  0.00     0.131 C 
BRANCH  21  22
HETATM   22  C   UNL     1     -39.755  51.485 -53.847  1.00  0.00     0.033 C 
BRANCH  22  23
HETATM   23  C   UNL     1     -39.512  50.079 -54.417  1.00  0.00     0.170 C 
BRANCH  23  24
HETATM   24  O   UNL     1     -39.431  49.131 -53.357  1.00  0.00    -0.400 OA
HETATM   25  H   UNL     1     -38.686  48.537 -53.551  1.00  0.00     0.209 HD
ENDBRANCH  23  24
ENDBRANCH  22  23
BRANCH  22  26
HETATM   26  C   UNL     1     -41.182  51.946 -54.216  1.00  0.00     0.073 C 
BRANCH  26  27
HETATM   27  C   UNL     1     -41.307  53.416 -54.401  1.00  0.00     0.053 A 
HETATM   28  O   UNL     1     -40.156  54.142 -54.331  1.00  0.00    -0.327 OA
HETATM   29  C   UNL     1     -40.495  55.441 -54.530  1.00  0.00     0.142 A 
HETATM   30  C   UNL     1     -41.851  55.561 -54.722  1.00  0.00     0.027 A 
HETATM   31  C   UNL     1     -42.379  54.250 -54.641  1.00  0.00     0.034 A 
ENDBRANCH  26  27
ENDBRANCH  22  26
ENDBRANCH  21  22
ENDBRANCH   3  21
TORSDOF 9
ENDMDL
MODEL 4
REMARK VINA RESULT:      -7.3      1.571      2.063
REMARK  9 active torsions:
REMARK  status: ('A' for Active; 'I' for Inactive)
REMARK    1  A    between atoms: C_6  and  C_7 
REMARK    2  A    between atoms: C_7  and  C_8 
REMARK    3  A    between atoms: C_11  and  N_12 
REMARK       I    between atoms: N_12  and  C_13 
REMARK       I    between atoms: C_13  and  N_14 
REMARK    4  A    between atoms: N_14  and  C_15 
REMARK    5  A    between atoms: C_15  and  C_16 
REMARK    6  A    between atoms: C_16  and  C_17 
REMARK    7  A    between atoms: C_16  and  C_19 
REMARK    8  A    between atoms: C_17  and  O_18 
REMARK    9  A    between atoms: C_19  and  C_20 
ROOT
HETATM    1  N   UNL     1     -44.310  56.212 -50.807  1.00  0.00    -0.309 N 
HETATM    2  C   UNL     1     -44.653  57.338 -51.487  1.00  0.00     0.320 C 
HETATM    3  N   UNL     1     -44.003  57.608 -52.649  1.00  0.00    -0.342 N 
HETATM    4  O   UNL     1     -45.559  58.048 -51.052  1.00  0.00    -0.247 OA
HETATM    5  H   UNL     1     -44.982  56.027 -50.071  1.00  0.00     0.170 HD
HETATM    6  H   UNL     1     -43.666  56.807 -53.163  1.00  0.00     0.164 HD
ENDROOT
BRANCH   1   7
HETATM    7  C   UNL     1     -43.188  55.364 -50.850  1.00  0.00     0.036 A 
HETATM    8  C   UNL     1     -43.109  54.179 -51.582  1.00  0.00     0.030 A 
HETATM    9  C   UNL     1     -41.935  53.416 -51.582  1.00  0.00     0.010 A 
HETATM   10  C   UNL     1     -40.806  53.840 -50.870  1.00  0.00    -0.051 A 
HETATM   11  C   UNL     1     -40.872  55.043 -50.158  1.00  0.00     0.010 A 
HETATM   12  C   UNL     1     -42.052  55.793 -50.150  1.00  0.00     0.030 A 
BRANCH  10  13
HETATM   13  C   UNL     1     -39.518  53.049 -50.928  1.00  0.00     0.118 C 
BRANCH  13  14
HETATM   14  C   UNL     1     -39.590  51.806 -51.751  1.00  0.00     0.126 A 
HETATM   15  N   UNL     1     -39.630  50.538 -51.237  1.00  0.00    -0.263 N 
HETATM   16  N   UNL     1     -39.679  49.614 -52.209  1.00  0.00    -0.158 NA
HETATM   17  H   UNL     1     -39.620  50.243 -50.266  1.00  0.00     0.190 HD
HETATM   18  C   UNL     1     -39.673  50.378 -53.306  1.00  0.00     0.144 A 
HETATM   19  C   UNL     1     -39.726  49.814 -54.668  1.00  0.00     0.095 C 
HETATM   20  N   UNL     1     -39.620  51.726 -53.066  1.00  0.00    -0.217 NA
ENDBRANCH  13  14
ENDBRANCH  10  13
ENDBRANCH   1   7
BRANCH   3  21
HETATM   21  C   UNL     1     -44.234  58.832 -53.393  1.00  0.00     0.131 C 
BRANCH  21  22
HETATM   22  C   UNL     1     -43.325  59.009 -54.622  1.00  0.00     0.033 C 
BRANCH  22  23
HETATM   23  C   UNL     1     -42.398  60.224 -54.479  1.00  0.00     0.170 C 
BRANCH  23  24
HETATM   24  O   UNL     1     -41.717  60.466 -55.707  1.00  0.00    -0.400 OA
HETATM   25  H   UNL     1     -41.920  61.377 -55.980  1.00  0.00     0.209 HD
ENDBRANCH  23  24
ENDBRANCH  22  23
BRANCH  22  26
HETATM   26  C   UNL     1     -42.475  57.743 -54.866  1.00  0.00     0.073 C 
BRANCH  26  27
HETATM   27  C   UNL     1     -42.674  57.137 -56.210  1.00  0.00     0.053 A 
HETATM   28  O   UNL     1     -42.564  57.973 -57.280  1.00  0.00    -0.327 OA
HETATM   29  C   UNL     1     -42.776  57.223 -58.391  1.00  0.00     0.142 A 
HETATM   30  C   UNL     1     -43.027  55.915 -58.048  1.00  0.00     0.027 A 
HETATM   31  C   UNL     1     -42.959  55.857 -56.636  1.00  0.00     0.034 A 
ENDBRANCH  26  27
ENDBRANCH  22  26
ENDBRANCH  21  22
ENDBRANCH   3  21
TORSDOF 9
ENDMDL
MODEL 5
REMARK VINA RESULT:      -7.3      3.290      6.926
REMARK  9 active torsions:
REMARK  status: ('A' for Active; 'I' for Inactive)
REMARK    1  A    between atoms: C_6  and  C_7 
REMARK    2  A    between atoms: C_7  and  C_8 
REMARK    3  A    between atoms: C_11  and  N_12 
REMARK       I    between atoms: N_12  and  C_13 
REMARK       I    between atoms: C_13  and  N_14 
REMARK    4  A    between atoms: N_14  and  C_15 
REMARK    5  A    between atoms: C_15  and  C_16 
REMARK    6  A    between atoms: C_16  and  C_17 
REMARK    7  A    between atoms: C_16  and  C_19 
REMARK    8  A    between atoms: C_17  and  O_18 
REMARK    9  A    between atoms: C_19  and  C_20 
ROOT
HETATM    1  N   UNL     1     -44.460  56.575 -52.350  1.00  0.00    -0.309 N 
HETATM    2  C   UNL     1     -43.807  56.186 -51.223  1.00  0.00     0.320 C 
HETATM    3  N   UNL     1     -42.458  56.347 -51.176  1.00  0.00    -0.342 N 
HETATM    4  O   UNL     1     -44.456  55.742 -50.277  1.00  0.00    -0.247 OA
HETATM    5  H   UNL     1     -45.461  56.579 -52.193  1.00  0.00     0.170 HD
HETATM    6  H   UNL     1     -42.085  57.110 -51.722  1.00  0.00     0.164 HD
ENDROOT
BRANCH   1   7
HETATM    7  C   UNL     1     -44.038  56.842 -53.666  1.00  0.00     0.036 A 
HETATM    8  C   UNL     1     -43.798  58.115 -54.185  1.00  0.00     0.030 A 
HETATM    9  C   UNL     1     -43.352  58.276 -55.503  1.00  0.00     0.010 A 
HETATM   10  C   UNL     1     -43.112  57.163 -56.318  1.00  0.00    -0.051 A 
HETATM   11  C   UNL     1     -43.323  55.885 -55.790  1.00  0.00     0.010 A 
HETATM   12  C   UNL     1     -43.782  55.730 -54.479  1.00  0.00     0.030 A 
BRANCH  10  13
HETATM   13  C   UNL     1     -42.565  57.338 -57.717  1.00  0.00     0.118 C 
BRANCH  13  14
HETATM   14  C   UNL     1     -43.454  56.826 -58.801  1.00  0.00     0.126 A 
HETATM   15  N   UNL     1     -43.014  56.180 -59.923  1.00  0.00    -0.263 N 
HETATM   16  N   UNL     1     -44.032  55.843 -60.730  1.00  0.00    -0.158 NA
HETATM   17  H   UNL     1     -42.064  55.949 -60.195  1.00  0.00     0.190 HD
HETATM   18  C   UNL     1     -45.082  56.307 -60.044  1.00  0.00     0.144 A 
HETATM   19  C   UNL     1     -46.470  56.169 -60.523  1.00  0.00     0.095 C 
HETATM   20  N   UNL     1     -44.768  56.915 -58.856  1.00  0.00    -0.217 NA
ENDBRANCH  13  14
ENDBRANCH  10  13
ENDBRANCH   1   7
BRANCH   3  21
HETATM   21  C   UNL     1     -41.666  55.876 -50.056  1.00  0.00     0.131 C 
BRANCH  21  22
HETATM   22  C   UNL     1     -40.631  54.797 -50.420  1.00  0.00     0.033 C 
BRANCH  22  23
HETATM   23  C   UNL     1     -40.012  54.151 -49.172  1.00  0.00     0.170 C 
BRANCH  23  24
HETATM   24  O   UNL     1     -41.007  53.986 -48.164  1.00  0.00    -0.400 OA
HETATM   25  H   UNL     1     -41.774  54.526 -48.419  1.00  0.00     0.209 HD
ENDBRANCH  23  24
ENDBRANCH  22  23
BRANCH  22  26
HETATM   26  C   UNL     1     -41.265  53.699 -51.303  1.00  0.00     0.073 C 
BRANCH  26  27
HETATM   27  C   UNL     1     -40.833  53.750 -52.725  1.00  0.00     0.053 A 
HETATM   28  O   UNL     1     -40.641  54.988 -53.262  1.00  0.00    -0.327 OA
HETATM   29  C   UNL     1     -40.251  54.804 -54.549  1.00  0.00     0.142 A 
HETATM   30  C   UNL     1     -40.195  53.463 -54.848  1.00  0.00     0.027 A 
HETATM   31  C   UNL     1     -40.569  52.779 -53.667  1.00  0.00     0.034 A 
ENDBRANCH  26  27
ENDBRANCH  22  26
ENDBRANCH  21  22
ENDBRANCH   3  21
TORSDOF 9
ENDMDL
MODEL 6
REMARK VINA RESULT:      -7.3     14.727     17.824
REMARK  9 active torsions:
REMARK  status: ('A' for Active; 'I' for Inactive)
REMARK    1  A    between atoms: C_6  and  C_7 
REMARK    2  A    between atoms: C_7  and  C_8 
REMARK    3  A    between atoms: C_11  and  N_12 
REMARK       I    between atoms: N_12  and  C_13 
REMARK       I    between atoms: C_13  and  N_14 
REMARK    4  A    between atoms: N_14  and  C_15 
REMARK    5  A    between atoms: C_15  and  C_16 
REMARK    6  A    between atoms: C_16  and  C_17 
REMARK    7  A    between atoms: C_16  and  C_19 
REMARK    8  A    between atoms: C_17  and  O_18 
REMARK    9  A    between atoms: C_19  and  C_20 
ROOT
HETATM    1  N   UNL     1     -35.461  42.409 -53.579  1.00  0.00    -0.309 N 
HETATM    2  C   UNL     1     -34.973  41.537 -52.656  1.00  0.00     0.320 C 
HETATM    3  N   UNL     1     -34.521  40.331 -53.091  1.00  0.00    -0.342 N 
HETATM    4  O   UNL     1     -34.922  41.880 -51.476  1.00  0.00    -0.247 OA
HETATM    5  H   UNL     1     -35.589  43.324 -53.164  1.00  0.00     0.170 HD
HETATM    6  H   UNL     1     -34.152  40.310 -54.031  1.00  0.00     0.164 HD
ENDROOT
BRANCH   1   7
HETATM    7  C   UNL     1     -35.914  42.259 -54.903  1.00  0.00     0.036 A 
HETATM    8  C   UNL     1     -37.246  42.075 -55.275  1.00  0.00     0.030 A 
HETATM    9  C   UNL     1     -37.601  41.962 -56.625  1.00  0.00     0.010 A 
HETATM   10  C   UNL     1     -36.631  42.061 -57.630  1.00  0.00    -0.051 A 
HETATM   11  C   UNL     1     -35.299  42.276 -57.261  1.00  0.00     0.010 A 
HETATM   12  C   UNL     1     -34.948  42.372 -55.911  1.00  0.00     0.030 A 
BRANCH  10  13
HETATM   13  C   UNL     1     -37.028  42.009 -59.089  1.00  0.00     0.118 C 
BRANCH  13  14
HETATM   14  C   UNL     1     -37.469  40.666 -59.565  1.00  0.00     0.126 A 
HETATM   15  N   UNL     1     -37.045  40.077 -60.725  1.00  0.00    -0.263 N 
HETATM   16  N   UNL     1     -37.615  38.876 -60.906  1.00  0.00    -0.158 NA
HETATM   17  H   UNL     1     -36.395  40.431 -61.419  1.00  0.00     0.190 HD
HETATM   18  C   UNL     1     -38.381  38.776 -59.814  1.00  0.00     0.144 A 
HETATM   19  C   UNL     1     -39.224  37.597 -59.538  1.00  0.00     0.095 C 
HETATM   20  N   UNL     1     -38.318  39.853 -58.968  1.00  0.00    -0.217 NA
ENDBRANCH  13  14
ENDBRANCH  10  13
ENDBRANCH   1   7
BRANCH   3  21
HETATM   21  C   UNL     1     -34.071  39.302 -52.172  1.00  0.00     0.131 C 
BRANCH  21  22
HETATM   22  C   UNL     1     -32.543  39.131 -52.109  1.00  0.00     0.033 C 
BRANCH  22  23
HETATM   23  C   UNL     1     -31.886  39.344 -53.480  1.00  0.00     0.170 C 
BRANCH  23  24
HETATM   24  O   UNL     1     -31.791  40.737 -53.765  1.00  0.00    -0.400 OA
HETATM   25  H   UNL     1     -32.633  41.147 -53.505  1.00  0.00     0.209 HD
ENDBRANCH  23  24
ENDBRANCH  22  23
BRANCH  22  26
HETATM   26  C   UNL     1     -31.920  40.107 -51.086  1.00  0.00     0.073 C 
BRANCH  26  27
HETATM   27  C   UNL     1     -31.920  39.592 -49.691  1.00  0.00     0.053 A 
HETATM   28  O   UNL     1     -30.838  39.904 -48.924  1.00  0.00    -0.327 OA
HETATM   29  C   UNL     1     -31.044  39.346 -47.704  1.00  0.00     0.142 A 
HETATM   30  C   UNL     1     -32.244  38.675 -47.678  1.00  0.00     0.027 A 
HETATM   31  C   UNL     1     -32.814  38.836 -48.964  1.00  0.00     0.034 A 
ENDBRANCH  26  27
ENDBRANCH  22  26
ENDBRANCH  21  22
ENDBRANCH   3  21
TORSDOF 9
ENDMDL
MODEL 7
REMARK VINA RESULT:      -7.3      2.234      3.108
REMARK  9 active torsions:
REMARK  status: ('A' for Active; 'I' for Inactive)
REMARK    1  A    between atoms: C_6  and  C_7 
REMARK    2  A    between atoms: C_7  and  C_8 
REMARK    3  A    between atoms: C_11  and  N_12 
REMARK       I    between atoms: N_12  and  C_13 
REMARK       I    between atoms: C_13  and  N_14 
REMARK    4  A    between atoms: N_14  and  C_15 
REMARK    5  A    between atoms: C_15  and  C_16 
REMARK    6  A    between atoms: C_16  and  C_17 
REMARK    7  A    between atoms: C_16  and  C_19 
REMARK    8  A    between atoms: C_17  and  O_18 
REMARK    9  A    between atoms: C_19  and  C_20 
ROOT
HETATM    1  N   UNL     1     -44.238  56.294 -50.667  1.00  0.00    -0.309 N 
HETATM    2  C   UNL     1     -44.722  57.347 -51.378  1.00  0.00     0.320 C 
HETATM    3  N   UNL     1     -44.123  57.652 -52.560  1.00  0.00    -0.342 N 
HETATM    4  O   UNL     1     -45.700  57.960 -50.952  1.00  0.00    -0.247 OA
HETATM    5  H   UNL     1     -44.874  56.057 -49.914  1.00  0.00     0.170 HD
HETATM    6  H   UNL     1     -43.699  56.879 -53.052  1.00  0.00     0.164 HD
ENDROOT
BRANCH   1   7
HETATM    7  C   UNL     1     -43.024  55.584 -50.700  1.00  0.00     0.036 A 
HETATM    8  C   UNL     1     -41.829  56.019 -50.126  1.00  0.00     0.030 A 
HETATM    9  C   UNL     1     -40.676  55.225 -50.190  1.00  0.00     0.010 A 
HETATM   10  C   UNL     1     -40.707  53.967 -50.805  1.00  0.00    -0.051 A 
HETATM   11  C   UNL     1     -41.911  53.517 -51.356  1.00  0.00     0.010 A 
HETATM   12  C   UNL     1     -43.055  54.320 -51.302  1.00  0.00     0.030 A 
BRANCH  10  13
HETATM   13  C   UNL     1     -39.479  53.084 -50.810  1.00  0.00     0.118 C 
BRANCH  13  14
HETATM   14  C   UNL     1     -39.593  51.866 -51.665  1.00  0.00     0.126 A 
HETATM   15  N   UNL     1     -39.641  50.585 -51.186  1.00  0.00    -0.263 N 
HETATM   16  N   UNL     1     -39.732  49.690 -52.181  1.00  0.00    -0.158 NA
HETATM   17  H   UNL     1     -39.611  50.262 -50.225  1.00  0.00     0.190 HD
HETATM   18  C   UNL     1     -39.742  50.484 -53.257  1.00  0.00     0.144 A 
HETATM   19  C   UNL     1     -39.841  49.960 -54.632  1.00  0.00     0.095 C 
HETATM   20  N   UNL     1     -39.660  51.824 -52.981  1.00  0.00    -0.217 NA
ENDBRANCH  13  14
ENDBRANCH  10  13
ENDBRANCH   1   7
BRANCH   3  21
HETATM   21  C   UNL     1     -44.508  58.813 -53.340  1.00  0.00     0.131 C 
BRANCH  21  22
HETATM   22  C   UNL     1     -43.334  59.720 -53.749  1.00  0.00     0.033 C 
BRANCH  22  23
HETATM   23  C   UNL     1     -43.655  60.540 -55.007  1.00  0.00     0.170 C 
BRANCH  23  24
HETATM   24  O   UNL     1     -42.487  61.223 -55.455  1.00  0.00    -0.400 OA
HETATM   25  H   UNL     1     -42.094  60.693 -56.169  1.00  0.00     0.209 HD
ENDBRANCH  23  24
ENDBRANCH  22  23
BRANCH  22  26
HETATM   26  C   UNL     1     -42.948  60.676 -52.600  1.00  0.00     0.073 C 
BRANCH  26  27
HETATM   27  C   UNL     1     -41.881  60.144 -51.710  1.00  0.00     0.053 A 
HETATM   28  O   UNL     1     -40.809  59.565 -52.320  1.00  0.00    -0.327 OA
HETATM   29  C   UNL     1     -39.967  59.158 -51.337  1.00  0.00     0.142 A 
HETATM   30  C   UNL     1     -40.487  59.463 -50.101  1.00  0.00     0.027 A 
HETATM   31  C   UNL     1     -41.726  60.105 -50.341  1.00  0.00     0.034 A 
ENDBRANCH  26  27
ENDBRANCH  22  26
ENDBRANCH  21  22
ENDBRANCH   3  21
TORSDOF 9
ENDMDL
MODEL 8
REMARK VINA RESULT:      -7.2      3.507      7.494
REMARK  9 active torsions:
REMARK  status: ('A' for Active; 'I' for Inactive)
REMARK    1  A    between atoms: C_6  and  C_7 
REMARK    2  A    between atoms: C_7  and  C_8 
REMARK    3  A    between atoms: C_11  and  N_12 
REMARK       I    between atoms: N_12  and  C_13 
REMARK       I    between atoms: C_13  and  N_14 
REMARK    4  A    between atoms: N_14  and  C_15 
REMARK    5  A    between atoms: C_15  and  C_16 
REMARK    6  A    between atoms: C_16  and  C_17 
REMARK    7  A    between atoms: C_16  and  C_19 
REMARK    8  A    between atoms: C_17  and  O_18 
REMARK    9  A    between atoms: C_19  and  C_20 
ROOT
HETATM    1  N   UNL     1     -40.258  52.713 -53.725  1.00  0.00    -0.309 N 
HETATM    2  C   UNL     1     -40.014  52.429 -52.418  1.00  0.00     0.320 C 
HETATM    3  N   UNL     1     -40.802  53.013 -51.477  1.00  0.00    -0.342 N 
HETATM    4  O   UNL     1     -39.123  51.629 -52.135  1.00  0.00    -0.247 OA
HETATM    5  H   UNL     1     -39.738  52.083 -54.324  1.00  0.00     0.170 HD
HETATM    6  H   UNL     1     -41.744  53.233 -51.764  1.00  0.00     0.164 HD
ENDROOT
BRANCH   1   7
HETATM    7  C   UNL     1     -40.966  53.743 -54.372  1.00  0.00     0.036 A 
HETATM    8  C   UNL     1     -40.429  54.982 -54.725  1.00  0.00     0.030 A 
HETATM    9  C   UNL     1     -41.210  55.934 -55.392  1.00  0.00     0.010 A 
HETATM   10  C   UNL     1     -42.535  55.652 -55.745  1.00  0.00    -0.051 A 
HETATM   11  C   UNL     1     -43.066  54.400 -55.419  1.00  0.00     0.010 A 
HETATM   12  C   UNL     1     -42.288  53.459 -54.739  1.00  0.00     0.030 A 
BRANCH  10  13
HETATM   13  C   UNL     1     -43.352  56.656 -56.528  1.00  0.00     0.118 C 
BRANCH  13  14
HETATM   14  C   UNL     1     -42.887  56.879 -57.928  1.00  0.00     0.126 A 
HETATM   15  N   UNL     1     -42.556  55.880 -58.803  1.00  0.00    -0.263 N 
HETATM   16  N   UNL     1     -42.161  56.373 -59.987  1.00  0.00    -0.158 NA
HETATM   17  H   UNL     1     -42.570  54.876 -58.659  1.00  0.00     0.190 HD
HETATM   18  C   UNL     1     -42.276  57.689 -59.782  1.00  0.00     0.144 A 
HETATM   19  C   UNL     1     -41.957  58.688 -60.820  1.00  0.00     0.095 C 
HETATM   20  N   UNL     1     -42.719  58.038 -58.532  1.00  0.00    -0.217 NA
ENDBRANCH  13  14
ENDBRANCH  10  13
ENDBRANCH   1   7
BRANCH   3  21
HETATM   21  C   UNL     1     -40.557  52.844 -50.057  1.00  0.00     0.131 C 
BRANCH  21  22
HETATM   22  C   UNL     1     -40.840  54.098 -49.211  1.00  0.00     0.033 C 
BRANCH  22  23
HETATM   23  C   UNL     1     -40.089  54.068 -47.872  1.00  0.00     0.170 C 
BRANCH  23  24
HETATM   24  O   UNL     1     -40.844  53.342 -46.905  1.00  0.00    -0.400 OA
HETATM   25  H   UNL     1     -41.341  53.990 -46.376  1.00  0.00     0.209 HD
ENDBRANCH  23  24
ENDBRANCH  22  23
BRANCH  22  26
HETATM   26  C   UNL     1     -40.460  55.381 -49.981  1.00  0.00     0.073 C 
BRANCH  26  27
HETATM   27  C   UNL     1     -41.569  55.937 -50.803  1.00  0.00     0.053 A 
HETATM   28  O   UNL     1     -42.805  55.400 -50.605  1.00  0.00    -0.327 OA
HETATM   29  C   UNL     1     -43.656  56.047 -51.442  1.00  0.00     0.142 A 
HETATM   30  C   UNL     1     -42.980  56.990 -52.180  1.00  0.00     0.027 A 
HETATM   31  C   UNL     1     -41.628  56.922 -51.765  1.00  0.00     0.034 A 
ENDBRANCH  26  27
ENDBRANCH  22  26
ENDBRANCH  21  22
ENDBRANCH   3  21
TORSDOF 9
ENDMDL
MODEL 9
REMARK VINA RESULT:      -6.9      2.278      3.263
REMARK  9 active torsions:
REMARK  status: ('A' for Active; 'I' for Inactive)
REMARK    1  A    between atoms: C_6  and  C_7 
REMARK    2  A    between atoms: C_7  and  C_8 
REMARK    3  A    between atoms: C_11  and  N_12 
REMARK       I    between atoms: N_12  and  C_13 
REMARK       I    between atoms: C_13  and  N_14 
REMARK    4  A    between atoms: N_14  and  C_15 
REMARK    5  A    between atoms: C_15  and  C_16 
REMARK    6  A    between atoms: C_16  and  C_17 
REMARK    7  A    between atoms: C_16  and  C_19 
REMARK    8  A    between atoms: C_17  and  O_18 
REMARK    9  A    between atoms: C_19  and  C_20 
ROOT
HETATM    1  N   UNL     1     -44.113  56.718 -52.303  1.00  0.00    -0.309 N 
HETATM    2  C   UNL     1     -44.342  57.327 -53.497  1.00  0.00     0.320 C 
HETATM    3  N   UNL     1     -43.797  56.775 -54.613  1.00  0.00    -0.342 N 
HETATM    4  O   UNL     1     -45.059  58.326 -53.533  1.00  0.00    -0.247 OA
HETATM    5  H   UNL     1     -44.715  57.110 -51.588  1.00  0.00     0.170 HD
HETATM    6  H   UNL     1     -43.661  55.774 -54.589  1.00  0.00     0.164 HD
ENDROOT
BRANCH   1   7
HETATM    7  C   UNL     1     -43.160  55.778 -51.867  1.00  0.00     0.036 A 
HETATM    8  C   UNL     1     -43.334  54.394 -51.891  1.00  0.00     0.030 A 
HETATM    9  C   UNL     1     -42.313  53.539 -51.459  1.00  0.00     0.010 A 
HETATM   10  C   UNL     1     -41.087  54.053 -51.021  1.00  0.00    -0.051 A 
HETATM   11  C   UNL     1     -40.899  55.439 -51.023  1.00  0.00     0.010 A 
HETATM   12  C   UNL     1     -41.927  56.289 -51.442  1.00  0.00     0.030 A 
BRANCH  10  13
HETATM   13  C   UNL     1     -39.962  53.124 -50.621  1.00  0.00     0.118 C 
BRANCH  13  14
HETATM   14  C   UNL     1     -39.831  51.905 -51.472  1.00  0.00     0.126 A 
HETATM   15  N   UNL     1     -39.742  50.628 -50.989  1.00  0.00    -0.263 N 
HETATM   16  N   UNL     1     -39.620  49.733 -51.981  1.00  0.00    -0.158 NA
HETATM   17  H   UNL     1     -39.750  50.309 -50.026  1.00  0.00     0.190 HD
HETATM   18  C   UNL     1     -39.646  50.523 -53.060  1.00  0.00     0.144 A 
HETATM   19  C   UNL     1     -39.550  49.997 -54.434  1.00  0.00     0.095 C 
HETATM   20  N   UNL     1     -39.775  51.860 -52.788  1.00  0.00    -0.217 NA
ENDBRANCH  13  14
ENDBRANCH  10  13
ENDBRANCH   1   7
BRANCH   3  21
HETATM   21  C   UNL     1     -43.908  57.405 -55.915  1.00  0.00     0.131 C 
BRANCH  21  22
HETATM   22  C   UNL     1     -43.068  56.735 -57.017  1.00  0.00     0.033 C 
BRANCH  22  23
HETATM   23  C   UNL     1     -42.767  55.264 -56.694  1.00  0.00     0.170 C 
BRANCH  23  24
HETATM   24  O   UNL     1     -41.508  55.158 -56.036  1.00  0.00    -0.400 OA
HETATM   25  H   UNL     1     -41.642  55.408 -55.106  1.00  0.00     0.209 HD
ENDBRANCH  23  24
ENDBRANCH  22  23
BRANCH  22  26
HETATM   26  C   UNL     1     -43.781  56.823 -58.385  1.00  0.00     0.073 C 
BRANCH  26  27
HETATM   27  C   UNL     1     -43.142  57.773 -59.334  1.00  0.00     0.053 A 
HETATM   28  O   UNL     1     -43.791  58.952 -59.549  1.00  0.00    -0.327 OA
HETATM   29  C   UNL     1     -43.042  59.660 -60.432  1.00  0.00     0.142 A 
HETATM   30  C   UNL     1     -41.922  58.948 -60.793  1.00  0.00     0.027 A 
HETATM   31  C   UNL     1     -41.984  57.726 -60.080  1.00  0.00     0.034 A 
ENDBRANCH  26  27
ENDBRANCH  22  26
ENDBRANCH  21  22
ENDBRANCH   3  21
TORSDOF 9
ENDMDL
MODEL 10
REMARK VINA RESULT:      -6.9      1.930      4.320
REMARK  9 active torsions:
REMARK  status: ('A' for Active; 'I' for Inactive)
REMARK    1  A    between atoms: C_6  and  C_7 
REMARK    2  A    between atoms: C_7  and  C_8 
REMARK    3  A    between atoms: C_11  and  N_12 
REMARK       I    between atoms: N_12  and  C_13 
REMARK       I    between atoms: C_13  and  N_14 
REMARK    4  A    between atoms: N_14  and  C_15 
REMARK    5  A    between atoms: C_15  and  C_16 
REMARK    6  A    between atoms: C_16  and  C_17 
REMARK    7  A    between atoms: C_16  and  C_19 
REMARK    8  A    between atoms: C_17  and  O_18 
REMARK    9  A    between atoms: C_19  and  C_20 
ROOT
HETATM    1  N   UNL     1     -43.598  56.402 -56.084  1.00  0.00    -0.309 N 
HETATM    2  C   UNL     1     -44.339  57.382 -55.500  1.00  0.00     0.320 C 
HETATM    3  N   UNL     1     -43.943  57.848 -54.286  1.00  0.00    -0.342 N 
HETATM    4  O   UNL     1     -45.311  57.837 -56.101  1.00  0.00    -0.247 OA
HETATM    5  H   UNL     1     -43.881  56.276 -57.049  1.00  0.00     0.170 HD
HETATM    6  H   UNL     1     -42.952  57.802 -54.097  1.00  0.00     0.164 HD
ENDROOT
BRANCH   1   7
HETATM    7  C   UNL     1     -42.644  55.493 -55.592  1.00  0.00     0.036 A 
HETATM    8  C   UNL     1     -41.297  55.786 -55.378  1.00  0.00     0.030 A 
HETATM    9  C   UNL     1     -40.429  54.816 -54.858  1.00  0.00     0.010 A 
HETATM   10  C   UNL     1     -40.901  53.543 -54.516  1.00  0.00    -0.051 A 
HETATM   11  C   UNL     1     -42.257  53.256 -54.702  1.00  0.00     0.010 A 
HETATM   12  C   UNL     1     -43.116  54.223 -55.235  1.00  0.00     0.030 A 
BRANCH  10  13
HETATM   13  C   UNL     1     -39.976  52.523 -53.891  1.00  0.00     0.118 C 
BRANCH  13  14
HETATM   14  C   UNL     1     -40.076  52.422 -52.405  1.00  0.00     0.126 A 
HETATM   15  N   UNL     1     -39.931  51.260 -51.697  1.00  0.00    -0.263 N 
HETATM   16  N   UNL     1     -40.083  51.465 -50.379  1.00  0.00    -0.158 NA
HETATM   17  H   UNL     1     -39.741  50.324 -52.038  1.00  0.00     0.190 HD
HETATM   18  C   UNL     1     -40.316  52.781 -50.337  1.00  0.00     0.144 A 
HETATM   19  C   UNL     1     -40.546  53.508 -49.074  1.00  0.00     0.095 C 
HETATM   20  N   UNL     1     -40.318  53.402 -51.559  1.00  0.00    -0.217 NA
ENDBRANCH  13  14
ENDBRANCH  10  13
ENDBRANCH   1   7
BRANCH   3  21
HETATM   21  C   UNL     1     -44.722  58.822 -53.545  1.00  0.00     0.131 C 
BRANCH  21  22
HETATM   22  C   UNL     1     -44.337  58.946 -52.061  1.00  0.00     0.033 C 
BRANCH  22  23
HETATM   23  C   UNL     1     -45.562  58.849 -51.140  1.00  0.00     0.170 C 
BRANCH  23  24
HETATM   24  O   UNL     1     -45.292  57.958 -50.061  1.00  0.00    -0.400 OA
HETATM   25  H   UNL     1     -46.128  57.522 -49.825  1.00  0.00     0.209 HD
ENDBRANCH  23  24
ENDBRANCH  22  23
BRANCH  22  26
HETATM   26  C   UNL     1     -43.311  57.860 -51.664  1.00  0.00     0.073 C 
BRANCH  26  27
HETATM   27  C   UNL     1     -41.906  58.345 -51.637  1.00  0.00     0.053 A 
HETATM   28  O   UNL     1     -41.218  58.292 -52.812  1.00  0.00    -0.327 OA
HETATM   29  C   UNL     1     -39.976  58.780 -52.565  1.00  0.00     0.142 A 
HETATM   30  C   UNL     1     -39.854  59.141 -51.243  1.00  0.00     0.027 A 
HETATM   31  C   UNL     1     -41.105  58.862 -50.641  1.00  0.00     0.034 A 
ENDBRANCH  26  27
ENDBRANCH  22  26
ENDBRANCH  21  22
ENDBRANCH   3  21
TORSDOF 9
ENDMDL
