MODEL 1
REMARK VINA RESULT:      -9.6      0.000      0.000
REMARK  6 active torsions:
REMARK  status: ('A' for Active; 'I' for Inactive)
REMARK    1  A    between atoms: C_5  and  N_6 
REMARK       I    between atoms: N_6  and  C_7 
REMARK    2  A    between atoms: C_7  and  C_8 
REMARK    3  A    between atoms: C_8  and  S_9 
REMARK    4  A    between atoms: S_9  and  C_10 
REMARK    5  A    between atoms: N_15  and  C_17 
REMARK    6  A    between atoms: C_17  and  C_18 
ROOT
HETATM    1  C   UNL     1     -43.007  55.795 -52.200  1.00  0.00     0.169 A 
HETATM    2  N   UNL     1     -42.870  55.058 -53.247  1.00  0.00    -0.228 NA
HETATM    3  C   UNL     1     -42.861  55.675 -54.468  1.00  0.00     0.052 A 
HETATM    4  C   UNL     1     -42.932  57.005 -54.624  1.00  0.00     0.060 A 
HETATM    5  C   UNL     1     -42.833  57.701 -55.933  1.00  0.00     0.281 C 
HETATM    6  N   UNL     1     -42.302  56.777 -57.024  1.00  0.00    -0.063 N 
HETATM    7  H   UNL     1     -41.323  56.584 -56.780  1.00  0.00     0.280 HD
HETATM    8  C   UNL     1     -43.031  55.452 -56.996  1.00  0.00     0.241 C 
HETATM    9  C   UNL     1     -42.768  54.751 -55.659  1.00  0.00     0.088 C 
HETATM   10  C   UNL     1     -43.078  57.835 -53.414  1.00  0.00     0.257 A 
HETATM   11  O   UNL     1     -43.157  59.052 -53.499  1.00  0.00    -0.267 OA
HETATM   12  N   UNL     1     -43.118  57.149 -52.239  1.00  0.00    -0.302 N 
HETATM   13  H   UNL     1     -43.212  57.668 -51.378  1.00  0.00     0.171 HD
ENDROOT
BRANCH   1  14
HETATM   14  S   UNL     1     -43.070  55.147 -50.594  1.00  0.00    -0.083 SA
BRANCH  14  15
HETATM   15  C   UNL     1     -41.363  55.477 -50.028  1.00  0.00     0.185 C 
BRANCH  15  16
HETATM   16  C   UNL     1     -40.449  54.281 -50.278  1.00  0.00     0.231 C 
HETATM   17  N   UNL     1     -41.082  53.266 -50.981  1.00  0.00    -0.326 N 
HETATM   18  H   UNL     1     -41.924  53.559 -51.466  1.00  0.00     0.169 HD
HETATM   19  O   UNL     1     -39.285  54.286 -49.888  1.00  0.00    -0.272 OA
BRANCH  17  20
HETATM   20  C   UNL     1     -40.491  52.074 -51.460  1.00  0.00     0.041 C 
HETATM   21  C   UNL     1     -40.168  51.792 -52.804  1.00  0.00    -0.029 C 
HETATM   22  C   UNL     1     -39.714  50.489 -53.139  1.00  0.00    -0.054 C 
HETATM   23  C   UNL     1     -40.215  52.838 -53.888  1.00  0.00     0.051 C 
HETATM   24  C   UNL     1     -39.408  50.092 -54.561  1.00  0.00     0.049 C 
HETATM   25  C   UNL     1     -39.472  49.548 -52.126  1.00  0.00     0.007 C 
HETATM   26  C   UNL     1     -39.694  49.871 -50.794  1.00  0.00     0.003 C 
HETATM   27  C   UNL     1     -40.200  51.125 -50.465  1.00  0.00     0.030 C 
ENDBRANCH  17  20
ENDBRANCH  15  16
ENDBRANCH  14  15
ENDBRANCH   1  14
BRANCH   6  28
HETATM   28  C   UNL     1     -42.273  57.417 -58.390  1.00  0.00     0.273 C 
BRANCH  28  29
HETATM   29  C   UNL     1     -43.417  56.960 -59.258  1.00  0.00    -0.030 A 
HETATM   30  C   UNL     1     -44.595  57.724 -59.338  1.00  0.00     0.048 A 
HETATM   31  C   UNL     1     -45.655  57.215 -60.058  1.00  0.00     0.105 A 
HETATM   32  C   UNL     1     -45.577  56.012 -60.712  1.00  0.00     0.105 A 
HETATM   33  O   UNL     1     -46.873  57.803 -60.190  1.00  0.00    -0.323 OA
HETATM   34  O   UNL     1     -46.735  55.692 -61.346  1.00  0.00    -0.323 OA
HETATM   35  C   UNL     1     -44.429  55.251 -60.691  1.00  0.00     0.040 A 
HETATM   36  C   UNL     1     -47.562  56.822 -61.000  1.00  0.00     0.352 A 
HETATM   37  C   UNL     1     -43.340  55.729 -59.952  1.00  0.00     0.012 A 
ENDBRANCH  28  29
ENDBRANCH   6  28
TORSDOF 6
ENDMDL
MODEL 2
REMARK VINA RESULT:      -9.6      2.317      3.190
REMARK  6 active torsions:
REMARK  status: ('A' for Active; 'I' for Inactive)
REMARK    1  A    between atoms: C_5  and  N_6 
REMARK       I    between atoms: N_6  and  C_7 
REMARK    2  A    between atoms: C_7  and  C_8 
REMARK    3  A    between atoms: C_8  and  S_9 
REMARK    4  A    between atoms: S_9  and  C_10 
REMARK    5  A    between atoms: N_15  and  C_17 
REMARK    6  A    between atoms: C_17  and  C_18 
ROOT
HETATM    1  C   UNL     1     -43.291  55.847 -52.222  1.00  0.00     0.169 A 
HETATM    2  N   UNL     1     -42.772  55.240 -53.232  1.00  0.00    -0.228 NA
HETATM    3  C   UNL     1     -43.116  55.670 -54.484  1.00  0.00     0.052 A 
HETATM    4  C   UNL     1     -43.918  56.722 -54.710  1.00  0.00     0.060 A 
HETATM    5  C   UNL     1     -44.231  57.261 -56.058  1.00  0.00     0.281 C 
HETATM    6  N   UNL     1     -43.282  56.714 -57.119  1.00  0.00    -0.063 N 
HETATM    7  H   UNL     1     -42.360  57.116 -56.907  1.00  0.00     0.280 HD
HETATM    8  C   UNL     1     -43.147  55.213 -56.986  1.00  0.00     0.241 C 
HETATM    9  C   UNL     1     -42.530  54.873 -55.626  1.00  0.00     0.088 C 
HETATM   10  C   UNL     1     -44.495  57.412 -53.542  1.00  0.00     0.257 A 
HETATM   11  O   UNL     1     -45.240  58.370 -53.690  1.00  0.00    -0.267 OA
HETATM   12  N   UNL     1     -44.139  56.904 -52.330  1.00  0.00    -0.302 N 
HETATM   13  H   UNL     1     -44.501  57.342 -51.495  1.00  0.00     0.171 HD
ENDROOT
BRANCH   1  14
HETATM   14  S   UNL     1     -42.972  55.388 -50.581  1.00  0.00    -0.083 SA
BRANCH  14  15
HETATM   15  C   UNL     1     -41.177  55.715 -50.480  1.00  0.00     0.185 C 
BRANCH  15  16
HETATM   16  C   UNL     1     -40.368  54.424 -50.532  1.00  0.00     0.231 C 
HETATM   17  N   UNL     1     -40.960  53.458 -51.333  1.00  0.00    -0.326 N 
HETATM   18  H   UNL     1     -41.656  53.821 -51.977  1.00  0.00     0.169 HD
HETATM   19  O   UNL     1     -39.306  54.320 -49.924  1.00  0.00    -0.272 OA
BRANCH  17  20
HETATM   20  C   UNL     1     -40.422  52.195 -51.674  1.00  0.00     0.041 C 
HETATM   21  C   UNL     1     -40.083  51.763 -52.973  1.00  0.00    -0.029 C 
HETATM   22  C   UNL     1     -39.690  50.411 -53.163  1.00  0.00    -0.054 C 
HETATM   23  C   UNL     1     -40.050  52.695 -54.158  1.00  0.00     0.051 C 
HETATM   24  C   UNL     1     -39.373  49.857 -54.529  1.00  0.00     0.049 C 
HETATM   25  C   UNL     1     -39.521  49.567 -52.055  1.00  0.00     0.007 C 
HETATM   26  C   UNL     1     -39.756  50.034 -50.769  1.00  0.00     0.003 C 
HETATM   27  C   UNL     1     -40.203  51.339 -50.582  1.00  0.00     0.030 C 
ENDBRANCH  17  20
ENDBRANCH  15  16
ENDBRANCH  14  15
ENDBRANCH   1  14
BRANCH   6  28
HETATM   28  C   UNL     1     -43.622  57.165 -58.518  1.00  0.00     0.273 C 
BRANCH  28  29
HETATM   29  C   UNL     1     -42.826  58.375 -58.936  1.00  0.00    -0.030 A 
HETATM   30  C   UNL     1     -42.198  59.179 -57.967  1.00  0.00     0.048 A 
HETATM   31  C   UNL     1     -41.572  60.334 -58.385  1.00  0.00     0.105 A 
HETATM   32  C   UNL     1     -41.523  60.695 -59.708  1.00  0.00     0.105 A 
HETATM   33  O   UNL     1     -40.965  61.239 -57.574  1.00  0.00    -0.323 OA
HETATM   34  O   UNL     1     -40.873  61.872 -59.898  1.00  0.00    -0.323 OA
HETATM   35  C   UNL     1     -42.093  59.917 -60.691  1.00  0.00     0.040 A 
HETATM   36  C   UNL     1     -40.533  62.224 -58.541  1.00  0.00     0.352 A 
HETATM   37  C   UNL     1     -42.754  58.748 -60.299  1.00  0.00     0.012 A 
ENDBRANCH  28  29
ENDBRANCH   6  28
TORSDOF 6
ENDMDL
MODEL 3
REMARK VINA RESULT:      -9.3      1.317      2.066
REMARK  6 active torsions:
REMARK  status: ('A' for Active; 'I' for Inactive)
REMARK    1  A    between atoms: C_5  and  N_6 
REMARK       I    between atoms: N_6  and  C_7 
REMARK    2  A    between atoms: C_7  and  C_8 
REMARK    3  A    between atoms: C_8  and  S_9 
REMARK    4  A    between atoms: S_9  and  C_10 
REMARK    5  A    between atoms: N_15  and  C_17 
REMARK    6  A    between atoms: C_17  and  C_18 
ROOT
HETATM    1  C   UNL     1     -42.832  55.878 -51.904  1.00  0.00     0.169 A 
HETATM    2  N   UNL     1     -42.680  57.148 -52.044  1.00  0.00    -0.228 NA
HETATM    3  C   UNL     1     -42.539  57.640 -53.313  1.00  0.00     0.052 A 
HETATM    4  C   UNL     1     -42.608  56.876 -54.413  1.00  0.00     0.060 A 
HETATM    5  C   UNL     1     -42.548  57.402 -55.802  1.00  0.00     0.281 C 
HETATM    6  N   UNL     1     -42.748  58.913 -55.842  1.00  0.00    -0.063 N 
HETATM    7  H   UNL     1     -43.723  59.077 -55.564  1.00  0.00     0.280 HD
HETATM    8  C   UNL     1     -41.877  59.589 -54.806  1.00  0.00     0.241 C 
HETATM    9  C   UNL     1     -42.293  59.128 -53.407  1.00  0.00     0.088 C 
HETATM   10  C   UNL     1     -42.793  55.425 -54.234  1.00  0.00     0.257 A 
HETATM   11  O   UNL     1     -42.852  54.681 -55.203  1.00  0.00    -0.267 OA
HETATM   12  N   UNL     1     -42.886  55.004 -52.943  1.00  0.00    -0.302 N 
HETATM   13  H   UNL     1     -43.019  54.019 -52.763  1.00  0.00     0.171 HD
ENDROOT
BRANCH   1  14
HETATM   14  S   UNL     1     -42.988  55.113 -50.356  1.00  0.00    -0.083 SA
BRANCH  14  15
HETATM   15  C   UNL     1     -41.307  55.364 -49.683  1.00  0.00     0.185 C 
BRANCH  15  16
HETATM   16  C   UNL     1     -40.379  54.210 -50.050  1.00  0.00     0.231 C 
HETATM   17  N   UNL     1     -41.052  53.160 -50.659  1.00  0.00    -0.326 N 
HETATM   18  H   UNL     1     -41.963  53.410 -51.029  1.00  0.00     0.169 HD
HETATM   19  O   UNL     1     -39.175  54.272 -49.820  1.00  0.00    -0.272 OA
BRANCH  17  20
HETATM   20  C   UNL     1     -40.474  51.993 -51.210  1.00  0.00     0.041 C 
HETATM   21  C   UNL     1     -40.138  51.796 -52.566  1.00  0.00    -0.029 C 
HETATM   22  C   UNL     1     -39.701  50.510 -52.983  1.00  0.00    -0.054 C 
HETATM   23  C   UNL     1     -40.152  52.914 -53.578  1.00  0.00     0.051 C 
HETATM   24  C   UNL     1     -39.382  50.204 -54.424  1.00  0.00     0.049 C 
HETATM   25  C   UNL     1     -39.489  49.500 -52.033  1.00  0.00     0.007 C 
HETATM   26  C   UNL     1     -39.723  49.736 -50.685  1.00  0.00     0.003 C 
HETATM   27  C   UNL     1     -40.213  50.974 -50.279  1.00  0.00     0.030 C 
ENDBRANCH  17  20
ENDBRANCH  15  16
ENDBRANCH  14  15
ENDBRANCH   1  14
BRANCH   6  28
HETATM   28  C   UNL     1     -42.603  59.500 -57.224  1.00  0.00     0.273 C 
BRANCH  28  29
HETATM   29  C   UNL     1     -42.997  58.522 -58.302  1.00  0.00    -0.030 A 
HETATM   30  C   UNL     1     -44.347  58.169 -58.478  1.00  0.00     0.048 A 
HETATM   31  C   UNL     1     -44.650  57.192 -59.403  1.00  0.00     0.105 A 
HETATM   32  C   UNL     1     -43.682  56.588 -60.164  1.00  0.00     0.105 A 
HETATM   33  O   UNL     1     -45.892  56.704 -59.656  1.00  0.00    -0.323 OA
HETATM   34  O   UNL     1     -44.193  55.646 -60.999  1.00  0.00    -0.323 OA
HETATM   35  C   UNL     1     -42.353  56.932 -60.050  1.00  0.00     0.040 A 
HETATM   36  C   UNL     1     -45.595  55.710 -60.663  1.00  0.00     0.352 A 
HETATM   37  C   UNL     1     -42.008  57.906 -59.106  1.00  0.00     0.012 A 
ENDBRANCH  28  29
ENDBRANCH   6  28
TORSDOF 6
ENDMDL
MODEL 4
REMARK VINA RESULT:      -9.3      1.563      2.029
REMARK  6 active torsions:
REMARK  status: ('A' for Active; 'I' for Inactive)
REMARK    1  A    between atoms: C_5  and  N_6 
REMARK       I    between atoms: N_6  and  C_7 
REMARK    2  A    between atoms: C_7  and  C_8 
REMARK    3  A    between atoms: C_8  and  S_9 
REMARK    4  A    between atoms: S_9  and  C_10 
REMARK    5  A    between atoms: N_15  and  C_17 
REMARK    6  A    between atoms: C_17  and  C_18 
ROOT
HETATM    1  C   UNL     1     -41.671  57.268 -53.442  1.00  0.00     0.169 A 
HETATM    2  N   UNL     1     -41.929  56.298 -54.248  1.00  0.00    -0.228 NA
HETATM    3  C   UNL     1     -42.187  56.603 -55.556  1.00  0.00     0.052 A 
HETATM    4  C   UNL     1     -42.128  57.849 -56.049  1.00  0.00     0.060 A 
HETATM    5  C   UNL     1     -42.315  58.192 -57.483  1.00  0.00     0.281 C 
HETATM    6  N   UNL     1     -42.236  56.956 -58.372  1.00  0.00    -0.063 N 
HETATM    7  H   UNL     1     -41.260  56.636 -58.327  1.00  0.00     0.280 HD
HETATM    8  C   UNL     1     -43.090  55.842 -57.808  1.00  0.00     0.241 C 
HETATM    9  C   UNL     1     -42.552  55.430 -56.435  1.00  0.00     0.088 C 
HETATM   10  C   UNL     1     -41.820  58.947 -55.115  1.00  0.00     0.257 A 
HETATM   11  O   UNL     1     -41.764  60.104 -55.509  1.00  0.00    -0.267 OA
HETATM   12  N   UNL     1     -41.615  58.572 -53.823  1.00  0.00    -0.302 N 
HETATM   13  H   UNL     1     -41.394  59.284 -53.140  1.00  0.00     0.171 HD
ENDROOT
BRANCH   1  14
HETATM   14  S   UNL     1     -41.360  57.033 -51.753  1.00  0.00    -0.083 SA
BRANCH  14  15
HETATM   15  C   UNL     1     -42.801  56.012 -51.282  1.00  0.00     0.185 C 
BRANCH  15  16
HETATM   16  C   UNL     1     -42.540  54.529 -51.522  1.00  0.00     0.231 C 
HETATM   17  N   UNL     1     -41.206  54.261 -51.792  1.00  0.00    -0.326 N 
HETATM   18  H   UNL     1     -40.569  55.001 -51.515  1.00  0.00     0.169 HD
HETATM   19  O   UNL     1     -43.452  53.709 -51.453  1.00  0.00    -0.272 OA
BRANCH  17  20
HETATM   20  C   UNL     1     -40.617  52.986 -51.958  1.00  0.00     0.041 C 
HETATM   21  C   UNL     1     -40.311  52.370 -53.190  1.00  0.00    -0.029 C 
HETATM   22  C   UNL     1     -39.856  51.024 -53.186  1.00  0.00    -0.054 C 
HETATM   23  C   UNL     1     -40.376  53.103 -54.505  1.00  0.00     0.051 C 
HETATM   24  C   UNL     1     -39.568  50.276 -54.463  1.00  0.00     0.049 C 
HETATM   25  C   UNL     1     -39.597  50.374 -51.970  1.00  0.00     0.007 C 
HETATM   26  C   UNL     1     -39.802  51.027 -50.762  1.00  0.00     0.003 C 
HETATM   27  C   UNL     1     -40.308  52.323 -50.758  1.00  0.00     0.030 C 
ENDBRANCH  17  20
ENDBRANCH  15  16
ENDBRANCH  14  15
ENDBRANCH   1  14
BRANCH   6  28
HETATM   28  C   UNL     1     -42.512  57.246 -59.827  1.00  0.00     0.273 C 
BRANCH  28  29
HETATM   29  C   UNL     1     -43.976  57.488 -60.092  1.00  0.00    -0.030 A 
HETATM   30  C   UNL     1     -44.787  56.449 -60.584  1.00  0.00     0.048 A 
HETATM   31  C   UNL     1     -46.094  56.743 -60.913  1.00  0.00     0.105 A 
HETATM   32  C   UNL     1     -46.620  57.998 -60.746  1.00  0.00     0.105 A 
HETATM   33  O   UNL     1     -46.988  55.869 -61.445  1.00  0.00    -0.323 OA
HETATM   34  O   UNL     1     -47.916  58.073 -61.146  1.00  0.00    -0.323 OA
HETATM   35  C   UNL     1     -45.870  59.033 -60.232  1.00  0.00     0.040 A 
HETATM   36  C   UNL     1     -48.143  56.724 -61.604  1.00  0.00     0.352 A 
HETATM   37  C   UNL     1     -44.534  58.775 -59.906  1.00  0.00     0.012 A 
ENDBRANCH  28  29
ENDBRANCH   6  28
TORSDOF 6
ENDMDL
MODEL 5
REMARK VINA RESULT:      -9.3      2.238      9.031
REMARK  6 active torsions:
REMARK  status: ('A' for Active; 'I' for Inactive)
REMARK    1  A    between atoms: C_5  and  N_6 
REMARK       I    between atoms: N_6  and  C_7 
REMARK    2  A    between atoms: C_7  and  C_8 
REMARK    3  A    between atoms: C_8  and  S_9 
REMARK    4  A    between atoms: S_9  and  C_10 
REMARK    5  A    between atoms: N_15  and  C_17 
REMARK    6  A    between atoms: C_17  and  C_18 
ROOT
HETATM    1  C   UNL     1     -43.051  57.960 -53.290  1.00  0.00     0.169 A 
HETATM    2  N   UNL     1     -42.235  58.000 -52.295  1.00  0.00    -0.228 NA
HETATM    3  C   UNL     1     -41.991  56.836 -51.619  1.00  0.00     0.052 A 
HETATM    4  C   UNL     1     -42.512  55.652 -51.975  1.00  0.00     0.060 A 
HETATM    5  C   UNL     1     -42.189  54.362 -51.312  1.00  0.00     0.281 C 
HETATM    6  N   UNL     1     -40.955  54.479 -50.423  1.00  0.00    -0.063 N 
HETATM    7  H   UNL     1     -40.162  54.628 -51.059  1.00  0.00     0.280 HD
HETATM    8  C   UNL     1     -41.050  55.706 -49.544  1.00  0.00     0.241 C 
HETATM    9  C   UNL     1     -41.081  56.962 -50.420  1.00  0.00     0.088 C 
HETATM   10  C   UNL     1     -43.436  55.623 -53.123  1.00  0.00     0.257 A 
HETATM   11  O   UNL     1     -43.948  54.572 -53.483  1.00  0.00    -0.267 OA
HETATM   12  N   UNL     1     -43.662  56.824 -53.720  1.00  0.00    -0.302 N 
HETATM   13  H   UNL     1     -44.283  56.861 -54.516  1.00  0.00     0.171 HD
ENDROOT
BRANCH   1  14
HETATM   14  S   UNL     1     -43.480  59.363 -54.214  1.00  0.00    -0.083 SA
BRANCH  14  15
HETATM   15  C   UNL     1     -42.890  58.870 -55.872  1.00  0.00     0.185 C 
BRANCH  15  16
HETATM   16  C   UNL     1     -43.957  58.096 -56.639  1.00  0.00     0.231 C 
HETATM   17  N   UNL     1     -43.500  57.638 -57.867  1.00  0.00    -0.326 N 
HETATM   18  H   UNL     1     -42.489  57.621 -57.955  1.00  0.00     0.169 HD
HETATM   19  O   UNL     1     -45.073  57.918 -56.160  1.00  0.00    -0.272 OA
BRANCH  17  20
HETATM   20  C   UNL     1     -44.200  56.806 -58.772  1.00  0.00     0.041 C 
HETATM   21  C   UNL     1     -45.342  57.170 -59.517  1.00  0.00    -0.029 C 
HETATM   22  C   UNL     1     -46.013  56.170 -60.271  1.00  0.00    -0.054 C 
HETATM   23  C   UNL     1     -45.837  58.591 -59.606  1.00  0.00     0.051 C 
HETATM   24  C   UNL     1     -47.274  56.466 -61.043  1.00  0.00     0.049 C 
HETATM   25  C   UNL     1     -45.468  54.881 -60.368  1.00  0.00     0.007 C 
HETATM   26  C   UNL     1     -44.286  54.562 -59.715  1.00  0.00     0.003 C 
HETATM   27  C   UNL     1     -43.658  55.519 -58.922  1.00  0.00     0.030 C 
ENDBRANCH  17  20
ENDBRANCH  15  16
ENDBRANCH  14  15
ENDBRANCH   1  14
BRANCH   6  28
HETATM   28  C   UNL     1     -40.646  53.215 -49.659  1.00  0.00     0.273 C 
BRANCH  28  29
HETATM   29  C   UNL     1     -40.238  52.084 -50.569  1.00  0.00    -0.030 A 
HETATM   30  C   UNL     1     -39.992  52.327 -51.932  1.00  0.00     0.048 A 
HETATM   31  C   UNL     1     -39.726  51.248 -52.749  1.00  0.00     0.105 A 
HETATM   32  C   UNL     1     -39.670  49.966 -52.262  1.00  0.00     0.105 A 
HETATM   33  O   UNL     1     -39.517  51.307 -54.090  1.00  0.00    -0.323 OA
HETATM   34  O   UNL     1     -39.411  49.055 -53.236  1.00  0.00    -0.323 OA
HETATM   35  C   UNL     1     -39.868  49.691 -50.927  1.00  0.00     0.040 A 
HETATM   36  C   UNL     1     -39.330  49.906 -54.398  1.00  0.00     0.352 A 
HETATM   37  C   UNL     1     -40.159  50.761 -50.074  1.00  0.00     0.012 A 
ENDBRANCH  28  29
ENDBRANCH   6  28
TORSDOF 6
ENDMDL
MODEL 6
REMARK VINA RESULT:      -9.1      2.804      8.066
REMARK  6 active torsions:
REMARK  status: ('A' for Active; 'I' for Inactive)
REMARK    1  A    between atoms: C_5  and  N_6 
REMARK       I    between atoms: N_6  and  C_7 
REMARK    2  A    between atoms: C_7  and  C_8 
REMARK    3  A    between atoms: C_8  and  S_9 
REMARK    4  A    between atoms: S_9  and  C_10 
REMARK    5  A    between atoms: N_15  and  C_17 
REMARK    6  A    between atoms: C_17  and  C_18 
ROOT
HETATM    1  C   UNL     1     -44.155  60.130 -52.547  1.00  0.00     0.169 A 
HETATM    2  N   UNL     1     -42.886  59.913 -52.558  1.00  0.00    -0.228 NA
HETATM    3  C   UNL     1     -42.427  58.764 -51.975  1.00  0.00     0.052 A 
HETATM    4  C   UNL     1     -43.233  57.831 -51.447  1.00  0.00     0.060 A 
HETATM    5  C   UNL     1     -42.762  56.535 -50.892  1.00  0.00     0.281 C 
HETATM    6  N   UNL     1     -41.323  56.238 -51.298  1.00  0.00    -0.063 N 
HETATM    7  H   UNL     1     -41.343  56.071 -52.312  1.00  0.00     0.280 HD
HETATM    8  C   UNL     1     -40.447  57.450 -51.069  1.00  0.00     0.241 C 
HETATM    9  C   UNL     1     -40.925  58.602 -51.958  1.00  0.00     0.088 C 
HETATM   10  C   UNL     1     -44.684  58.090 -51.453  1.00  0.00     0.257 A 
HETATM   11  O   UNL     1     -45.464  57.277 -50.975  1.00  0.00    -0.267 OA
HETATM   12  N   UNL     1     -45.063  59.270 -52.014  1.00  0.00    -0.302 N 
HETATM   13  H   UNL     1     -46.047  59.496 -52.049  1.00  0.00     0.171 HD
ENDROOT
BRANCH   1  14
HETATM   14  S   UNL     1     -44.873  61.558 -53.217  1.00  0.00    -0.083 SA
BRANCH  14  15
HETATM   15  C   UNL     1     -44.178  61.527 -54.906  1.00  0.00     0.185 C 
BRANCH  15  16
HETATM   16  C   UNL     1     -44.377  60.168 -55.570  1.00  0.00     0.231 C 
HETATM   17  N   UNL     1     -43.182  59.490 -55.761  1.00  0.00    -0.326 N 
HETATM   18  H   UNL     1     -42.413  59.837 -55.198  1.00  0.00     0.169 HD
HETATM   19  O   UNL     1     -45.501  59.768 -55.861  1.00  0.00    -0.272 OA
BRANCH  17  20
HETATM   20  C   UNL     1     -43.027  58.173 -56.253  1.00  0.00     0.041 C 
HETATM   21  C   UNL     1     -42.922  57.803 -57.610  1.00  0.00    -0.029 C 
HETATM   22  C   UNL     1     -42.918  56.422 -57.944  1.00  0.00    -0.054 C 
HETATM   23  C   UNL     1     -42.739  58.811 -58.716  1.00  0.00     0.051 C 
HETATM   24  C   UNL     1     -42.871  55.948 -59.374  1.00  0.00     0.049 C 
HETATM   25  C   UNL     1     -42.890  55.455 -56.928  1.00  0.00     0.007 C 
HETATM   26  C   UNL     1     -42.887  55.833 -55.593  1.00  0.00     0.003 C 
HETATM   27  C   UNL     1     -42.956  57.182 -55.259  1.00  0.00     0.030 C 
ENDBRANCH  17  20
ENDBRANCH  15  16
ENDBRANCH  14  15
ENDBRANCH   1  14
BRANCH   6  28
HETATM   28  C   UNL     1     -40.775  54.975 -50.679  1.00  0.00     0.273 C 
BRANCH  28  29
HETATM   29  C   UNL     1     -40.621  53.866 -51.689  1.00  0.00    -0.030 A 
HETATM   30  C   UNL     1     -40.195  52.590 -51.279  1.00  0.00     0.048 A 
HETATM   31  C   UNL     1     -39.965  51.637 -52.249  1.00  0.00     0.105 A 
HETATM   32  C   UNL     1     -40.168  51.894 -53.581  1.00  0.00     0.105 A 
HETATM   33  O   UNL     1     -39.506  50.379 -52.024  1.00  0.00    -0.323 OA
HETATM   34  O   UNL     1     -39.867  50.826 -54.365  1.00  0.00    -0.323 OA
HETATM   35  C   UNL     1     -40.620  53.119 -54.020  1.00  0.00     0.040 A 
HETATM   36  C   UNL     1     -39.432  49.870 -53.376  1.00  0.00     0.352 A 
HETATM   37  C   UNL     1     -40.845  54.115 -53.064  1.00  0.00     0.012 A 
ENDBRANCH  28  29
ENDBRANCH   6  28
TORSDOF 6
ENDMDL
MODEL 7
REMARK VINA RESULT:      -9.0      2.325      2.877
REMARK  6 active torsions:
REMARK  status: ('A' for Active; 'I' for Inactive)
REMARK    1  A    between atoms: C_5  and  N_6 
REMARK       I    between atoms: N_6  and  C_7 
REMARK    2  A    between atoms: C_7  and  C_8 
REMARK    3  A    between atoms: C_8  and  S_9 
REMARK    4  A    between atoms: S_9  and  C_10 
REMARK    5  A    between atoms: N_15  and  C_17 
REMARK    6  A    between atoms: C_17  and  C_18 
ROOT
HETATM    1  C   UNL     1     -41.839  57.283 -53.680  1.00  0.00     0.169 A 
HETATM    2  N   UNL     1     -42.110  56.279 -54.438  1.00  0.00    -0.228 NA
HETATM    3  C   UNL     1     -42.326  56.518 -55.766  1.00  0.00     0.052 A 
HETATM    4  C   UNL     1     -42.216  57.733 -56.326  1.00  0.00     0.060 A 
HETATM    5  C   UNL     1     -42.358  58.000 -57.780  1.00  0.00     0.281 C 
HETATM    6  N   UNL     1     -42.297  56.715 -58.599  1.00  0.00    -0.063 N 
HETATM    7  H   UNL     1     -41.334  56.369 -58.511  1.00  0.00     0.280 HD
HETATM    8  C   UNL     1     -43.200  55.661 -57.996  1.00  0.00     0.241 C 
HETATM    9  C   UNL     1     -42.708  55.310 -56.589  1.00  0.00     0.088 C 
HETATM   10  C   UNL     1     -41.896  58.870 -55.445  1.00  0.00     0.257 A 
HETATM   11  O   UNL     1     -41.794  60.001 -55.901  1.00  0.00    -0.267 OA
HETATM   12  N   UNL     1     -41.732  58.562 -54.130  1.00  0.00    -0.302 N 
HETATM   13  H   UNL     1     -41.506  59.303 -53.482  1.00  0.00     0.171 HD
ENDROOT
BRANCH   1  14
HETATM   14  S   UNL     1     -41.576  57.132 -51.973  1.00  0.00    -0.083 SA
BRANCH  14  15
HETATM   15  C   UNL     1     -43.004  56.095 -51.500  1.00  0.00     0.185 C 
BRANCH  15  16
HETATM   16  C   UNL     1     -42.683  54.609 -51.623  1.00  0.00     0.231 C 
HETATM   17  N   UNL     1     -41.354  54.378 -51.950  1.00  0.00    -0.326 N 
HETATM   18  H   UNL     1     -40.741  55.168 -51.780  1.00  0.00     0.169 HD
HETATM   19  O   UNL     1     -43.546  53.759 -51.425  1.00  0.00    -0.272 OA
BRANCH  17  20
HETATM   20  C   UNL     1     -40.712  53.122 -52.038  1.00  0.00     0.041 C 
HETATM   21  C   UNL     1     -40.335  52.466 -53.230  1.00  0.00    -0.029 C 
HETATM   22  C   UNL     1     -39.830  51.140 -53.150  1.00  0.00    -0.054 C 
HETATM   23  C   UNL     1     -40.375  53.141 -54.577  1.00  0.00     0.051 C 
HETATM   24  C   UNL     1     -39.465  50.352 -54.382  1.00  0.00     0.049 C 
HETATM   25  C   UNL     1     -39.596  50.553 -51.898  1.00  0.00     0.007 C 
HETATM   26  C   UNL     1     -39.872  51.247 -50.729  1.00  0.00     0.003 C 
HETATM   27  C   UNL     1     -40.426  52.522 -50.800  1.00  0.00     0.030 C 
ENDBRANCH  17  20
ENDBRANCH  15  16
ENDBRANCH  14  15
ENDBRANCH   1  14
BRANCH   6  28
HETATM   28  C   UNL     1     -42.529  56.933 -60.074  1.00  0.00     0.273 C 
BRANCH  28  29
HETATM   29  C   UNL     1     -42.908  58.358 -60.387  1.00  0.00    -0.030 A 
HETATM   30  C   UNL     1     -44.257  58.757 -60.347  1.00  0.00     0.048 A 
HETATM   31  C   UNL     1     -44.568  60.040 -60.743  1.00  0.00     0.105 A 
HETATM   32  C   UNL     1     -43.605  60.931 -61.142  1.00  0.00     0.105 A 
HETATM   33  O   UNL     1     -45.821  60.561 -60.810  1.00  0.00    -0.323 OA
HETATM   34  O   UNL     1     -44.128  62.131 -61.505  1.00  0.00    -0.323 OA
HETATM   35  C   UNL     1     -42.270  60.592 -61.159  1.00  0.00     0.040 A 
HETATM   36  C   UNL     1     -45.537  61.889 -61.309  1.00  0.00     0.352 A 
HETATM   37  C   UNL     1     -41.920  59.291 -60.781  1.00  0.00     0.012 A 
ENDBRANCH  28  29
ENDBRANCH   6  28
TORSDOF 6
ENDMDL
MODEL 8
REMARK VINA RESULT:      -8.9      2.688      8.949
REMARK  6 active torsions:
REMARK  status: ('A' for Active; 'I' for Inactive)
REMARK    1  A    between atoms: C_5  and  N_6 
REMARK       I    between atoms: N_6  and  C_7 
REMARK    2  A    between atoms: C_7  and  C_8 
REMARK    3  A    between atoms: C_8  and  S_9 
REMARK    4  A    between atoms: S_9  and  C_10 
REMARK    5  A    between atoms: N_15  and  C_17 
REMARK    6  A    between atoms: C_17  and  C_18 
ROOT
HETATM    1  C   UNL     1     -42.759  59.736 -55.773  1.00  0.00     0.169 A 
HETATM    2  N   UNL     1     -41.687  59.628 -55.068  1.00  0.00    -0.228 NA
HETATM    3  C   UNL     1     -41.699  58.758 -54.014  1.00  0.00     0.052 A 
HETATM    4  C   UNL     1     -42.746  57.975 -53.714  1.00  0.00     0.060 A 
HETATM    5  C   UNL     1     -42.748  56.958 -52.630  1.00  0.00     0.281 C 
HETATM    6  N   UNL     1     -41.338  56.664 -52.131  1.00  0.00    -0.063 N 
HETATM    7  H   UNL     1     -40.857  56.189 -52.905  1.00  0.00     0.280 HD
HETATM    8  C   UNL     1     -40.588  57.952 -51.872  1.00  0.00     0.241 C 
HETATM    9  C   UNL     1     -40.437  58.728 -53.184  1.00  0.00     0.088 C 
HETATM   10  C   UNL     1     -43.961  58.104 -54.538  1.00  0.00     0.257 A 
HETATM   11  O   UNL     1     -44.949  57.421 -54.303  1.00  0.00    -0.267 OA
HETATM   12  N   UNL     1     -43.889  59.017 -55.544  1.00  0.00    -0.302 N 
HETATM   13  H   UNL     1     -44.692  59.143 -56.144  1.00  0.00     0.171 HD
ENDROOT
BRANCH   1  14
HETATM   14  S   UNL     1     -42.898  60.824 -57.116  1.00  0.00    -0.083 SA
BRANCH  14  15
HETATM   15  C   UNL     1     -41.653  60.120 -58.254  1.00  0.00     0.185 C 
BRANCH  15  16
HETATM   16  C   UNL     1     -42.291  59.176 -59.268  1.00  0.00     0.231 C 
HETATM   17  N   UNL     1     -43.051  58.183 -58.665  1.00  0.00    -0.326 N 
HETATM   18  H   UNL     1     -43.309  58.383 -57.704  1.00  0.00     0.169 HD
HETATM   19  O   UNL     1     -42.127  59.342 -60.473  1.00  0.00    -0.272 OA
BRANCH  17  20
HETATM   20  C   UNL     1     -43.851  57.217 -59.318  1.00  0.00     0.041 C 
HETATM   21  C   UNL     1     -45.134  57.436 -59.863  1.00  0.00    -0.029 C 
HETATM   22  C   UNL     1     -45.866  56.324 -60.356  1.00  0.00    -0.054 C 
HETATM   23  C   UNL     1     -45.730  58.813 -60.012  1.00  0.00     0.051 C 
HETATM   24  C   UNL     1     -47.266  56.467 -60.896  1.00  0.00     0.049 C 
HETATM   25  C   UNL     1     -45.265  55.057 -60.413  1.00  0.00     0.007 C 
HETATM   26  C   UNL     1     -43.963  54.873 -59.970  1.00  0.00     0.003 C 
HETATM   27  C   UNL     1     -43.262  55.946 -59.427  1.00  0.00     0.030 C 
ENDBRANCH  17  20
ENDBRANCH  15  16
ENDBRANCH  14  15
ENDBRANCH   1  14
BRANCH   6  28
HETATM   28  C   UNL     1     -41.302  55.704 -50.967  1.00  0.00     0.273 C 
BRANCH  28  29
HETATM   29  C   UNL     1     -40.767  54.350 -51.361  1.00  0.00    -0.030 A 
HETATM   30  C   UNL     1     -40.671  53.995 -52.718  1.00  0.00     0.048 A 
HETATM   31  C   UNL     1     -40.278  52.710 -53.029  1.00  0.00     0.105 A 
HETATM   32  C   UNL     1     -39.956  51.795 -52.060  1.00  0.00     0.105 A 
HETATM   33  O   UNL     1     -40.183  52.197 -54.283  1.00  0.00    -0.323 OA
HETATM   34  O   UNL     1     -39.611  50.589 -52.581  1.00  0.00    -0.323 OA
HETATM   35  C   UNL     1     -40.001  52.115 -50.721  1.00  0.00     0.040 A 
HETATM   36  C   UNL     1     -39.771  50.841 -53.993  1.00  0.00     0.352 A 
HETATM   37  C   UNL     1     -40.415  53.404 -50.369  1.00  0.00     0.012 A 
ENDBRANCH  28  29
ENDBRANCH   6  28
TORSDOF 6
ENDMDL
MODEL 9
REMARK VINA RESULT:      -8.8      2.736      8.514
REMARK  6 active torsions:
REMARK  status: ('A' for Active; 'I' for Inactive)
REMARK    1  A    between atoms: C_5  and  N_6 
REMARK       I    between atoms: N_6  and  C_7 
REMARK    2  A    between atoms: C_7  and  C_8 
REMARK    3  A    between atoms: C_8  and  S_9 
REMARK    4  A    between atoms: S_9  and  C_10 
REMARK    5  A    between atoms: N_15  and  C_17 
REMARK    6  A    between atoms: C_17  and  C_18 
ROOT
HETATM    1  C   UNL     1     -43.833  58.912 -52.606  1.00  0.00     0.169 A 
HETATM    2  N   UNL     1     -44.133  57.683 -52.847  1.00  0.00    -0.228 NA
HETATM    3  C   UNL     1     -43.175  56.890 -53.415  1.00  0.00     0.052 A 
HETATM    4  C   UNL     1     -41.928  57.310 -53.679  1.00  0.00     0.060 A 
HETATM    5  C   UNL     1     -40.846  56.441 -54.211  1.00  0.00     0.281 C 
HETATM    6  N   UNL     1     -41.204  54.963 -54.097  1.00  0.00    -0.063 N 
HETATM    7  H   UNL     1     -41.210  54.750 -53.091  1.00  0.00     0.280 HD
HETATM    8  C   UNL     1     -42.606  54.716 -54.608  1.00  0.00     0.241 C 
HETATM    9  C   UNL     1     -43.609  55.479 -53.738  1.00  0.00     0.088 C 
HETATM   10  C   UNL     1     -41.599  58.717 -53.387  1.00  0.00     0.257 A 
HETATM   11  O   UNL     1     -40.481  59.156 -53.618  1.00  0.00    -0.267 OA
HETATM   12  N   UNL     1     -42.614  59.456 -52.860  1.00  0.00    -0.302 N 
HETATM   13  H   UNL     1     -42.441  60.425 -52.635  1.00  0.00     0.171 HD
ENDROOT
BRANCH   1  14
HETATM   14  S   UNL     1     -44.958  60.039 -51.922  1.00  0.00    -0.083 SA
BRANCH  14  15
HETATM   15  C   UNL     1     -45.909  60.514 -53.408  1.00  0.00     0.185 C 
BRANCH  15  16
HETATM   16  C   UNL     1     -45.192  60.099 -54.689  1.00  0.00     0.231 C 
HETATM   17  N   UNL     1     -45.758  58.976 -55.275  1.00  0.00    -0.326 N 
HETATM   18  H   UNL     1     -46.700  58.771 -54.956  1.00  0.00     0.169 HD
HETATM   19  O   UNL     1     -44.234  60.741 -55.111  1.00  0.00    -0.272 OA
BRANCH  17  20
HETATM   20  C   UNL     1     -45.400  58.398 -56.515  1.00  0.00     0.041 C 
HETATM   21  C   UNL     1     -46.209  58.345 -57.669  1.00  0.00    -0.029 C 
HETATM   22  C   UNL     1     -45.756  57.599 -58.789  1.00  0.00    -0.054 C 
HETATM   23  C   UNL     1     -47.503  59.111 -57.791  1.00  0.00     0.051 C 
HETATM   24  C   UNL     1     -46.590  57.444 -60.035  1.00  0.00     0.049 C 
HETATM   25  C   UNL     1     -44.470  57.036 -58.783  1.00  0.00     0.007 C 
HETATM   26  C   UNL     1     -43.640  57.183 -57.681  1.00  0.00     0.003 C 
HETATM   27  C   UNL     1     -44.103  57.859 -56.556  1.00  0.00     0.030 C 
ENDBRANCH  17  20
ENDBRANCH  15  16
ENDBRANCH  14  15
ENDBRANCH   1  14
BRANCH   6  28
HETATM   28  C   UNL     1     -40.171  54.049 -54.709  1.00  0.00     0.273 C 
BRANCH  28  29
HETATM   29  C   UNL     1     -40.099  52.718 -54.004  1.00  0.00    -0.030 A 
HETATM   30  C   UNL     1     -40.121  52.660 -52.599  1.00  0.00     0.048 A 
HETATM   31  C   UNL     1     -39.945  51.434 -51.994  1.00  0.00     0.105 A 
HETATM   32  C   UNL     1     -39.780  50.283 -52.722  1.00  0.00     0.105 A 
HETATM   33  O   UNL     1     -39.892  51.216 -50.654  1.00  0.00    -0.323 OA
HETATM   34  O   UNL     1     -39.607  49.192 -51.932  1.00  0.00    -0.323 OA
HETATM   35  C   UNL     1     -39.789  50.291 -54.099  1.00  0.00     0.040 A 
HETATM   36  C   UNL     1     -39.662  49.788 -50.619  1.00  0.00     0.352 A 
HETATM   37  C   UNL     1     -39.946  51.523 -54.745  1.00  0.00     0.012 A 
ENDBRANCH  28  29
ENDBRANCH   6  28
TORSDOF 6
ENDMDL
MODEL 10
REMARK VINA RESULT:      -8.7      2.846      8.145
REMARK  6 active torsions:
REMARK  status: ('A' for Active; 'I' for Inactive)
REMARK    1  A    between atoms: C_5  and  N_6 
REMARK       I    between atoms: N_6  and  C_7 
REMARK    2  A    between atoms: C_7  and  C_8 
REMARK    3  A    between atoms: C_8  and  S_9 
REMARK    4  A    between atoms: S_9  and  C_10 
REMARK    5  A    between atoms: N_15  and  C_17 
REMARK    6  A    between atoms: C_17  and  C_18 
ROOT
HETATM    1  C   UNL     1     -43.183  61.061 -54.781  1.00  0.00     0.169 A 
HETATM    2  N   UNL     1     -42.100  60.427 -54.494  1.00  0.00    -0.228 NA
HETATM    3  C   UNL     1     -42.171  59.427 -53.564  1.00  0.00     0.052 A 
HETATM    4  C   UNL     1     -43.315  59.039 -52.982  1.00  0.00     0.060 A 
HETATM    5  C   UNL     1     -43.430  57.896 -52.039  1.00  0.00     0.281 C 
HETATM    6  N   UNL     1     -42.189  57.011 -52.073  1.00  0.00    -0.063 N 
HETATM    7  H   UNL     1     -42.188  56.560 -52.997  1.00  0.00     0.280 HD
HETATM    8  C   UNL     1     -40.935  57.853 -51.994  1.00  0.00     0.241 C 
HETATM    9  C   UNL     1     -40.855  58.769 -53.219  1.00  0.00     0.088 C 
HETATM   10  C   UNL     1     -44.548  59.769 -53.331  1.00  0.00     0.257 A 
HETATM   11  O   UNL     1     -45.618  59.463 -52.822  1.00  0.00    -0.267 OA
HETATM   12  N   UNL     1     -44.393  60.776 -54.233  1.00  0.00    -0.302 N 
HETATM   13  H   UNL     1     -45.207  61.306 -54.512  1.00  0.00     0.171 HD
ENDROOT
BRANCH   1  14
HETATM   14  S   UNL     1     -43.235  62.373 -55.914  1.00  0.00    -0.083 SA
BRANCH  14  15
HETATM   15  C   UNL     1     -42.596  61.549 -57.415  1.00  0.00     0.185 C 
BRANCH  15  16
HETATM   16  C   UNL     1     -43.237  60.181 -57.620  1.00  0.00     0.231 C 
HETATM   17  N   UNL     1     -42.320  59.144 -57.522  1.00  0.00    -0.326 N 
HETATM   18  H   UNL     1     -41.454  59.399 -57.058  1.00  0.00     0.169 HD
HETATM   19  O   UNL     1     -44.443  60.074 -57.827  1.00  0.00    -0.272 OA
BRANCH  17  20
HETATM   20  C   UNL     1     -42.603  57.759 -57.558  1.00  0.00     0.041 C 
HETATM   21  C   UNL     1     -43.055  57.036 -58.682  1.00  0.00    -0.029 C 
HETATM   22  C   UNL     1     -43.433  55.677 -58.514  1.00  0.00    -0.054 C 
HETATM   23  C   UNL     1     -43.084  57.624 -60.070  1.00  0.00     0.051 C 
HETATM   24  C   UNL     1     -43.985  54.856 -59.651  1.00  0.00     0.049 C 
HETATM   25  C   UNL     1     -43.235  55.041 -57.279  1.00  0.00     0.007 C 
HETATM   26  C   UNL     1     -42.690  55.735 -56.207  1.00  0.00     0.003 C 
HETATM   27  C   UNL     1     -42.377  57.084 -56.347  1.00  0.00     0.030 C 
ENDBRANCH  17  20
ENDBRANCH  15  16
ENDBRANCH  14  15
ENDBRANCH   1  14
BRANCH   6  28
HETATM   28  C   UNL     1     -42.224  55.890 -51.064  1.00  0.00     0.273 C 
BRANCH  28  29
HETATM   29  C   UNL     1     -41.410  54.700 -51.504  1.00  0.00    -0.030 A 
HETATM   30  C   UNL     1     -41.543  54.197 -52.811  1.00  0.00     0.048 A 
HETATM   31  C   UNL     1     -40.860  53.044 -53.138  1.00  0.00     0.105 A 
HETATM   32  C   UNL     1     -40.045  52.404 -52.239  1.00  0.00     0.105 A 
HETATM   33  O   UNL     1     -40.921  52.405 -54.335  1.00  0.00    -0.323 OA
HETATM   34  O   UNL     1     -39.483  51.282 -52.760  1.00  0.00    -0.323 OA
HETATM   35  C   UNL     1     -39.859  52.885 -50.962  1.00  0.00     0.040 A 
HETATM   36  C   UNL     1     -40.052  51.275 -54.085  1.00  0.00     0.352 A 
HETATM   37  C   UNL     1     -40.552  54.043 -50.591  1.00  0.00     0.012 A 
ENDBRANCH  28  29
ENDBRANCH   6  28
TORSDOF 6
ENDMDL
