MODEL 1
REMARK VINA RESULT:      -9.0      0.000      0.000
REMARK  6 active torsions:
REMARK  status: ('A' for Active; 'I' for Inactive)
REMARK    1  A    between atoms: C_2  and  O_3 
REMARK    2  A    between atoms: C_2  and  C_4 
REMARK    3  A    between atoms: C_6  and  N_7 
REMARK       I    between atoms: N_7  and  C_8 
REMARK    4  A    between atoms: C_8  and  C_9 
REMARK    5  A    between atoms: C_12  and  C_13 
REMARK    6  A    between atoms: C_18  and  C_19 
ROOT
HETATM    1  C   UNL     1     -43.504  57.613 -54.144  1.00  0.00     0.096 A 
HETATM    2  C   UNL     1     -43.489  56.600 -53.202  1.00  0.00     0.138 A 
HETATM    3  N   UNL     1     -43.011  57.173 -52.048  1.00  0.00    -0.240 N 
HETATM    4  C   UNL     1     -42.879  56.489 -50.776  1.00  0.00     0.221 C 
HETATM    5  C   UNL     1     -43.600  55.128 -50.817  1.00  0.00     0.066 C 
HETATM    6  C   UNL     1     -43.451  54.382 -52.155  1.00  0.00     0.118 C 
HETATM    7  N   UNL     1     -43.828  55.284 -53.251  1.00  0.00    -0.365 N 
HETATM    8  N   UNL     1     -42.719  58.477 -52.171  1.00  0.00    -0.181 NA
HETATM    9  C   UNL     1     -42.969  58.729 -53.459  1.00  0.00     0.160 A 
HETATM   10  H   UNL     1     -43.862  54.812 -54.157  1.00  0.00     0.161 HD
ENDROOT
BRANCH   1  11
HETATM   11  C   UNL     1     -43.964  57.580 -55.521  1.00  0.00     0.261 C 
HETATM   12  N   UNL     1     -42.994  57.132 -56.400  1.00  0.00    -0.323 N 
HETATM   13  H   UNL     1     -42.139  56.803 -55.966  1.00  0.00     0.169 HD
HETATM   14  O   UNL     1     -45.122  57.865 -55.803  1.00  0.00    -0.267 OA
BRANCH  12  15
HETATM   15  C   UNL     1     -43.114  56.932 -57.788  1.00  0.00     0.035 A 
HETATM   16  C   UNL     1     -44.087  56.120 -58.375  1.00  0.00     0.039 A 
HETATM   17  C   UNL     1     -44.150  55.958 -59.772  1.00  0.00    -0.028 A 
HETATM   18  C   UNL     1     -43.215  56.627 -60.573  1.00  0.00     0.010 A 
HETATM   19  C   UNL     1     -42.244  57.441 -59.996  1.00  0.00     0.003 A 
HETATM   20  C   UNL     1     -42.200  57.600 -58.611  1.00  0.00     0.029 A 
BRANCH  17  21
HETATM   21  C   UNL     1     -45.247  55.108 -60.378  1.00  0.00     0.147 C 
HETATM   22  C   UNL     1     -46.541  55.902 -60.522  1.00  0.00     0.044 C 
BRANCH  21  23
HETATM   23  O   UNL     1     -44.850  54.632 -61.662  1.00  0.00    -0.391 OA
HETATM   24  H   UNL     1     -45.592  54.801 -62.267  1.00  0.00     0.210 HD
ENDBRANCH  21  23
ENDBRANCH  17  21
ENDBRANCH  12  15
ENDBRANCH   1  11
BRANCH   4  25
HETATM   25  C   UNL     1     -41.424  56.403 -50.362  1.00  0.00     0.409 C 
HETATM   26  F   UNL     1     -41.169  55.447 -49.451  1.00  0.00    -0.169 F 
HETATM   27  F   UNL     1     -40.606  56.188 -51.417  1.00  0.00    -0.169 F 
HETATM   28  F   UNL     1     -41.028  57.586 -49.819  1.00  0.00    -0.169 F 
ENDBRANCH   4  25
BRANCH   6  29
HETATM   29  C   UNL     1     -42.112  53.692 -52.360  1.00  0.00    -0.035 A 
HETATM   30  C   UNL     1     -41.556  53.650 -53.653  1.00  0.00     0.009 A 
HETATM   31  C   UNL     1     -40.334  53.017 -53.896  1.00  0.00     0.001 A 
HETATM   32  C   UNL     1     -39.637  52.424 -52.849  1.00  0.00     0.000 A 
HETATM   33  C   UNL     1     -40.157  52.470 -51.559  1.00  0.00     0.001 A 
HETATM   34  C   UNL     1     -41.379  53.101 -51.315  1.00  0.00     0.009 A 
ENDBRANCH   6  29
TORSDOF 6
ENDMDL
MODEL 2
REMARK VINA RESULT:      -8.6      1.603      2.360
REMARK  6 active torsions:
REMARK  status: ('A' for Active; 'I' for Inactive)
REMARK    1  A    between atoms: C_2  and  O_3 
REMARK    2  A    between atoms: C_2  and  C_4 
REMARK    3  A    between atoms: C_6  and  N_7 
REMARK       I    between atoms: N_7  and  C_8 
REMARK    4  A    between atoms: C_8  and  C_9 
REMARK    5  A    between atoms: C_12  and  C_13 
REMARK    6  A    between atoms: C_18  and  C_19 
ROOT
HETATM    1  C   UNL     1     -42.652  58.026 -55.868  1.00  0.00     0.096 A 
HETATM    2  C   UNL     1     -43.022  57.377 -54.704  1.00  0.00     0.138 A 
HETATM    3  N   UNL     1     -42.649  58.212 -53.678  1.00  0.00    -0.240 N 
HETATM    4  C   UNL     1     -42.895  57.959 -52.271  1.00  0.00     0.221 C 
HETATM    5  C   UNL     1     -43.869  56.778 -52.097  1.00  0.00     0.066 C 
HETATM    6  C   UNL     1     -43.644  55.630 -53.097  1.00  0.00     0.118 C 
HETATM    7  N   UNL     1     -43.618  56.179 -54.460  1.00  0.00    -0.365 N 
HETATM    8  N   UNL     1     -42.070  59.350 -54.089  1.00  0.00    -0.181 NA
HETATM    9  C   UNL     1     -42.025  59.211 -55.417  1.00  0.00     0.160 A 
HETATM   10  H   UNL     1     -43.587  55.452 -55.178  1.00  0.00     0.161 HD
ENDROOT
BRANCH   1  11
HETATM   11  C   UNL     1     -42.854  57.622 -57.248  1.00  0.00     0.261 C 
HETATM   12  N   UNL     1     -44.017  56.896 -57.429  1.00  0.00    -0.323 N 
HETATM   13  H   UNL     1     -44.612  56.824 -56.611  1.00  0.00     0.169 HD
HETATM   14  O   UNL     1     -42.076  57.976 -58.126  1.00  0.00    -0.267 OA
BRANCH  12  15
HETATM   15  C   UNL     1     -44.542  56.394 -58.634  1.00  0.00     0.035 A 
HETATM   16  C   UNL     1     -45.729  56.848 -59.214  1.00  0.00     0.039 A 
HETATM   17  C   UNL     1     -46.203  56.300 -60.421  1.00  0.00    -0.028 A 
HETATM   18  C   UNL     1     -45.462  55.284 -61.039  1.00  0.00     0.010 A 
HETATM   19  C   UNL     1     -44.275  54.828 -60.469  1.00  0.00     0.003 A 
HETATM   20  C   UNL     1     -43.813  55.387 -59.278  1.00  0.00     0.029 A 
BRANCH  17  21
HETATM   21  C   UNL     1     -47.468  56.848 -61.046  1.00  0.00     0.147 C 
HETATM   22  C   UNL     1     -47.474  58.373 -61.028  1.00  0.00     0.044 C 
BRANCH  21  23
HETATM   23  O   UNL     1     -47.587  56.400 -62.395  1.00  0.00    -0.391 OA
HETATM   24  H   UNL     1     -48.117  55.586 -62.376  1.00  0.00     0.210 HD
ENDBRANCH  21  23
ENDBRANCH  17  21
ENDBRANCH  12  15
ENDBRANCH   1  11
BRANCH   4  25
HETATM   25  C   UNL     1     -41.591  57.798 -51.518  1.00  0.00     0.409 C 
HETATM   26  F   UNL     1     -40.625  57.178 -52.219  1.00  0.00    -0.169 F 
HETATM   27  F   UNL     1     -41.094  58.985 -51.101  1.00  0.00    -0.169 F 
HETATM   28  F   UNL     1     -41.798  57.065 -50.390  1.00  0.00    -0.169 F 
ENDBRANCH   4  25
BRANCH   6  29
HETATM   29  C   UNL     1     -42.467  54.723 -52.778  1.00  0.00    -0.035 A 
HETATM   30  C   UNL     1     -42.330  54.215 -51.471  1.00  0.00     0.009 A 
HETATM   31  C   UNL     1     -41.258  53.389 -51.124  1.00  0.00     0.001 A 
HETATM   32  C   UNL     1     -40.308  53.042 -52.078  1.00  0.00     0.000 A 
HETATM   33  C   UNL     1     -40.432  53.515 -53.381  1.00  0.00     0.001 A 
HETATM   34  C   UNL     1     -41.503  54.344 -53.729  1.00  0.00     0.009 A 
ENDBRANCH   6  29
TORSDOF 6
ENDMDL
MODEL 3
REMARK VINA RESULT:      -8.5      3.810      7.902
REMARK  6 active torsions:
REMARK  status: ('A' for Active; 'I' for Inactive)
REMARK    1  A    between atoms: C_2  and  O_3 
REMARK    2  A    between atoms: C_2  and  C_4 
REMARK    3  A    between atoms: C_6  and  N_7 
REMARK       I    between atoms: N_7  and  C_8 
REMARK    4  A    between atoms: C_8  and  C_9 
REMARK    5  A    between atoms: C_12  and  C_13 
REMARK    6  A    between atoms: C_18  and  C_19 
ROOT
HETATM    1  C   UNL     1     -42.691  57.506 -54.945  1.00  0.00     0.096 A 
HETATM    2  C   UNL     1     -42.770  57.807 -56.292  1.00  0.00     0.138 A 
HETATM    3  N   UNL     1     -43.820  58.685 -56.416  1.00  0.00    -0.240 N 
HETATM    4  C   UNL     1     -44.234  59.313 -57.656  1.00  0.00     0.221 C 
HETATM    5  C   UNL     1     -43.178  59.088 -58.755  1.00  0.00     0.066 C 
HETATM    6  C   UNL     1     -42.541  57.687 -58.732  1.00  0.00     0.118 C 
HETATM    7  N   UNL     1     -42.054  57.404 -57.375  1.00  0.00    -0.365 N 
HETATM    8  N   UNL     1     -44.424  58.975 -55.254  1.00  0.00    -0.181 NA
HETATM    9  C   UNL     1     -43.770  58.217 -54.369  1.00  0.00     0.160 A 
HETATM   10  H   UNL     1     -41.517  56.535 -57.322  1.00  0.00     0.161 HD
ENDROOT
BRANCH   1  11
HETATM   11  C   UNL     1     -41.732  56.669 -54.245  1.00  0.00     0.261 C 
HETATM   12  N   UNL     1     -42.054  55.325 -54.300  1.00  0.00    -0.323 N 
HETATM   13  H   UNL     1     -42.848  55.096 -54.889  1.00  0.00     0.169 HD
HETATM   14  O   UNL     1     -40.728  57.154 -53.738  1.00  0.00    -0.267 OA
BRANCH  12  15
HETATM   15  C   UNL     1     -41.326  54.242 -53.775  1.00  0.00     0.035 A 
HETATM   16  C   UNL     1     -41.061  54.069 -52.414  1.00  0.00     0.039 A 
HETATM   17  C   UNL     1     -40.321  52.964 -51.953  1.00  0.00    -0.028 A 
HETATM   18  C   UNL     1     -39.849  52.030 -52.885  1.00  0.00     0.010 A 
HETATM   19  C   UNL     1     -40.111  52.193 -54.244  1.00  0.00     0.003 A 
HETATM   20  C   UNL     1     -40.855  53.288 -54.684  1.00  0.00     0.029 A 
BRANCH  17  21
HETATM   21  C   UNL     1     -40.093  52.783 -50.467  1.00  0.00     0.147 C 
HETATM   22  C   UNL     1     -40.941  53.758 -49.658  1.00  0.00     0.044 C 
BRANCH  21  23
HETATM   23  O   UNL     1     -40.420  51.450 -50.077  1.00  0.00    -0.391 OA
HETATM   24  H   UNL     1     -41.088  51.129 -50.704  1.00  0.00     0.210 HD
ENDBRANCH  21  23
ENDBRANCH  17  21
ENDBRANCH  12  15
ENDBRANCH   1  11
BRANCH   4  25
HETATM   25  C   UNL     1     -45.629  58.869 -58.044  1.00  0.00     0.409 C 
HETATM   26  F   UNL     1     -45.891  57.579 -57.770  1.00  0.00    -0.169 F 
HETATM   27  F   UNL     1     -46.586  59.615 -57.445  1.00  0.00    -0.169 F 
HETATM   28  F   UNL     1     -45.811  59.037 -59.382  1.00  0.00    -0.169 F 
ENDBRANCH   4  25
BRANCH   6  29
HETATM   29  C   UNL     1     -43.404  56.581 -59.318  1.00  0.00    -0.035 A 
HETATM   30  C   UNL     1     -43.487  55.348 -58.642  1.00  0.00     0.009 A 
HETATM   31  C   UNL     1     -44.255  54.296 -59.148  1.00  0.00     0.001 A 
HETATM   32  C   UNL     1     -44.967  54.458 -60.331  1.00  0.00     0.000 A 
HETATM   33  C   UNL     1     -44.917  55.674 -61.006  1.00  0.00     0.001 A 
HETATM   34  C   UNL     1     -44.147  56.727 -60.503  1.00  0.00     0.009 A 
ENDBRANCH   6  29
TORSDOF 6
ENDMDL
MODEL 4
REMARK VINA RESULT:      -8.4      3.626      7.679
REMARK  6 active torsions:
REMARK  status: ('A' for Active; 'I' for Inactive)
REMARK    1  A    between atoms: C_2  and  O_3 
REMARK    2  A    between atoms: C_2  and  C_4 
REMARK    3  A    between atoms: C_6  and  N_7 
REMARK       I    between atoms: N_7  and  C_8 
REMARK    4  A    between atoms: C_8  and  C_9 
REMARK    5  A    between atoms: C_12  and  C_13 
REMARK    6  A    between atoms: C_18  and  C_19 
ROOT
HETATM    1  C   UNL     1     -42.454  57.098 -54.772  1.00  0.00     0.096 A 
HETATM    2  C   UNL     1     -42.628  57.528 -56.075  1.00  0.00     0.138 A 
HETATM    3  N   UNL     1     -43.723  58.358 -56.050  1.00  0.00    -0.240 N 
HETATM    4  C   UNL     1     -44.239  59.085 -57.193  1.00  0.00     0.221 C 
HETATM    5  C   UNL     1     -43.241  59.028 -58.366  1.00  0.00     0.066 C 
HETATM    6  C   UNL     1     -42.540  57.667 -58.523  1.00  0.00     0.118 C 
HETATM    7  N   UNL     1     -41.959  57.274 -57.232  1.00  0.00    -0.365 N 
HETATM    8  N   UNL     1     -44.269  58.498 -54.832  1.00  0.00    -0.181 NA
HETATM    9  C   UNL     1     -43.529  57.690 -54.068  1.00  0.00     0.160 A 
HETATM   10  H   UNL     1     -41.381  56.434 -57.298  1.00  0.00     0.161 HD
ENDROOT
BRANCH   1  11
HETATM   11  C   UNL     1     -41.417  56.246 -54.216  1.00  0.00     0.261 C 
HETATM   12  N   UNL     1     -41.926  55.129 -53.579  1.00  0.00    -0.323 N 
HETATM   13  H   UNL     1     -42.929  55.004 -53.665  1.00  0.00     0.169 HD
HETATM   14  O   UNL     1     -40.232  56.508 -54.386  1.00  0.00    -0.267 OA
BRANCH  12  15
HETATM   15  C   UNL     1     -41.210  54.079 -52.977  1.00  0.00     0.035 A 
HETATM   16  C   UNL     1     -40.884  52.886 -53.627  1.00  0.00     0.039 A 
HETATM   17  C   UNL     1     -40.169  51.870 -52.966  1.00  0.00    -0.028 A 
HETATM   18  C   UNL     1     -39.783  52.073 -51.634  1.00  0.00     0.010 A 
HETATM   19  C   UNL     1     -40.101  53.260 -50.979  1.00  0.00     0.003 A 
HETATM   20  C   UNL     1     -40.802  54.261 -51.650  1.00  0.00     0.029 A 
BRANCH  17  21
HETATM   21  C   UNL     1     -39.791  50.610 -53.716  1.00  0.00     0.147 C 
HETATM   22  C   UNL     1     -39.498  49.464 -52.754  1.00  0.00     0.044 C 
BRANCH  21  23
HETATM   23  O   UNL     1     -40.849  50.222 -54.591  1.00  0.00    -0.391 OA
HETATM   24  H   UNL     1     -40.750  49.268 -54.746  1.00  0.00     0.210 HD
ENDBRANCH  21  23
ENDBRANCH  17  21
ENDBRANCH  12  15
ENDBRANCH   1  11
BRANCH   4  25
HETATM   25  C   UNL     1     -45.633  58.610 -57.548  1.00  0.00     0.409 C 
HETATM   26  F   UNL     1     -45.956  58.776 -58.843  1.00  0.00    -0.169 F 
HETATM   27  F   UNL     1     -45.817  57.304 -57.247  1.00  0.00    -0.169 F 
HETATM   28  F   UNL     1     -46.554  59.294 -56.817  1.00  0.00    -0.169 F 
ENDBRANCH   4  25
BRANCH   6  29
HETATM   29  C   UNL     1     -43.384  56.581 -59.172  1.00  0.00    -0.035 A 
HETATM   30  C   UNL     1     -44.048  56.864 -60.382  1.00  0.00     0.009 A 
HETATM   31  C   UNL     1     -44.847  55.906 -61.010  1.00  0.00     0.001 A 
HETATM   32  C   UNL     1     -44.988  54.641 -60.451  1.00  0.00     0.000 A 
HETATM   33  C   UNL     1     -44.326  54.331 -59.267  1.00  0.00     0.001 A 
HETATM   34  C   UNL     1     -43.528  55.290 -58.636  1.00  0.00     0.009 A 
ENDBRANCH   6  29
TORSDOF 6
ENDMDL
MODEL 5
REMARK VINA RESULT:      -8.3      1.510      2.135
REMARK  6 active torsions:
REMARK  status: ('A' for Active; 'I' for Inactive)
REMARK    1  A    between atoms: C_2  and  O_3 
REMARK    2  A    between atoms: C_2  and  C_4 
REMARK    3  A    between atoms: C_6  and  N_7 
REMARK       I    between atoms: N_7  and  C_8 
REMARK    4  A    between atoms: C_8  and  C_9 
REMARK    5  A    between atoms: C_12  and  C_13 
REMARK    6  A    between atoms: C_18  and  C_19 
ROOT
HETATM    1  C   UNL     1     -43.360  57.508 -53.933  1.00  0.00     0.096 A 
HETATM    2  C   UNL     1     -43.380  56.455 -53.037  1.00  0.00     0.138 A 
HETATM    3  N   UNL     1     -42.957  56.977 -51.839  1.00  0.00    -0.240 N 
HETATM    4  C   UNL     1     -42.875  56.238 -50.594  1.00  0.00     0.221 C 
HETATM    5  C   UNL     1     -43.586  54.877 -50.727  1.00  0.00     0.066 C 
HETATM    6  C   UNL     1     -43.375  54.192 -52.089  1.00  0.00     0.118 C 
HETATM    7  N   UNL     1     -43.710  55.141 -53.160  1.00  0.00    -0.365 N 
HETATM    8  N   UNL     1     -42.667  58.286 -51.890  1.00  0.00    -0.181 NA
HETATM    9  C   UNL     1     -42.862  58.595 -53.176  1.00  0.00     0.160 A 
HETATM   10  H   UNL     1     -43.701  54.710 -54.086  1.00  0.00     0.161 HD
ENDROOT
BRANCH   1  11
HETATM   11  C   UNL     1     -43.761  57.536 -55.329  1.00  0.00     0.261 C 
HETATM   12  N   UNL     1     -42.695  57.372 -56.195  1.00  0.00    -0.323 N 
HETATM   13  H   UNL     1     -41.807  57.163 -55.751  1.00  0.00     0.169 HD
HETATM   14  O   UNL     1     -44.942  57.628 -55.641  1.00  0.00    -0.267 OA
BRANCH  12  15
HETATM   15  C   UNL     1     -42.728  57.300 -57.600  1.00  0.00     0.035 A 
HETATM   16  C   UNL     1     -42.486  58.390 -58.440  1.00  0.00     0.039 A 
HETATM   17  C   UNL     1     -42.539  58.254 -59.840  1.00  0.00    -0.028 A 
HETATM   18  C   UNL     1     -42.841  56.999 -60.385  1.00  0.00     0.010 A 
HETATM   19  C   UNL     1     -43.081  55.906 -59.555  1.00  0.00     0.003 A 
HETATM   20  C   UNL     1     -43.015  56.055 -58.170  1.00  0.00     0.029 A 
BRANCH  17  21
HETATM   21  C   UNL     1     -42.224  59.444 -60.720  1.00  0.00     0.147 C 
HETATM   22  C   UNL     1     -43.486  59.991 -61.378  1.00  0.00     0.044 C 
BRANCH  21  23
HETATM   23  O   UNL     1     -41.616  60.480 -59.951  1.00  0.00    -0.391 OA
HETATM   24  H   UNL     1     -42.126  61.290 -60.116  1.00  0.00     0.210 HD
ENDBRANCH  21  23
ENDBRANCH  17  21
ENDBRANCH  12  15
ENDBRANCH   1  11
BRANCH   4  25
HETATM   25  C   UNL     1     -41.440  56.138 -50.121  1.00  0.00     0.409 C 
HETATM   26  F   UNL     1     -40.974  57.259 -49.541  1.00  0.00    -0.169 F 
HETATM   27  F   UNL     1     -41.262  55.123 -49.245  1.00  0.00    -0.169 F 
HETATM   28  F   UNL     1     -40.624  55.867 -51.176  1.00  0.00    -0.169 F 
ENDBRANCH   4  25
BRANCH   6  29
HETATM   29  C   UNL     1     -42.024  53.518 -52.266  1.00  0.00    -0.035 A 
HETATM   30  C   UNL     1     -41.428  53.507 -53.542  1.00  0.00     0.009 A 
HETATM   31  C   UNL     1     -40.194  52.888 -53.759  1.00  0.00     0.001 A 
HETATM   32  C   UNL     1     -39.525  52.279 -52.704  1.00  0.00     0.000 A 
HETATM   33  C   UNL     1     -40.084  52.294 -51.430  1.00  0.00     0.001 A 
HETATM   34  C   UNL     1     -41.319  52.911 -51.212  1.00  0.00     0.009 A 
ENDBRANCH   6  29
TORSDOF 6
ENDMDL
MODEL 6
REMARK VINA RESULT:      -8.3      3.889      8.263
REMARK  6 active torsions:
REMARK  status: ('A' for Active; 'I' for Inactive)
REMARK    1  A    between atoms: C_2  and  O_3 
REMARK    2  A    between atoms: C_2  and  C_4 
REMARK    3  A    between atoms: C_6  and  N_7 
REMARK       I    between atoms: N_7  and  C_8 
REMARK    4  A    between atoms: C_8  and  C_9 
REMARK    5  A    between atoms: C_12  and  C_13 
REMARK    6  A    between atoms: C_18  and  C_19 
ROOT
HETATM    1  C   UNL     1     -42.304  57.932 -55.881  1.00  0.00     0.096 A 
HETATM    2  C   UNL     1     -42.370  57.536 -57.204  1.00  0.00     0.138 A 
HETATM    3  N   UNL     1     -42.118  58.666 -57.944  1.00  0.00    -0.240 N 
HETATM    4  C   UNL     1     -42.031  58.708 -59.391  1.00  0.00     0.221 C 
HETATM    5  C   UNL     1     -41.981  57.281 -59.971  1.00  0.00     0.066 C 
HETATM    6  C   UNL     1     -42.896  56.279 -59.245  1.00  0.00     0.118 C 
HETATM    7  N   UNL     1     -42.626  56.341 -57.802  1.00  0.00    -0.365 N 
HETATM    8  N   UNL     1     -41.891  59.760 -57.201  1.00  0.00    -0.181 NA
HETATM    9  C   UNL     1     -42.057  59.323 -55.949  1.00  0.00     0.160 A 
HETATM   10  H   UNL     1     -43.121  55.617 -57.276  1.00  0.00     0.161 HD
ENDROOT
BRANCH   1  11
HETATM   11  C   UNL     1     -42.438  57.133 -54.675  1.00  0.00     0.261 C 
HETATM   12  N   UNL     1     -41.342  56.323 -54.444  1.00  0.00    -0.323 N 
HETATM   13  H   UNL     1     -40.564  56.459 -55.080  1.00  0.00     0.169 HD
HETATM   14  O   UNL     1     -43.414  57.260 -53.944  1.00  0.00    -0.267 OA
BRANCH  12  15
HETATM   15  C   UNL     1     -41.118  55.463 -53.353  1.00  0.00     0.035 A 
HETATM   16  C   UNL     1     -40.769  54.117 -53.482  1.00  0.00     0.039 A 
HETATM   17  C   UNL     1     -40.564  53.308 -52.348  1.00  0.00    -0.028 A 
HETATM   18  C   UNL     1     -40.716  53.876 -51.077  1.00  0.00     0.010 A 
HETATM   19  C   UNL     1     -41.061  55.218 -50.939  1.00  0.00     0.003 A 
HETATM   20  C   UNL     1     -41.251  56.010 -52.071  1.00  0.00     0.029 A 
BRANCH  17  21
HETATM   21  C   UNL     1     -40.140  51.865 -52.525  1.00  0.00     0.147 C 
HETATM   22  C   UNL     1     -39.825  51.560 -53.985  1.00  0.00     0.044 C 
BRANCH  21  23
HETATM   23  O   UNL     1     -38.986  51.589 -51.734  1.00  0.00    -0.391 OA
HETATM   24  H   UNL     1     -39.064  52.125 -50.927  1.00  0.00     0.210 HD
ENDBRANCH  21  23
ENDBRANCH  17  21
ENDBRANCH  12  15
ENDBRANCH   1  11
BRANCH   4  25
HETATM   25  C   UNL     1     -43.134  59.569 -59.970  1.00  0.00     0.409 C 
HETATM   26  F   UNL     1     -43.700  59.063 -61.080  1.00  0.00    -0.169 F 
HETATM   27  F   UNL     1     -44.124  59.798 -59.077  1.00  0.00    -0.169 F 
HETATM   28  F   UNL     1     -42.639  60.793 -60.298  1.00  0.00    -0.169 F 
ENDBRANCH   4  25
BRANCH   6  29
HETATM   29  C   UNL     1     -44.372  56.385 -59.598  1.00  0.00    -0.035 A 
HETATM   30  C   UNL     1     -44.838  55.766 -60.775  1.00  0.00     0.009 A 
HETATM   31  C   UNL     1     -46.181  55.846 -61.151  1.00  0.00     0.001 A 
HETATM   32  C   UNL     1     -47.089  56.534 -60.353  1.00  0.00     0.000 A 
HETATM   33  C   UNL     1     -46.655  57.137 -59.176  1.00  0.00     0.001 A 
HETATM   34  C   UNL     1     -45.311  57.060 -58.800  1.00  0.00     0.009 A 
ENDBRANCH   6  29
TORSDOF 6
ENDMDL
MODEL 7
REMARK VINA RESULT:      -8.2      3.890      7.258
REMARK  6 active torsions:
REMARK  status: ('A' for Active; 'I' for Inactive)
REMARK    1  A    between atoms: C_2  and  O_3 
REMARK    2  A    between atoms: C_2  and  C_4 
REMARK    3  A    between atoms: C_6  and  N_7 
REMARK       I    between atoms: N_7  and  C_8 
REMARK    4  A    between atoms: C_8  and  C_9 
REMARK    5  A    between atoms: C_12  and  C_13 
REMARK    6  A    between atoms: C_18  and  C_19 
ROOT
HETATM    1  C   UNL     1     -42.619  56.555 -51.555  1.00  0.00     0.096 A 
HETATM    2  C   UNL     1     -42.450  57.798 -52.136  1.00  0.00     0.138 A 
HETATM    3  N   UNL     1     -43.599  58.498 -51.860  1.00  0.00    -0.240 N 
HETATM    4  C   UNL     1     -43.840  59.879 -52.232  1.00  0.00     0.221 C 
HETATM    5  C   UNL     1     -42.538  60.540 -52.727  1.00  0.00     0.066 C 
HETATM    6  C   UNL     1     -41.654  59.615 -53.581  1.00  0.00     0.118 C 
HETATM    7  N   UNL     1     -41.440  58.354 -52.859  1.00  0.00    -0.365 N 
HETATM    8  N   UNL     1     -44.497  57.805 -51.143  1.00  0.00    -0.181 NA
HETATM    9  C   UNL     1     -43.921  56.607 -51.004  1.00  0.00     0.160 A 
HETATM   10  H   UNL     1     -40.765  57.742 -53.324  1.00  0.00     0.161 HD
ENDROOT
BRANCH   1  11
HETATM   11  C   UNL     1     -41.694  55.437 -51.492  1.00  0.00     0.261 C 
HETATM   12  N   UNL     1     -41.781  54.609 -52.597  1.00  0.00    -0.323 N 
HETATM   13  H   UNL     1     -42.396  54.936 -53.334  1.00  0.00     0.169 HD
HETATM   14  O   UNL     1     -40.900  55.330 -50.566  1.00  0.00    -0.267 OA
BRANCH  12  15
HETATM   15  C   UNL     1     -41.006  53.470 -52.883  1.00  0.00     0.035 A 
HETATM   16  C   UNL     1     -40.571  52.561 -51.915  1.00  0.00     0.039 A 
HETATM   17  C   UNL     1     -39.793  51.442 -52.267  1.00  0.00    -0.028 A 
HETATM   18  C   UNL     1     -39.457  51.249 -53.613  1.00  0.00     0.010 A 
HETATM   19  C   UNL     1     -39.889  52.148 -54.585  1.00  0.00     0.003 A 
HETATM   20  C   UNL     1     -40.667  53.247 -54.223  1.00  0.00     0.029 A 
BRANCH  17  21
HETATM   21  C   UNL     1     -39.380  50.452 -51.198  1.00  0.00     0.147 C 
HETATM   22  C   UNL     1     -40.293  50.544 -49.980  1.00  0.00     0.044 C 
BRANCH  21  23
HETATM   23  O   UNL     1     -39.427  49.122 -51.713  1.00  0.00    -0.391 OA
HETATM   24  H   UNL     1     -38.911  49.121 -52.536  1.00  0.00     0.210 HD
ENDBRANCH  21  23
ENDBRANCH  17  21
ENDBRANCH  12  15
ENDBRANCH   1  11
BRANCH   4  25
HETATM   25  C   UNL     1     -44.991  59.980 -53.211  1.00  0.00     0.409 C 
HETATM   26  F   UNL     1     -45.110  58.920 -54.029  1.00  0.00    -0.169 F 
HETATM   27  F   UNL     1     -46.178  60.145 -52.584  1.00  0.00    -0.169 F 
HETATM   28  F   UNL     1     -44.831  61.077 -53.999  1.00  0.00    -0.169 F 
ENDBRANCH   4  25
BRANCH   6  29
HETATM   29  C   UNL     1     -42.120  59.429 -55.017  1.00  0.00    -0.035 A 
HETATM   30  C   UNL     1     -42.353  58.125 -55.496  1.00  0.00     0.009 A 
HETATM   31  C   UNL     1     -42.768  57.900 -56.811  1.00  0.00     0.001 A 
HETATM   32  C   UNL     1     -42.972  58.974 -57.670  1.00  0.00     0.000 A 
HETATM   33  C   UNL     1     -42.767  60.273 -57.214  1.00  0.00     0.001 A 
HETATM   34  C   UNL     1     -42.350  60.499 -55.899  1.00  0.00     0.009 A 
ENDBRANCH   6  29
TORSDOF 6
ENDMDL
MODEL 8
REMARK VINA RESULT:      -8.2      2.321      3.172
REMARK  6 active torsions:
REMARK  status: ('A' for Active; 'I' for Inactive)
REMARK    1  A    between atoms: C_2  and  O_3 
REMARK    2  A    between atoms: C_2  and  C_4 
REMARK    3  A    between atoms: C_6  and  N_7 
REMARK       I    between atoms: N_7  and  C_8 
REMARK    4  A    between atoms: C_8  and  C_9 
REMARK    5  A    between atoms: C_12  and  C_13 
REMARK    6  A    between atoms: C_18  and  C_19 
ROOT
HETATM    1  C   UNL     1     -43.059  58.619 -56.436  1.00  0.00     0.096 A 
HETATM    2  C   UNL     1     -43.139  57.852 -55.288  1.00  0.00     0.138 A 
HETATM    3  N   UNL     1     -42.403  58.522 -54.341  1.00  0.00    -0.240 N 
HETATM    4  C   UNL     1     -42.254  58.107 -52.959  1.00  0.00     0.221 C 
HETATM    5  C   UNL     1     -43.250  56.979 -52.624  1.00  0.00     0.066 C 
HETATM    6  C   UNL     1     -43.441  55.957 -53.759  1.00  0.00     0.118 C 
HETATM    7  N   UNL     1     -43.756  56.674 -55.002  1.00  0.00    -0.365 N 
HETATM    8  N   UNL     1     -41.856  59.663 -54.786  1.00  0.00    -0.181 NA
HETATM    9  C   UNL     1     -42.212  59.693 -56.074  1.00  0.00     0.160 A 
HETATM   10  H   UNL     1     -44.008  56.045 -55.767  1.00  0.00     0.161 HD
ENDROOT
BRANCH   1  11
HETATM   11  C   UNL     1     -43.692  58.411 -57.726  1.00  0.00     0.261 C 
HETATM   12  N   UNL     1     -45.008  58.837 -57.752  1.00  0.00    -0.323 N 
HETATM   13  H   UNL     1     -45.322  59.316 -56.915  1.00  0.00     0.169 HD
HETATM   14  O   UNL     1     -43.056  57.963 -58.673  1.00  0.00    -0.267 OA
BRANCH  12  15
HETATM   15  C   UNL     1     -45.896  58.830 -58.844  1.00  0.00     0.035 A 
HETATM   16  C   UNL     1     -46.268  57.674 -59.535  1.00  0.00     0.039 A 
HETATM   17  C   UNL     1     -47.159  57.735 -60.624  1.00  0.00    -0.028 A 
HETATM   18  C   UNL     1     -47.671  58.981 -61.008  1.00  0.00     0.010 A 
HETATM   19  C   UNL     1     -47.308  60.137 -60.323  1.00  0.00     0.003 A 
HETATM   20  C   UNL     1     -46.432  60.060 -59.240  1.00  0.00     0.029 A 
BRANCH  17  21
HETATM   21  C   UNL     1     -47.578  56.457 -61.320  1.00  0.00     0.147 C 
HETATM   22  C   UNL     1     -48.629  56.733 -62.389  1.00  0.00     0.044 C 
BRANCH  21  23
HETATM   23  O   UNL     1     -46.449  55.835 -61.930  1.00  0.00    -0.391 OA
HETATM   24  H   UNL     1     -45.665  56.337 -61.651  1.00  0.00     0.210 HD
ENDBRANCH  21  23
ENDBRANCH  17  21
ENDBRANCH  12  15
ENDBRANCH   1  11
BRANCH   4  25
HETATM   25  C   UNL     1     -40.811  57.765 -52.652  1.00  0.00     0.409 C 
HETATM   26  F   UNL     1     -40.073  58.812 -52.245  1.00  0.00    -0.169 F 
HETATM   27  F   UNL     1     -40.706  56.801 -51.709  1.00  0.00    -0.169 F 
HETATM   28  F   UNL     1     -40.210  57.262 -53.765  1.00  0.00    -0.169 F 
ENDBRANCH   4  25
BRANCH   6  29
HETATM   29  C   UNL     1     -42.319  54.941 -53.903  1.00  0.00    -0.035 A 
HETATM   30  C   UNL     1     -42.024  54.091 -52.819  1.00  0.00     0.009 A 
HETATM   31  C   UNL     1     -40.993  53.151 -52.897  1.00  0.00     0.001 A 
HETATM   32  C   UNL     1     -40.246  53.031 -54.064  1.00  0.00     0.000 A 
HETATM   33  C   UNL     1     -40.533  53.846 -55.154  1.00  0.00     0.001 A 
HETATM   34  C   UNL     1     -41.561  54.789 -55.077  1.00  0.00     0.009 A 
ENDBRANCH   6  29
TORSDOF 6
ENDMDL
MODEL 9
REMARK VINA RESULT:      -8.1      3.749      7.305
REMARK  6 active torsions:
REMARK  status: ('A' for Active; 'I' for Inactive)
REMARK    1  A    between atoms: C_2  and  O_3 
REMARK    2  A    between atoms: C_2  and  C_4 
REMARK    3  A    between atoms: C_6  and  N_7 
REMARK       I    between atoms: N_7  and  C_8 
REMARK    4  A    between atoms: C_8  and  C_9 
REMARK    5  A    between atoms: C_12  and  C_13 
REMARK    6  A    between atoms: C_18  and  C_19 
ROOT
HETATM    1  C   UNL     1     -42.666  56.301 -54.547  1.00  0.00     0.096 A 
HETATM    2  C   UNL     1     -43.487  57.377 -54.262  1.00  0.00     0.138 A 
HETATM    3  N   UNL     1     -43.277  58.284 -55.272  1.00  0.00    -0.240 N 
HETATM    4  C   UNL     1     -43.976  59.547 -55.412  1.00  0.00     0.221 C 
HETATM    5  C   UNL     1     -45.173  59.611 -54.445  1.00  0.00     0.066 C 
HETATM    6  C   UNL     1     -44.896  58.989 -53.065  1.00  0.00     0.118 C 
HETATM    7  N   UNL     1     -44.356  57.635 -53.248  1.00  0.00    -0.365 N 
HETATM    8  N   UNL     1     -42.386  57.877 -56.189  1.00  0.00    -0.181 NA
HETATM    9  C   UNL     1     -41.976  56.695 -55.718  1.00  0.00     0.160 A 
HETATM   10  H   UNL     1     -44.259  57.126 -52.367  1.00  0.00     0.161 HD
ENDROOT
BRANCH   1  11
HETATM   11  C   UNL     1     -42.524  55.040 -53.841  1.00  0.00     0.261 C 
HETATM   12  N   UNL     1     -41.203  54.677 -53.653  1.00  0.00    -0.323 N 
HETATM   13  H   UNL     1     -40.521  55.370 -53.941  1.00  0.00     0.169 HD
HETATM   14  O   UNL     1     -43.508  54.442 -53.421  1.00  0.00    -0.267 OA
BRANCH  12  15
HETATM   15  C   UNL     1     -40.707  53.550 -52.971  1.00  0.00     0.035 A 
HETATM   16  C   UNL     1     -40.615  52.277 -53.539  1.00  0.00     0.039 A 
HETATM   17  C   UNL     1     -40.113  51.188 -52.801  1.00  0.00    -0.028 A 
HETATM   18  C   UNL     1     -39.703  51.400 -51.478  1.00  0.00     0.010 A 
HETATM   19  C   UNL     1     -39.788  52.667 -50.906  1.00  0.00     0.003 A 
HETATM   20  C   UNL     1     -40.278  53.738 -51.652  1.00  0.00     0.029 A 
BRANCH  17  21
HETATM   21  C   UNL     1     -39.983  49.832 -53.462  1.00  0.00     0.147 C 
HETATM   22  C   UNL     1     -39.266  49.941 -54.804  1.00  0.00     0.044 C 
BRANCH  21  23
HETATM   23  O   UNL     1     -39.256  48.940 -52.620  1.00  0.00    -0.391 OA
HETATM   24  H   UNL     1     -38.788  49.487 -51.968  1.00  0.00     0.210 HD
ENDBRANCH  21  23
ENDBRANCH  17  21
ENDBRANCH  12  15
ENDBRANCH   1  11
BRANCH   4  25
HETATM   25  C   UNL     1     -43.015  60.710 -55.280  1.00  0.00     0.409 C 
HETATM   26  F   UNL     1     -41.986  60.480 -54.445  1.00  0.00    -0.169 F 
HETATM   27  F   UNL     1     -42.496  61.079 -56.473  1.00  0.00    -0.169 F 
HETATM   28  F   UNL     1     -43.675  61.802 -54.808  1.00  0.00    -0.169 F 
ENDBRANCH   4  25
BRANCH   6  29
HETATM   29  C   UNL     1     -44.073  59.856 -52.124  1.00  0.00    -0.035 A 
HETATM   30  C   UNL     1     -44.516  61.162 -51.836  1.00  0.00     0.009 A 
HETATM   31  C   UNL     1     -43.788  62.002 -50.989  1.00  0.00     0.001 A 
HETATM   32  C   UNL     1     -42.611  61.551 -50.403  1.00  0.00     0.000 A 
HETATM   33  C   UNL     1     -42.165  60.258 -50.657  1.00  0.00     0.001 A 
HETATM   34  C   UNL     1     -42.890  59.417 -51.505  1.00  0.00     0.009 A 
ENDBRANCH   6  29
TORSDOF 6
ENDMDL
MODEL 10
REMARK VINA RESULT:      -8.1      3.840      8.241
REMARK  6 active torsions:
REMARK  status: ('A' for Active; 'I' for Inactive)
REMARK    1  A    between atoms: C_2  and  O_3 
REMARK    2  A    between atoms: C_2  and  C_4 
REMARK    3  A    between atoms: C_6  and  N_7 
REMARK       I    between atoms: N_7  and  C_8 
REMARK    4  A    between atoms: C_8  and  C_9 
REMARK    5  A    between atoms: C_12  and  C_13 
REMARK    6  A    between atoms: C_18  and  C_19 
ROOT
HETATM    1  C   UNL     1     -42.097  57.466 -55.344  1.00  0.00     0.096 A 
HETATM    2  C   UNL     1     -42.245  57.856 -56.662  1.00  0.00     0.138 A 
HETATM    3  N   UNL     1     -42.048  59.215 -56.673  1.00  0.00    -0.240 N 
HETATM    4  C   UNL     1     -42.053  60.045 -57.862  1.00  0.00     0.221 C 
HETATM    5  C   UNL     1     -42.031  59.171 -59.131  1.00  0.00     0.066 C 
HETATM    6  C   UNL     1     -42.891  57.899 -59.029  1.00  0.00     0.118 C 
HETATM    7  N   UNL     1     -42.531  57.173 -57.804  1.00  0.00    -0.365 N 
HETATM    8  N   UNL     1     -41.781  59.734 -55.465  1.00  0.00    -0.181 NA
HETATM    9  C   UNL     1     -41.864  58.677 -54.651  1.00  0.00     0.160 A 
HETATM   10  H   UNL     1     -42.986  56.260 -57.738  1.00  0.00     0.161 HD
ENDROOT
BRANCH   1  11
HETATM   11  C   UNL     1     -42.150  56.134 -54.768  1.00  0.00     0.261 C 
HETATM   12  N   UNL     1     -40.897  55.632 -54.465  1.00  0.00    -0.323 N 
HETATM   13  H   UNL     1     -40.130  56.283 -54.592  1.00  0.00     0.169 HD
HETATM   14  O   UNL     1     -43.224  55.592 -54.537  1.00  0.00    -0.267 OA
BRANCH  12  15
HETATM   15  C   UNL     1     -40.585  54.402 -53.857  1.00  0.00     0.035 A 
HETATM   16  C   UNL     1     -40.485  54.221 -52.475  1.00  0.00     0.039 A 
HETATM   17  C   UNL     1     -40.164  52.964 -51.928  1.00  0.00    -0.028 A 
HETATM   18  C   UNL     1     -39.944  51.887 -52.797  1.00  0.00     0.010 A 
HETATM   19  C   UNL     1     -40.045  52.057 -54.175  1.00  0.00     0.003 A 
HETATM   20  C   UNL     1     -40.373  53.306 -54.701  1.00  0.00     0.029 A 
BRANCH  17  21
HETATM   21  C   UNL     1     -40.111  52.793 -50.425  1.00  0.00     0.147 C 
HETATM   22  C   UNL     1     -41.054  53.766 -49.727  1.00  0.00     0.044 C 
BRANCH  21  23
HETATM   23  O   UNL     1     -40.471  51.460 -50.067  1.00  0.00    -0.391 OA
HETATM   24  H   UNL     1     -40.146  50.881 -50.776  1.00  0.00     0.210 HD
ENDBRANCH  21  23
ENDBRANCH  17  21
ENDBRANCH  12  15
ENDBRANCH   1  11
BRANCH   4  25
HETATM   25  C   UNL     1     -43.196  61.038 -57.820  1.00  0.00     0.409 C 
HETATM   26  F   UNL     1     -43.686  61.364 -59.029  1.00  0.00    -0.169 F 
HETATM   27  F   UNL     1     -44.229  60.593 -57.068  1.00  0.00    -0.169 F 
HETATM   28  F   UNL     1     -42.781  62.194 -57.233  1.00  0.00    -0.169 F 
ENDBRANCH   4  25
BRANCH   6  29
HETATM   29  C   UNL     1     -44.387  58.122 -59.194  1.00  0.00    -0.035 A 
HETATM   30  C   UNL     1     -44.865  58.692 -60.390  1.00  0.00     0.009 A 
HETATM   31  C   UNL     1     -46.229  58.930 -60.583  1.00  0.00     0.001 A 
HETATM   32  C   UNL     1     -47.143  58.590 -59.592  1.00  0.00     0.000 A 
HETATM   33  C   UNL     1     -46.696  58.007 -58.410  1.00  0.00     0.001 A 
HETATM   34  C   UNL     1     -45.332  57.771 -58.214  1.00  0.00     0.009 A 
ENDBRANCH   6  29
TORSDOF 6
ENDMDL
