MODEL 1
REMARK VINA RESULT:      -9.2      0.000      0.000
REMARK  7 active torsions:
REMARK  status: ('A' for Active; 'I' for Inactive)
REMARK    1  A    between atoms: N_2  and  C_4 
REMARK    2  A    between atoms: C_4  and  C_5 
REMARK    3  A    between atoms: C_5  and  C_6 
REMARK    4  A    between atoms: C_6  and  N_7 
REMARK    5  A    between atoms: N_7  and  C_8 
REMARK    6  A    between atoms: C_23  and  N_24 
REMARK    7  A    between atoms: N_27  and  C_29 
ROOT
HETATM    1  C   UNL     1     -41.187  55.452 -54.221  1.00  0.00     0.025 A 
HETATM    2  C   UNL     1     -40.830  54.290 -53.507  1.00  0.00     0.052 A 
HETATM    3  C   UNL     1     -40.895  54.496 -52.153  1.00  0.00     0.050 A 
HETATM    4  C   UNL     1     -40.586  53.500 -51.293  1.00  0.00     0.126 A 
HETATM    5  C   UNL     1     -40.192  52.156 -51.632  1.00  0.00     0.015 A 
HETATM    6  C   UNL     1     -40.095  51.879 -53.022  1.00  0.00     0.028 A 
HETATM    7  C   UNL     1     -40.383  52.973 -54.024  1.00  0.00     0.196 A 
HETATM    8  O   UNL     1     -40.241  52.821 -55.233  1.00  0.00    -0.287 OA
HETATM    9  C   UNL     1     -39.930  51.155 -50.700  1.00  0.00     0.015 A 
HETATM   10  C   UNL     1     -39.573  49.880 -51.150  1.00  0.00     0.001 A 
HETATM   11  C   UNL     1     -39.477  49.606 -52.520  1.00  0.00     0.001 A 
HETATM   12  C   UNL     1     -39.737  50.605 -53.462  1.00  0.00     0.016 A 
HETATM   13  C   UNL     1     -41.267  55.636 -51.404  1.00  0.00     0.125 A 
HETATM   14  N   UNL     1     -41.122  55.320 -50.093  1.00  0.00    -0.125 NA
HETATM   15  O   UNL     1     -40.714  53.975 -50.032  1.00  0.00    -0.211 OA
HETATM   16  C   UNL     1     -41.677  56.830 -52.071  1.00  0.00     0.064 A 
HETATM   17  C   UNL     1     -41.624  56.643 -53.508  1.00  0.00     0.056 A 
ENDROOT
BRANCH  16  18
HETATM   18  N   UNL     1     -42.158  58.012 -51.499  1.00  0.00    -0.376 N 
HETATM   19  C   UNL     1     -43.609  58.204 -51.363  1.00  0.00     0.150 C 
HETATM   20  C   UNL     1     -44.192  58.943 -52.588  1.00  0.00     0.255 C 
HETATM   21  N   UNL     1     -43.475  60.282 -52.844  1.00  0.00    -0.064 N 
HETATM   22  H   UNL     1     -43.599  60.859 -52.004  1.00  0.00     0.280 HD
HETATM   23  C   UNL     1     -41.949  60.024 -52.967  1.00  0.00     0.255 C 
HETATM   24  C   UNL     1     -41.422  59.273 -51.722  1.00  0.00     0.150 C 
BRANCH  21  25
HETATM   25  C   UNL     1     -44.058  61.047 -54.046  1.00  0.00     0.188 C 
HETATM   26  C   UNL     1     -45.559  61.339 -53.845  1.00  0.00     0.033 C 
HETATM   27  C   UNL     1     -45.824  62.298 -52.683  1.00  0.00     0.002 C 
HETATM   28  C   UNL     1     -45.053  63.605 -52.850  1.00  0.00     0.000 C 
HETATM   29  C   UNL     1     -43.566  63.377 -53.116  1.00  0.00     0.002 C 
HETATM   30  C   UNL     1     -43.342  62.392 -54.265  1.00  0.00     0.033 C 
ENDBRANCH  21  25
ENDBRANCH  16  18
BRANCH   1  31
HETATM   31  N   UNL     1     -41.215  55.398 -55.642  1.00  0.00    -0.292 NA
HETATM   32  H   UNL     1     -40.760  56.265 -55.980  1.00  0.00     0.127 HD
BRANCH  31  33
HETATM   33  C   UNL     1     -42.511  55.159 -56.265  1.00  0.00     0.094 C 
BRANCH  33  34
HETATM   34  C   UNL     1     -42.886  56.336 -57.169  1.00  0.00     0.042 C 
BRANCH  34  35
HETATM   35  C   UNL     1     -43.060  55.915 -58.627  1.00  0.00     0.235 C 
BRANCH  35  36
HETATM   36  N   UNL     1     -44.522  55.626 -58.932  1.00  0.00    -0.079 N 
HETATM   37  C   UNL     1     -44.731  54.509 -59.919  1.00  0.00     0.269 C 
HETATM   38  H   UNL     1     -44.973  55.346 -58.051  1.00  0.00     0.278 HD
HETATM   39  C   UNL     1     -45.243  56.874 -59.379  1.00  0.00     0.269 C 
ENDBRANCH  35  36
ENDBRANCH  34  35
ENDBRANCH  33  34
ENDBRANCH  31  33
ENDBRANCH   1  31
TORSDOF 7
ENDMDL
MODEL 2
REMARK VINA RESULT:      -9.1      2.223      5.991
REMARK  7 active torsions:
REMARK  status: ('A' for Active; 'I' for Inactive)
REMARK    1  A    between atoms: N_2  and  C_4 
REMARK    2  A    between atoms: C_4  and  C_5 
REMARK    3  A    between atoms: C_5  and  C_6 
REMARK    4  A    between atoms: C_6  and  N_7 
REMARK    5  A    between atoms: N_7  and  C_8 
REMARK    6  A    between atoms: C_23  and  N_24 
REMARK    7  A    between atoms: N_27  and  C_29 
ROOT
HETATM    1  C   UNL     1     -41.907  57.055 -52.081  1.00  0.00     0.025 A 
HETATM    2  C   UNL     1     -41.481  55.771 -52.476  1.00  0.00     0.052 A 
HETATM    3  C   UNL     1     -41.703  55.560 -53.813  1.00  0.00     0.050 A 
HETATM    4  C   UNL     1     -41.364  54.384 -54.387  1.00  0.00     0.126 A 
HETATM    5  C   UNL     1     -40.741  53.256 -53.743  1.00  0.00     0.015 A 
HETATM    6  C   UNL     1     -40.492  53.405 -52.352  1.00  0.00     0.028 A 
HETATM    7  C   UNL     1     -40.896  54.683 -51.654  1.00  0.00     0.196 A 
HETATM    8  O   UNL     1     -40.782  54.843 -50.443  1.00  0.00    -0.287 OA
HETATM    9  C   UNL     1     -40.372  52.083 -54.396  1.00  0.00     0.015 A 
HETATM   10  C   UNL     1     -39.754  51.061 -53.669  1.00  0.00     0.001 A 
HETATM   11  C   UNL     1     -39.509  51.207 -52.299  1.00  0.00     0.001 A 
HETATM   12  C   UNL     1     -39.878  52.379 -51.634  1.00  0.00     0.016 A 
HETATM   13  C   UNL     1     -42.250  56.404 -54.807  1.00  0.00     0.125 A 
HETATM   14  N   UNL     1     -42.281  55.693 -55.963  1.00  0.00    -0.125 NA
HETATM   15  O   UNL     1     -41.707  54.437 -55.695  1.00  0.00    -0.211 OA
HETATM   16  C   UNL     1     -42.662  57.730 -54.475  1.00  0.00     0.064 A 
HETATM   17  C   UNL     1     -42.435  57.986 -53.067  1.00  0.00     0.056 A 
ENDROOT
BRANCH  16  18
HETATM   18  N   UNL     1     -43.138  58.723 -55.338  1.00  0.00    -0.376 N 
HETATM   19  C   UNL     1     -44.474  58.574 -55.934  1.00  0.00     0.150 C 
HETATM   20  C   UNL     1     -44.396  57.872 -57.309  1.00  0.00     0.255 C 
HETATM   21  N   UNL     1     -43.435  58.597 -58.269  1.00  0.00    -0.064 N 
HETATM   22  H   UNL     1     -43.791  59.553 -58.391  1.00  0.00     0.280 HD
HETATM   23  C   UNL     1     -42.048  58.738 -57.587  1.00  0.00     0.255 C 
HETATM   24  C   UNL     1     -42.185  59.435 -56.214  1.00  0.00     0.150 C 
BRANCH  21  25
HETATM   25  C   UNL     1     -43.364  57.928 -59.655  1.00  0.00     0.188 C 
HETATM   26  C   UNL     1     -44.674  58.136 -60.441  1.00  0.00     0.033 C 
HETATM   27  C   UNL     1     -44.925  59.602 -60.795  1.00  0.00     0.002 C 
HETATM   28  C   UNL     1     -43.750  60.200 -61.565  1.00  0.00     0.000 C 
HETATM   29  C   UNL     1     -42.413  59.970 -60.864  1.00  0.00     0.002 C 
HETATM   30  C   UNL     1     -42.212  58.497 -60.501  1.00  0.00     0.033 C 
ENDBRANCH  21  25
ENDBRANCH  16  18
BRANCH   1  31
HETATM   31  N   UNL     1     -41.709  57.453 -50.730  1.00  0.00    -0.292 NA
HETATM   32  H   UNL     1     -42.626  57.785 -50.381  1.00  0.00     0.127 HD
BRANCH  31  33
HETATM   33  C   UNL     1     -40.631  58.402 -50.476  1.00  0.00     0.094 C 
BRANCH  33  34
HETATM   34  C   UNL     1     -41.160  59.600 -49.683  1.00  0.00     0.042 C 
BRANCH  34  35
HETATM   35  C   UNL     1     -42.164  60.427 -50.484  1.00  0.00     0.235 C 
BRANCH  35  36
HETATM   36  N   UNL     1     -43.574  60.223 -49.951  1.00  0.00    -0.079 N 
HETATM   37  C   UNL     1     -44.585  59.879 -51.012  1.00  0.00     0.269 C 
HETATM   38  H   UNL     1     -43.544  59.436 -49.289  1.00  0.00     0.278 HD
HETATM   39  C   UNL     1     -44.031  61.414 -49.146  1.00  0.00     0.269 C 
ENDBRANCH  35  36
ENDBRANCH  34  35
ENDBRANCH  33  34
ENDBRANCH  31  33
ENDBRANCH   1  31
TORSDOF 7
ENDMDL
MODEL 3
REMARK VINA RESULT:      -8.8      2.009      5.723
REMARK  7 active torsions:
REMARK  status: ('A' for Active; 'I' for Inactive)
REMARK    1  A    between atoms: N_2  and  C_4 
REMARK    2  A    between atoms: C_4  and  C_5 
REMARK    3  A    between atoms: C_5  and  C_6 
REMARK    4  A    between atoms: C_6  and  N_7 
REMARK    5  A    between atoms: N_7  and  C_8 
REMARK    6  A    between atoms: C_23  and  N_24 
REMARK    7  A    between atoms: N_27  and  C_29 
ROOT
HETATM    1  C   UNL     1     -41.809  56.896 -52.216  1.00  0.00     0.025 A 
HETATM    2  C   UNL     1     -41.363  55.580 -52.450  1.00  0.00     0.052 A 
HETATM    3  C   UNL     1     -41.449  55.253 -53.779  1.00  0.00     0.050 A 
HETATM    4  C   UNL     1     -41.069  54.029 -54.209  1.00  0.00     0.126 A 
HETATM    5  C   UNL     1     -40.532  52.959 -53.408  1.00  0.00     0.015 A 
HETATM    6  C   UNL     1     -40.425  53.230 -52.017  1.00  0.00     0.028 A 
HETATM    7  C   UNL     1     -40.881  54.566 -51.479  1.00  0.00     0.196 A 
HETATM    8  O   UNL     1     -40.890  54.833 -50.282  1.00  0.00    -0.287 OA
HETATM    9  C   UNL     1     -40.114  51.731 -53.915  1.00  0.00     0.015 A 
HETATM   10  C   UNL     1     -39.589  50.774 -53.040  1.00  0.00     0.001 A 
HETATM   11  C   UNL     1     -39.484  51.041 -51.670  1.00  0.00     0.001 A 
HETATM   12  C   UNL     1     -39.903  52.269 -51.152  1.00  0.00     0.016 A 
HETATM   13  C   UNL     1     -41.878  56.008 -54.895  1.00  0.00     0.125 A 
HETATM   14  N   UNL     1     -41.800  55.199 -55.981  1.00  0.00    -0.125 NA
HETATM   15  O   UNL     1     -41.275  53.968 -55.546  1.00  0.00    -0.211 OA
HETATM   16  C   UNL     1     -42.303  57.361 -54.725  1.00  0.00     0.064 A 
HETATM   17  C   UNL     1     -42.219  57.739 -53.328  1.00  0.00     0.056 A 
ENDROOT
BRANCH  16  18
HETATM   18  N   UNL     1     -42.674  58.276 -55.716  1.00  0.00    -0.376 N 
HETATM   19  C   UNL     1     -43.733  59.253 -55.429  1.00  0.00     0.150 C 
HETATM   20  C   UNL     1     -45.118  58.719 -55.860  1.00  0.00     0.255 C 
HETATM   21  N   UNL     1     -45.133  58.301 -57.343  1.00  0.00    -0.064 N 
HETATM   22  H   UNL     1     -44.898  59.133 -57.896  1.00  0.00     0.280 HD
HETATM   23  C   UNL     1     -43.991  57.280 -57.593  1.00  0.00     0.255 C 
HETATM   24  C   UNL     1     -42.633  57.860 -57.133  1.00  0.00     0.150 C 
BRANCH  21  25
HETATM   25  C   UNL     1     -46.513  57.790 -57.800  1.00  0.00     0.188 C 
HETATM   26  C   UNL     1     -47.574  58.904 -57.715  1.00  0.00     0.033 C 
HETATM   27  C   UNL     1     -47.307  60.052 -58.691  1.00  0.00     0.002 C 
HETATM   28  C   UNL     1     -47.188  59.548 -60.127  1.00  0.00     0.000 C 
HETATM   29  C   UNL     1     -46.194  58.397 -60.263  1.00  0.00     0.002 C 
HETATM   30  C   UNL     1     -46.476  57.283 -59.253  1.00  0.00     0.033 C 
ENDBRANCH  21  25
ENDBRANCH  16  18
BRANCH   1  31
HETATM   31  N   UNL     1     -41.745  57.412 -50.891  1.00  0.00    -0.292 NA
HETATM   32  H   UNL     1     -42.656  57.869 -50.707  1.00  0.00     0.127 HD
BRANCH  31  33
HETATM   33  C   UNL     1     -40.609  58.268 -50.573  1.00  0.00     0.094 C 
BRANCH  33  34
HETATM   34  C   UNL     1     -41.087  59.535 -49.859  1.00  0.00     0.042 C 
BRANCH  34  35
HETATM   35  C   UNL     1     -42.091  60.327 -50.693  1.00  0.00     0.235 C 
BRANCH  35  36
HETATM   36  N   UNL     1     -43.511  60.068 -50.213  1.00  0.00    -0.079 N 
HETATM   37  C   UNL     1     -44.480  59.740 -51.317  1.00  0.00     0.269 C 
HETATM   38  H   UNL     1     -43.481  59.257 -49.580  1.00  0.00     0.278 HD
HETATM   39  C   UNL     1     -44.022  61.216 -49.379  1.00  0.00     0.269 C 
ENDBRANCH  35  36
ENDBRANCH  34  35
ENDBRANCH  33  34
ENDBRANCH  31  33
ENDBRANCH   1  31
TORSDOF 7
ENDMDL
MODEL 4
REMARK VINA RESULT:      -8.6      2.649      5.781
REMARK  7 active torsions:
REMARK  status: ('A' for Active; 'I' for Inactive)
REMARK    1  A    between atoms: N_2  and  C_4 
REMARK    2  A    between atoms: C_4  and  C_5 
REMARK    3  A    between atoms: C_5  and  C_6 
REMARK    4  A    between atoms: C_6  and  N_7 
REMARK    5  A    between atoms: N_7  and  C_8 
REMARK    6  A    between atoms: C_23  and  N_24 
REMARK    7  A    between atoms: N_27  and  C_29 
ROOT
HETATM    1  C   UNL     1     -42.312  57.084 -52.235  1.00  0.00     0.025 A 
HETATM    2  C   UNL     1     -41.803  55.802 -52.522  1.00  0.00     0.052 A 
HETATM    3  C   UNL     1     -42.137  55.404 -53.792  1.00  0.00     0.050 A 
HETATM    4  C   UNL     1     -41.743  54.199 -54.258  1.00  0.00     0.126 A 
HETATM    5  C   UNL     1     -40.948  53.220 -53.561  1.00  0.00     0.015 A 
HETATM    6  C   UNL     1     -40.576  53.565 -52.234  1.00  0.00     0.028 A 
HETATM    7  C   UNL     1     -41.033  54.881 -51.649  1.00  0.00     0.196 A 
HETATM    8  O   UNL     1     -40.813  55.204 -50.486  1.00  0.00    -0.287 OA
HETATM    9  C   UNL     1     -40.533  52.009 -54.111  1.00  0.00     0.015 A 
HETATM   10  C   UNL     1     -39.746  51.145 -53.343  1.00  0.00     0.001 A 
HETATM   11  C   UNL     1     -39.379  51.485 -52.035  1.00  0.00     0.001 A 
HETATM   12  C   UNL     1     -39.794  52.696 -51.475  1.00  0.00     0.016 A 
HETATM   13  C   UNL     1     -42.863  56.065 -54.810  1.00  0.00     0.125 A 
HETATM   14  N   UNL     1     -42.941  55.213 -55.863  1.00  0.00    -0.125 NA
HETATM   15  O   UNL     1     -42.221  54.056 -55.516  1.00  0.00    -0.211 OA
HETATM   16  C   UNL     1     -43.369  57.382 -54.591  1.00  0.00     0.064 A 
HETATM   17  C   UNL     1     -43.028  57.833 -53.257  1.00  0.00     0.056 A 
ENDROOT
BRANCH  16  18
HETATM   18  N   UNL     1     -44.027  58.212 -55.505  1.00  0.00    -0.376 N 
HETATM   19  C   UNL     1     -44.320  57.703 -56.853  1.00  0.00     0.150 C 
HETATM   20  C   UNL     1     -43.186  58.057 -57.842  1.00  0.00     0.255 C 
HETATM   21  N   UNL     1     -42.900  59.570 -57.868  1.00  0.00    -0.064 N 
HETATM   22  H   UNL     1     -43.767  60.039 -58.156  1.00  0.00     0.280 HD
HETATM   23  C   UNL     1     -42.610  60.055 -56.422  1.00  0.00     0.255 C 
HETATM   24  C   UNL     1     -43.768  59.665 -55.475  1.00  0.00     0.150 C 
BRANCH  21  25
HETATM   25  C   UNL     1     -41.790  59.947 -58.867  1.00  0.00     0.188 C 
HETATM   26  C   UNL     1     -42.145  59.482 -60.293  1.00  0.00     0.033 C 
HETATM   27  C   UNL     1     -43.365  60.206 -60.865  1.00  0.00     0.002 C 
HETATM   28  C   UNL     1     -43.178  61.721 -60.838  1.00  0.00     0.000 C 
HETATM   29  C   UNL     1     -42.763  62.235 -59.461  1.00  0.00     0.002 C 
HETATM   30  C   UNL     1     -41.559  61.468 -58.911  1.00  0.00     0.033 C 
ENDBRANCH  21  25
ENDBRANCH  16  18
BRANCH   1  31
HETATM   31  N   UNL     1     -42.019  57.666 -50.971  1.00  0.00    -0.292 NA
HETATM   32  H   UNL     1     -42.915  58.023 -50.593  1.00  0.00     0.127 HD
BRANCH  31  33
HETATM   33  C   UNL     1     -40.955  58.663 -50.937  1.00  0.00     0.094 C 
BRANCH  33  34
HETATM   34  C   UNL     1     -41.401  59.883 -50.126  1.00  0.00     0.042 C 
BRANCH  34  35
HETATM   35  C   UNL     1     -42.635  60.556 -50.724  1.00  0.00     0.235 C 
BRANCH  35  36
HETATM   36  N   UNL     1     -43.877  60.216 -49.915  1.00  0.00    -0.079 N 
HETATM   37  C   UNL     1     -45.013  59.670 -50.738  1.00  0.00     0.269 C 
HETATM   38  H   UNL     1     -43.615  59.490 -49.234  1.00  0.00     0.278 HD
HETATM   39  C   UNL     1     -44.334  61.396 -49.093  1.00  0.00     0.269 C 
ENDBRANCH  35  36
ENDBRANCH  34  35
ENDBRANCH  33  34
ENDBRANCH  31  33
ENDBRANCH   1  31
TORSDOF 7
ENDMDL
MODEL 5
REMARK VINA RESULT:      -8.6      1.889      2.951
REMARK  7 active torsions:
REMARK  status: ('A' for Active; 'I' for Inactive)
REMARK    1  A    between atoms: N_2  and  C_4 
REMARK    2  A    between atoms: C_4  and  C_5 
REMARK    3  A    between atoms: C_5  and  C_6 
REMARK    4  A    between atoms: C_6  and  N_7 
REMARK    5  A    between atoms: N_7  and  C_8 
REMARK    6  A    between atoms: C_23  and  N_24 
REMARK    7  A    between atoms: N_27  and  C_29 
ROOT
HETATM    1  C   UNL     1     -42.205  56.641 -55.400  1.00  0.00     0.025 A 
HETATM    2  C   UNL     1     -41.741  55.839 -54.339  1.00  0.00     0.052 A 
HETATM    3  C   UNL     1     -41.964  56.439 -53.125  1.00  0.00     0.050 A 
HETATM    4  C   UNL     1     -41.588  55.828 -51.980  1.00  0.00     0.126 A 
HETATM    5  C   UNL     1     -40.961  54.537 -51.854  1.00  0.00     0.015 A 
HETATM    6  C   UNL     1     -40.691  53.865 -53.077  1.00  0.00     0.028 A 
HETATM    7  C   UNL     1     -41.049  54.527 -54.387  1.00  0.00     0.196 A 
HETATM    8  O   UNL     1     -40.772  54.037 -55.477  1.00  0.00    -0.287 OA
HETATM    9  C   UNL     1     -40.636  53.936 -50.641  1.00  0.00     0.015 A 
HETATM   10  C   UNL     1     -40.046  52.668 -50.643  1.00  0.00     0.001 A 
HETATM   11  C   UNL     1     -39.780  52.006 -51.847  1.00  0.00     0.001 A 
HETATM   12  C   UNL     1     -40.100  52.603 -53.069  1.00  0.00     0.016 A 
HETATM   13  C   UNL     1     -42.577  57.670 -52.797  1.00  0.00     0.125 A 
HETATM   14  N   UNL     1     -42.509  57.805 -51.449  1.00  0.00    -0.125 NA
HETATM   15  O   UNL     1     -41.906  56.639 -50.944  1.00  0.00    -0.211 OA
HETATM   16  C   UNL     1     -43.103  58.507 -53.828  1.00  0.00     0.064 A 
HETATM   17  C   UNL     1     -42.886  57.897 -55.126  1.00  0.00     0.056 A 
ENDROOT
BRANCH  16  18
HETATM   18  N   UNL     1     -43.812  59.704 -53.685  1.00  0.00    -0.376 N 
HETATM   19  C   UNL     1     -43.075  60.944 -53.403  1.00  0.00     0.150 C 
HETATM   20  C   UNL     1     -42.973  61.200 -51.883  1.00  0.00     0.255 C 
HETATM   21  N   UNL     1     -44.358  61.211 -51.210  1.00  0.00    -0.064 N 
HETATM   22  H   UNL     1     -44.904  61.961 -51.649  1.00  0.00     0.280 HD
HETATM   23  C   UNL     1     -45.096  59.888 -51.549  1.00  0.00     0.255 C 
HETATM   24  C   UNL     1     -45.158  59.676 -53.079  1.00  0.00     0.150 C 
BRANCH  21  25
HETATM   25  C   UNL     1     -44.281  61.490 -49.697  1.00  0.00     0.188 C 
HETATM   26  C   UNL     1     -43.722  62.900 -49.420  1.00  0.00     0.033 C 
HETATM   27  C   UNL     1     -44.648  64.012 -49.915  1.00  0.00     0.002 C 
HETATM   28  C   UNL     1     -46.049  63.877 -49.322  1.00  0.00     0.000 C 
HETATM   29  C   UNL     1     -46.632  62.477 -49.510  1.00  0.00     0.002 C 
HETATM   30  C   UNL     1     -45.665  61.394 -49.031  1.00  0.00     0.033 C 
ENDBRANCH  21  25
ENDBRANCH  16  18
BRANCH   1  31
HETATM   31  N   UNL     1     -42.089  56.147 -56.729  1.00  0.00    -0.292 NA
HETATM   32  H   UNL     1     -41.095  55.887 -56.863  1.00  0.00     0.127 HD
BRANCH  31  33
HETATM   33  C   UNL     1     -42.599  57.001 -57.795  1.00  0.00     0.094 C 
BRANCH  33  34
HETATM   34  C   UNL     1     -43.337  56.159 -58.839  1.00  0.00     0.042 C 
BRANCH  34  35
HETATM   35  C   UNL     1     -44.666  56.785 -59.254  1.00  0.00     0.235 C 
BRANCH  35  36
HETATM   36  N   UNL     1     -45.696  55.707 -59.557  1.00  0.00    -0.079 N 
HETATM   37  C   UNL     1     -45.126  54.491 -60.237  1.00  0.00     0.269 C 
HETATM   38  H   UNL     1     -46.097  55.399 -58.661  1.00  0.00     0.278 HD
HETATM   39  C   UNL     1     -46.853  56.266 -60.348  1.00  0.00     0.269 C 
ENDBRANCH  35  36
ENDBRANCH  34  35
ENDBRANCH  33  34
ENDBRANCH  31  33
ENDBRANCH   1  31
TORSDOF 7
ENDMDL
MODEL 6
REMARK VINA RESULT:      -8.5      1.624      2.110
REMARK  7 active torsions:
REMARK  status: ('A' for Active; 'I' for Inactive)
REMARK    1  A    between atoms: N_2  and  C_4 
REMARK    2  A    between atoms: C_4  and  C_5 
REMARK    3  A    between atoms: C_5  and  C_6 
REMARK    4  A    between atoms: C_6  and  N_7 
REMARK    5  A    between atoms: N_7  and  C_8 
REMARK    6  A    between atoms: C_23  and  N_24 
REMARK    7  A    between atoms: N_27  and  C_29 
ROOT
HETATM    1  C   UNL     1     -43.417  56.489 -54.118  1.00  0.00     0.025 A 
HETATM    2  C   UNL     1     -42.541  55.475 -53.681  1.00  0.00     0.052 A 
HETATM    3  C   UNL     1     -42.136  55.688 -52.388  1.00  0.00     0.050 A 
HETATM    4  C   UNL     1     -41.288  54.825 -51.785  1.00  0.00     0.126 A 
HETATM    5  C   UNL     1     -40.734  53.621 -52.349  1.00  0.00     0.015 A 
HETATM    6  C   UNL     1     -41.107  53.346 -53.692  1.00  0.00     0.028 A 
HETATM    7  C   UNL     1     -42.014  54.305 -54.427  1.00  0.00     0.196 A 
HETATM    8  O   UNL     1     -42.309  54.168 -55.610  1.00  0.00    -0.287 OA
HETATM    9  C   UNL     1     -39.900  52.743 -51.662  1.00  0.00     0.015 A 
HETATM   10  C   UNL     1     -39.438  51.592 -52.309  1.00  0.00     0.001 A 
HETATM   11  C   UNL     1     -39.805  51.321 -53.633  1.00  0.00     0.001 A 
HETATM   12  C   UNL     1     -40.640  52.198 -54.330  1.00  0.00     0.016 A 
HETATM   13  C   UNL     1     -42.465  56.712 -51.469  1.00  0.00     0.125 A 
HETATM   14  N   UNL     1     -41.759  56.473 -50.335  1.00  0.00    -0.125 NA
HETATM   15  O   UNL     1     -41.041  55.281 -50.535  1.00  0.00    -0.211 OA
HETATM   16  C   UNL     1     -43.378  57.743 -51.841  1.00  0.00     0.064 A 
HETATM   17  C   UNL     1     -43.830  57.544 -53.204  1.00  0.00     0.056 A 
ENDROOT
BRANCH  16  18
HETATM   18  N   UNL     1     -43.881  58.775 -51.042  1.00  0.00    -0.376 N 
HETATM   19  C   UNL     1     -45.337  58.916 -50.886  1.00  0.00     0.150 C 
HETATM   20  C   UNL     1     -45.919  59.887 -51.939  1.00  0.00     0.255 C 
HETATM   21  N   UNL     1     -45.219  61.258 -51.902  1.00  0.00    -0.064 N 
HETATM   22  H   UNL     1     -45.359  61.647 -50.962  1.00  0.00     0.280 HD
HETATM   23  C   UNL     1     -43.688  61.050 -52.058  1.00  0.00     0.255 C 
HETATM   24  C   UNL     1     -43.162  60.064 -50.990  1.00  0.00     0.150 C 
BRANCH  21  25
HETATM   25  C   UNL     1     -45.802  62.250 -52.927  1.00  0.00     0.188 C 
HETATM   26  C   UNL     1     -47.316  62.448 -52.709  1.00  0.00     0.033 C 
HETATM   27  C   UNL     1     -47.638  63.123 -51.375  1.00  0.00     0.002 C 
HETATM   28  C   UNL     1     -46.908  64.457 -51.234  1.00  0.00     0.000 C 
HETATM   29  C   UNL     1     -45.409  64.335 -51.501  1.00  0.00     0.002 C 
HETATM   30  C   UNL     1     -45.128  63.629 -52.829  1.00  0.00     0.033 C 
ENDBRANCH  21  25
ENDBRANCH  16  18
BRANCH   1  31
HETATM   31  N   UNL     1     -43.968  56.397 -55.426  1.00  0.00    -0.292 NA
HETATM   32  H   UNL     1     -43.234  55.981 -56.028  1.00  0.00     0.127 HD
BRANCH  31  33
HETATM   33  C   UNL     1     -44.535  57.617 -55.987  1.00  0.00     0.094 C 
BRANCH  33  34
HETATM   34  C   UNL     1     -43.492  58.338 -56.846  1.00  0.00     0.042 C 
BRANCH  34  35
HETATM   35  C   UNL     1     -43.483  57.837 -58.289  1.00  0.00     0.235 C 
BRANCH  35  36
HETATM   36  N   UNL     1     -44.424  56.653 -58.452  1.00  0.00    -0.079 N 
HETATM   37  C   UNL     1     -43.747  55.392 -58.917  1.00  0.00     0.269 C 
HETATM   38  H   UNL     1     -44.839  56.457 -57.531  1.00  0.00     0.278 HD
HETATM   39  C   UNL     1     -45.583  56.999 -59.354  1.00  0.00     0.269 C 
ENDBRANCH  35  36
ENDBRANCH  34  35
ENDBRANCH  33  34
ENDBRANCH  31  33
ENDBRANCH   1  31
TORSDOF 7
ENDMDL
MODEL 7
REMARK VINA RESULT:      -8.5      2.743      5.516
REMARK  7 active torsions:
REMARK  status: ('A' for Active; 'I' for Inactive)
REMARK    1  A    between atoms: N_2  and  C_4 
REMARK    2  A    between atoms: C_4  and  C_5 
REMARK    3  A    between atoms: C_5  and  C_6 
REMARK    4  A    between atoms: C_6  and  N_7 
REMARK    5  A    between atoms: N_7  and  C_8 
REMARK    6  A    between atoms: C_23  and  N_24 
REMARK    7  A    between atoms: N_27  and  C_29 
ROOT
HETATM    1  C   UNL     1     -44.054  56.809 -53.055  1.00  0.00     0.025 A 
HETATM    2  C   UNL     1     -43.129  55.759 -52.888  1.00  0.00     0.052 A 
HETATM    3  C   UNL     1     -42.582  55.379 -54.087  1.00  0.00     0.050 A 
HETATM    4  C   UNL     1     -41.672  54.382 -54.139  1.00  0.00     0.126 A 
HETATM    5  C   UNL     1     -41.149  53.629 -53.027  1.00  0.00     0.015 A 
HETATM    6  C   UNL     1     -41.682  53.967 -51.754  1.00  0.00     0.028 A 
HETATM    7  C   UNL     1     -42.738  55.043 -51.649  1.00  0.00     0.196 A 
HETATM    8  O   UNL     1     -43.295  55.326 -50.593  1.00  0.00    -0.287 OA
HETATM    9  C   UNL     1     -40.174  52.640 -53.136  1.00  0.00     0.015 A 
HETATM   10  C   UNL     1     -39.729  51.990 -51.981  1.00  0.00     0.001 A 
HETATM   11  C   UNL     1     -40.255  52.322 -50.727  1.00  0.00     0.001 A 
HETATM   12  C   UNL     1     -41.234  53.311 -50.608  1.00  0.00     0.016 A 
HETATM   13  C   UNL     1     -42.784  55.872 -55.397  1.00  0.00     0.125 A 
HETATM   14  N   UNL     1     -42.024  55.118 -56.230  1.00  0.00    -0.125 NA
HETATM   15  O   UNL     1     -41.317  54.200 -55.432  1.00  0.00    -0.211 OA
HETATM   16  C   UNL     1     -43.679  56.961 -55.623  1.00  0.00     0.064 A 
HETATM   17  C   UNL     1     -44.271  57.391 -54.372  1.00  0.00     0.056 A 
ENDROOT
BRANCH  16  18
HETATM   18  N   UNL     1     -43.932  57.629 -56.826  1.00  0.00    -0.376 N 
HETATM   19  C   UNL     1     -42.865  57.721 -57.833  1.00  0.00     0.150 C 
HETATM   20  C   UNL     1     -42.046  59.021 -57.660  1.00  0.00     0.255 C 
HETATM   21  N   UNL     1     -42.945  60.272 -57.685  1.00  0.00    -0.064 N 
HETATM   22  H   UNL     1     -43.424  60.285 -58.593  1.00  0.00     0.280 HD
HETATM   23  C   UNL     1     -44.058  60.116 -56.615  1.00  0.00     0.255 C 
HETATM   24  C   UNL     1     -44.836  58.797 -56.827  1.00  0.00     0.150 C 
BRANCH  21  25
HETATM   25  C   UNL     1     -42.145  61.580 -57.541  1.00  0.00     0.188 C 
HETATM   26  C   UNL     1     -40.941  61.604 -58.502  1.00  0.00     0.033 C 
HETATM   27  C   UNL     1     -41.359  61.633 -59.973  1.00  0.00     0.002 C 
HETATM   28  C   UNL     1     -42.289  62.808 -60.267  1.00  0.00     0.000 C 
HETATM   29  C   UNL     1     -43.471  62.873 -59.302  1.00  0.00     0.002 C 
HETATM   30  C   UNL     1     -43.015  62.813 -57.844  1.00  0.00     0.033 C 
ENDBRANCH  21  25
ENDBRANCH  16  18
BRANCH   1  31
HETATM   31  N   UNL     1     -44.683  57.355 -51.902  1.00  0.00    -0.292 NA
HETATM   32  H   UNL     1     -45.631  56.940 -51.858  1.00  0.00     0.127 HD
BRANCH  31  33
HETATM   33  C   UNL     1     -44.695  58.808 -51.785  1.00  0.00     0.094 C 
BRANCH  33  34
HETATM   34  C   UNL     1     -43.399  59.295 -51.129  1.00  0.00     0.042 C 
BRANCH  34  35
HETATM   35  C   UNL     1     -42.482  60.010 -52.118  1.00  0.00     0.235 C 
BRANCH  35  36
HETATM   36  N   UNL     1     -41.125  59.326 -52.183  1.00  0.00    -0.079 N 
HETATM   37  C   UNL     1     -40.821  58.696 -53.516  1.00  0.00     0.269 C 
HETATM   38  H   UNL     1     -40.407  60.044 -52.012  1.00  0.00     0.278 HD
HETATM   39  C   UNL     1     -40.967  58.321 -51.070  1.00  0.00     0.269 C 
ENDBRANCH  35  36
ENDBRANCH  34  35
ENDBRANCH  33  34
ENDBRANCH  31  33
ENDBRANCH   1  31
TORSDOF 7
ENDMDL
MODEL 8
REMARK VINA RESULT:      -8.5      1.758      2.400
REMARK  7 active torsions:
REMARK  status: ('A' for Active; 'I' for Inactive)
REMARK    1  A    between atoms: N_2  and  C_4 
REMARK    2  A    between atoms: C_4  and  C_5 
REMARK    3  A    between atoms: C_5  and  C_6 
REMARK    4  A    between atoms: C_6  and  N_7 
REMARK    5  A    between atoms: N_7  and  C_8 
REMARK    6  A    between atoms: C_23  and  N_24 
REMARK    7  A    between atoms: N_27  and  C_29 
ROOT
HETATM    1  C   UNL     1     -42.312  56.066 -54.759  1.00  0.00     0.025 A 
HETATM    2  C   UNL     1     -41.800  55.093 -53.877  1.00  0.00     0.052 A 
HETATM    3  C   UNL     1     -42.249  55.295 -52.597  1.00  0.00     0.050 A 
HETATM    4  C   UNL     1     -41.868  54.467 -51.599  1.00  0.00     0.126 A 
HETATM    5  C   UNL     1     -41.014  53.312 -51.712  1.00  0.00     0.015 A 
HETATM    6  C   UNL     1     -40.505  53.052 -53.013  1.00  0.00     0.028 A 
HETATM    7  C   UNL     1     -40.862  53.977 -54.154  1.00  0.00     0.196 A 
HETATM    8  O   UNL     1     -40.394  53.854 -55.281  1.00  0.00    -0.287 OA
HETATM    9  C   UNL     1     -40.691  52.466 -50.654  1.00  0.00     0.015 A 
HETATM   10  C   UNL     1     -39.866  51.362 -50.890  1.00  0.00     0.001 A 
HETATM   11  C   UNL     1     -39.364  51.106 -52.171  1.00  0.00     0.001 A 
HETATM   12  C   UNL     1     -39.680  51.951 -53.238  1.00  0.00     0.016 A 
HETATM   13  C   UNL     1     -43.120  56.272 -52.062  1.00  0.00     0.125 A 
HETATM   14  N   UNL     1     -43.205  56.045 -50.727  1.00  0.00    -0.125 NA
HETATM   15  O   UNL     1     -42.434  54.902 -50.449  1.00  0.00    -0.211 OA
HETATM   16  C   UNL     1     -43.701  57.259 -52.914  1.00  0.00     0.064 A 
HETATM   17  C   UNL     1     -43.249  57.070 -54.279  1.00  0.00     0.056 A 
ENDROOT
BRANCH  16  18
HETATM   18  N   UNL     1     -44.642  58.238 -52.578  1.00  0.00    -0.376 N 
HETATM   19  C   UNL     1     -44.970  59.283 -53.559  1.00  0.00     0.150 C 
HETATM   20  C   UNL     1     -44.082  60.531 -53.362  1.00  0.00     0.255 C 
HETATM   21  N   UNL     1     -44.165  61.073 -51.923  1.00  0.00    -0.064 N 
HETATM   22  H   UNL     1     -45.146  61.318 -51.746  1.00  0.00     0.280 HD
HETATM   23  C   UNL     1     -43.822  59.929 -50.931  1.00  0.00     0.255 C 
HETATM   24  C   UNL     1     -44.731  58.703 -51.180  1.00  0.00     0.150 C 
BRANCH  21  25
HETATM   25  C   UNL     1     -43.306  62.334 -51.713  1.00  0.00     0.188 C 
HETATM   26  C   UNL     1     -43.824  63.508 -52.567  1.00  0.00     0.033 C 
HETATM   27  C   UNL     1     -45.215  63.981 -52.142  1.00  0.00     0.002 C 
HETATM   28  C   UNL     1     -45.250  64.353 -50.661  1.00  0.00     0.000 C 
HETATM   29  C   UNL     1     -44.688  63.250 -49.767  1.00  0.00     0.002 C 
HETATM   30  C   UNL     1     -43.311  62.785 -50.241  1.00  0.00     0.033 C 
ENDBRANCH  21  25
ENDBRANCH  16  18
BRANCH   1  31
HETATM   31  N   UNL     1     -41.978  55.977 -56.139  1.00  0.00    -0.292 NA
HETATM   32  H   UNL     1     -41.827  56.947 -56.471  1.00  0.00     0.127 HD
BRANCH  31  33
HETATM   33  C   UNL     1     -42.893  55.226 -56.990  1.00  0.00     0.094 C 
BRANCH  33  34
HETATM   34  C   UNL     1     -43.348  56.091 -58.169  1.00  0.00     0.042 C 
BRANCH  34  35
HETATM   35  C   UNL     1     -43.107  57.579 -57.923  1.00  0.00     0.235 C 
BRANCH  35  36
HETATM   36  N   UNL     1     -41.887  58.060 -58.695  1.00  0.00    -0.079 N 
HETATM   37  C   UNL     1     -41.761  59.558 -58.768  1.00  0.00     0.269 C 
HETATM   38  H   UNL     1     -41.052  57.704 -58.210  1.00  0.00     0.278 HD
HETATM   39  C   UNL     1     -41.843  57.454 -60.076  1.00  0.00     0.269 C 
ENDBRANCH  35  36
ENDBRANCH  34  35
ENDBRANCH  33  34
ENDBRANCH  31  33
ENDBRANCH   1  31
TORSDOF 7
ENDMDL
MODEL 9
REMARK VINA RESULT:      -8.3      2.231      5.955
REMARK  7 active torsions:
REMARK  status: ('A' for Active; 'I' for Inactive)
REMARK    1  A    between atoms: N_2  and  C_4 
REMARK    2  A    between atoms: C_4  and  C_5 
REMARK    3  A    between atoms: C_5  and  C_6 
REMARK    4  A    between atoms: C_6  and  N_7 
REMARK    5  A    between atoms: N_7  and  C_8 
REMARK    6  A    between atoms: C_23  and  N_24 
REMARK    7  A    between atoms: N_27  and  C_29 
ROOT
HETATM    1  C   UNL     1     -42.413  57.049 -52.404  1.00  0.00     0.025 A 
HETATM    2  C   UNL     1     -41.811  55.779 -52.504  1.00  0.00     0.052 A 
HETATM    3  C   UNL     1     -41.665  55.396 -53.814  1.00  0.00     0.050 A 
HETATM    4  C   UNL     1     -41.108  54.204 -54.121  1.00  0.00     0.126 A 
HETATM    5  C   UNL     1     -40.594  53.226 -53.197  1.00  0.00     0.015 A 
HETATM    6  C   UNL     1     -40.723  53.556 -51.821  1.00  0.00     0.028 A 
HETATM    7  C   UNL     1     -41.383  54.856 -51.424  1.00  0.00     0.196 A 
HETATM    8  O   UNL     1     -41.596  55.163 -50.255  1.00  0.00    -0.287 OA
HETATM    9  C   UNL     1     -39.987  52.031 -53.575  1.00  0.00     0.015 A 
HETATM   10  C   UNL     1     -39.507  51.166 -52.586  1.00  0.00     0.001 A 
HETATM   11  C   UNL     1     -39.635  51.491 -51.230  1.00  0.00     0.001 A 
HETATM   12  C   UNL     1     -40.244  52.686 -50.842  1.00  0.00     0.016 A 
HETATM   13  C   UNL     1     -41.996  56.062 -55.017  1.00  0.00     0.125 A 
HETATM   14  N   UNL     1     -41.678  55.226 -56.037  1.00  0.00    -0.125 NA
HETATM   15  O   UNL     1     -41.106  54.074 -55.468  1.00  0.00    -0.211 OA
HETATM   16  C   UNL     1     -42.571  57.368 -54.979  1.00  0.00     0.064 A 
HETATM   17  C   UNL     1     -42.734  57.804 -53.606  1.00  0.00     0.056 A 
ENDROOT
BRANCH  16  18
HETATM   18  N   UNL     1     -42.878  58.203 -56.059  1.00  0.00    -0.376 N 
HETATM   19  C   UNL     1     -43.816  59.317 -55.859  1.00  0.00     0.150 C 
HETATM   20  C   UNL     1     -45.264  58.894 -56.194  1.00  0.00     0.255 C 
HETATM   21  N   UNL     1     -45.378  58.319 -57.618  1.00  0.00    -0.064 N 
HETATM   22  H   UNL     1     -45.075  59.054 -58.269  1.00  0.00     0.280 HD
HETATM   23  C   UNL     1     -44.360  57.158 -57.778  1.00  0.00     0.255 C 
HETATM   24  C   UNL     1     -42.933  57.632 -57.420  1.00  0.00     0.150 C 
BRANCH  21  25
HETATM   25  C   UNL     1     -46.819  57.916 -57.982  1.00  0.00     0.188 C 
HETATM   26  C   UNL     1     -47.734  59.152 -58.082  1.00  0.00     0.033 C 
HETATM   27  C   UNL     1     -47.350  60.081 -59.235  1.00  0.00     0.002 C 
HETATM   28  C   UNL     1     -47.327  59.336 -60.568  1.00  0.00     0.000 C 
HETATM   29  C   UNL     1     -46.484  58.063 -60.512  1.00  0.00     0.002 C 
HETATM   30  C   UNL     1     -46.878  57.176 -59.330  1.00  0.00     0.033 C 
ENDBRANCH  21  25
ENDBRANCH  16  18
BRANCH   1  31
HETATM   31  N   UNL     1     -42.599  57.615 -51.113  1.00  0.00    -0.292 NA
HETATM   32  H   UNL     1     -43.247  56.987 -50.604  1.00  0.00     0.127 HD
BRANCH  31  33
HETATM   33  C   UNL     1     -43.010  59.013 -51.062  1.00  0.00     0.094 C 
BRANCH  33  34
HETATM   34  C   UNL     1     -41.779  59.923 -51.013  1.00  0.00     0.042 C 
BRANCH  34  35
HETATM   35  C   UNL     1     -40.734  59.431 -50.013  1.00  0.00     0.235 C 
BRANCH  35  36
HETATM   36  N   UNL     1     -39.487  58.945 -50.736  1.00  0.00    -0.079 N 
HETATM   37  C   UNL     1     -38.206  59.538 -50.213  1.00  0.00     0.269 C 
HETATM   38  H   UNL     1     -39.430  57.926 -50.605  1.00  0.00     0.278 HD
HETATM   39  C   UNL     1     -39.603  59.157 -52.225  1.00  0.00     0.269 C 
ENDBRANCH  35  36
ENDBRANCH  34  35
ENDBRANCH  33  34
ENDBRANCH  31  33
ENDBRANCH   1  31
TORSDOF 7
ENDMDL
MODEL 10
REMARK VINA RESULT:      -7.9      2.810      6.120
REMARK  7 active torsions:
REMARK  status: ('A' for Active; 'I' for Inactive)
REMARK    1  A    between atoms: N_2  and  C_4 
REMARK    2  A    between atoms: C_4  and  C_5 
REMARK    3  A    between atoms: C_5  and  C_6 
REMARK    4  A    between atoms: C_6  and  N_7 
REMARK    5  A    between atoms: N_7  and  C_8 
REMARK    6  A    between atoms: C_23  and  N_24 
REMARK    7  A    between atoms: N_27  and  C_29 
ROOT
HETATM    1  C   UNL     1     -42.040  58.368 -53.582  1.00  0.00     0.025 A 
HETATM    2  C   UNL     1     -41.765  57.172 -52.889  1.00  0.00     0.052 A 
HETATM    3  C   UNL     1     -42.129  56.073 -53.624  1.00  0.00     0.050 A 
HETATM    4  C   UNL     1     -41.948  54.828 -53.131  1.00  0.00     0.126 A 
HETATM    5  C   UNL     1     -41.366  54.478 -51.860  1.00  0.00     0.015 A 
HETATM    6  C   UNL     1     -40.976  55.572 -51.042  1.00  0.00     0.028 A 
HETATM    7  C   UNL     1     -41.202  56.985 -51.529  1.00  0.00     0.196 A 
HETATM    8  O   UNL     1     -40.961  57.971 -50.840  1.00  0.00    -0.287 OA
HETATM    9  C   UNL     1     -41.162  53.171 -51.422  1.00  0.00     0.015 A 
HETATM   10  C   UNL     1     -40.569  52.954 -50.175  1.00  0.00     0.001 A 
HETATM   11  C   UNL     1     -40.185  54.032 -49.369  1.00  0.00     0.001 A 
HETATM   12  C   UNL     1     -40.388  55.346 -49.799  1.00  0.00     0.016 A 
HETATM   13  C   UNL     1     -42.692  55.967 -54.917  1.00  0.00     0.125 A 
HETATM   14  N   UNL     1     -42.892  54.647 -55.159  1.00  0.00    -0.125 NA
HETATM   15  O   UNL     1     -42.406  53.941 -54.044  1.00  0.00    -0.211 OA
HETATM   16  C   UNL     1     -42.955  57.142 -55.684  1.00  0.00     0.064 A 
HETATM   17  C   UNL     1     -42.577  58.323 -54.934  1.00  0.00     0.056 A 
ENDROOT
BRANCH  16  18
HETATM   18  N   UNL     1     -43.423  57.222 -57.000  1.00  0.00    -0.376 N 
HETATM   19  C   UNL     1     -42.454  57.218 -58.106  1.00  0.00     0.150 C 
HETATM   20  C   UNL     1     -42.055  58.657 -58.503  1.00  0.00     0.255 C 
HETATM   21  N   UNL     1     -43.285  59.519 -58.844  1.00  0.00    -0.064 N 
HETATM   22  H   UNL     1     -43.766  59.066 -59.630  1.00  0.00     0.280 HD
HETATM   23  C   UNL     1     -44.277  59.478 -57.651  1.00  0.00     0.255 C 
HETATM   24  C   UNL     1     -44.633  58.018 -57.289  1.00  0.00     0.150 C 
BRANCH  21  25
HETATM   25  C   UNL     1     -42.907  60.950 -59.268  1.00  0.00     0.188 C 
HETATM   26  C   UNL     1     -41.730  60.942 -60.265  1.00  0.00     0.033 C 
HETATM   27  C   UNL     1     -42.089  60.286 -61.598  1.00  0.00     0.002 C 
HETATM   28  C   UNL     1     -43.311  60.945 -62.235  1.00  0.00     0.000 C 
HETATM   29  C   UNL     1     -44.493  61.038 -61.271  1.00  0.00     0.002 C 
HETATM   30  C   UNL     1     -44.088  61.673 -59.940  1.00  0.00     0.033 C 
ENDBRANCH  21  25
ENDBRANCH  16  18
BRANCH   1  31
HETATM   31  N   UNL     1     -41.683  59.604 -52.977  1.00  0.00    -0.292 NA
HETATM   32  H   UNL     1     -41.228  59.373 -52.076  1.00  0.00     0.127 HD
BRANCH  31  33
HETATM   33  C   UNL     1     -42.742  60.597 -52.837  1.00  0.00     0.094 C 
BRANCH  33  34
HETATM   34  C   UNL     1     -42.879  61.018 -51.371  1.00  0.00     0.042 C 
BRANCH  34  35
HETATM   35  C   UNL     1     -43.933  60.198 -50.630  1.00  0.00     0.235 C 
BRANCH  35  36
HETATM   36  N   UNL     1     -44.852  59.490 -51.614  1.00  0.00    -0.079 N 
HETATM   37  C   UNL     1     -46.213  60.119 -51.742  1.00  0.00     0.269 C 
HETATM   38  H   UNL     1     -44.406  59.531 -52.540  1.00  0.00     0.278 HD
HETATM   39  C   UNL     1     -44.974  58.022 -51.286  1.00  0.00     0.269 C 
ENDBRANCH  35  36
ENDBRANCH  34  35
ENDBRANCH  33  34
ENDBRANCH  31  33
ENDBRANCH   1  31
TORSDOF 7
ENDMDL
