MODEL 1
REMARK VINA RESULT:      -8.1      0.000      0.000
REMARK  6 active torsions:
REMARK  status: ('A' for Active; 'I' for Inactive)
REMARK    1  A    between atoms: C_9  and  C_10 
REMARK    2  A    between atoms: C_12  and  N_13 
REMARK    3  A    between atoms: N_13  and  C_14 
REMARK    4  A    between atoms: C_14  and  C_15 
REMARK    5  A    between atoms: C_15  and  C_16 
REMARK    6  A    between atoms: C_16  and  N_17 
ROOT
HETATM    1  C   UNL     1     -41.624  55.229 -54.662  1.00  0.00     0.071 A 
HETATM    2  N   UNL     1     -42.369  54.791 -55.712  1.00  0.00    -0.218 NA
HETATM    3  C   UNL     1     -42.916  55.742 -56.491  1.00  0.00     0.202 A 
HETATM    4  N   UNL     1     -42.759  57.052 -56.318  1.00  0.00    -0.231 NA
HETATM    5  C   UNL     1     -42.015  57.443 -55.267  1.00  0.00     0.122 A 
HETATM    6  C   UNL     1     -41.423  56.567 -54.393  1.00  0.00     0.052 A 
ENDROOT
BRANCH   1   7
HETATM    7  C   UNL     1     -41.057  54.166 -53.827  1.00  0.00    -0.006 A 
HETATM    8  C   UNL     1     -40.798  54.372 -52.465  1.00  0.00     0.014 A 
HETATM    9  C   UNL     1     -40.306  53.336 -51.666  1.00  0.00     0.013 A 
HETATM   10  C   UNL     1     -40.065  52.066 -52.207  1.00  0.00    -0.026 A 
HETATM   11  C   UNL     1     -39.581  51.016 -51.411  1.00  0.00     0.012 A 
HETATM   12  C   UNL     1     -40.305  51.842 -53.581  1.00  0.00    -0.025 A 
HETATM   13  C   UNL     1     -39.343  49.756 -51.963  1.00  0.00     0.001 A 
HETATM   14  C   UNL     1     -39.577  49.535 -53.317  1.00  0.00     0.001 A 
HETATM   15  C   UNL     1     -40.052  50.572 -54.123  1.00  0.00     0.012 A 
HETATM   16  C   UNL     1     -40.790  52.897 -54.372  1.00  0.00     0.026 A 
ENDBRANCH   1   7
BRANCH   3  17
HETATM   17  N   UNL     1     -43.687  55.352 -57.582  1.00  0.00    -0.261 NA
HETATM   18  H   UNL     1     -43.243  54.476 -57.871  1.00  0.00     0.130 HD
BRANCH  17  19
HETATM   19  C   UNL     1     -43.730  56.330 -58.656  1.00  0.00     0.097 C 
BRANCH  19  20
HETATM   20  C   UNL     1     -43.677  55.629 -60.014  1.00  0.00     0.042 C 
BRANCH  20  21
HETATM   21  C   UNL     1     -44.894  54.783 -60.368  1.00  0.00     0.230 C 
BRANCH  21  22
HETATM   22  N   UNL     1     -44.991  53.577 -59.520  1.00  0.00    -0.079 N 
HETATM   23  H   UNL     1     -44.033  53.260 -59.262  1.00  0.00     0.274 HD
HETATM   24  H   UNL     1     -45.514  53.716 -58.649  1.00  0.00     0.274 HD
HETATM   25  H   UNL     1     -45.414  52.789 -60.022  1.00  0.00     0.274 HD
ENDBRANCH  21  22
ENDBRANCH  20  21
ENDBRANCH  19  20
ENDBRANCH  17  19
ENDBRANCH   3  17
TORSDOF 6
ENDMDL
MODEL 2
REMARK VINA RESULT:      -7.8      2.806      4.794
REMARK  6 active torsions:
REMARK  status: ('A' for Active; 'I' for Inactive)
REMARK    1  A    between atoms: C_9  and  C_10 
REMARK    2  A    between atoms: C_12  and  N_13 
REMARK    3  A    between atoms: N_13  and  C_14 
REMARK    4  A    between atoms: C_14  and  C_15 
REMARK    5  A    between atoms: C_15  and  C_16 
REMARK    6  A    between atoms: C_16  and  N_17 
ROOT
HETATM    1  C   UNL     1     -41.263  55.820 -53.942  1.00  0.00     0.071 A 
HETATM    2  N   UNL     1     -40.868  56.939 -53.279  1.00  0.00    -0.218 NA
HETATM    3  C   UNL     1     -41.252  58.113 -53.814  1.00  0.00     0.202 A 
HETATM    4  N   UNL     1     -41.997  58.244 -54.908  1.00  0.00    -0.231 NA
HETATM    5  C   UNL     1     -42.366  57.111 -55.534  1.00  0.00     0.122 A 
HETATM    6  C   UNL     1     -42.019  55.859 -55.095  1.00  0.00     0.052 A 
ENDROOT
BRANCH   1   7
HETATM    7  C   UNL     1     -40.813  54.560 -53.341  1.00  0.00    -0.006 A 
HETATM    8  C   UNL     1     -40.604  54.448 -51.960  1.00  0.00     0.014 A 
HETATM    9  C   UNL     1     -40.225  53.228 -51.391  1.00  0.00     0.013 A 
HETATM   10  C   UNL     1     -40.051  52.089 -52.187  1.00  0.00    -0.026 A 
HETATM   11  C   UNL     1     -39.681  50.856 -51.625  1.00  0.00     0.012 A 
HETATM   12  C   UNL     1     -40.243  52.185 -53.584  1.00  0.00    -0.025 A 
HETATM   13  C   UNL     1     -39.510  49.730 -52.431  1.00  0.00     0.001 A 
HETATM   14  C   UNL     1     -39.696  49.823 -53.807  1.00  0.00     0.001 A 
HETATM   15  C   UNL     1     -40.058  51.044 -54.382  1.00  0.00     0.012 A 
HETATM   16  C   UNL     1     -40.614  53.420 -54.141  1.00  0.00     0.026 A 
ENDBRANCH   1   7
BRANCH   3  17
HETATM   17  N   UNL     1     -40.878  59.293 -53.176  1.00  0.00    -0.261 NA
HETATM   18  H   UNL     1     -40.376  58.954 -52.350  1.00  0.00     0.130 HD
BRANCH  17  19
HETATM   19  C   UNL     1     -41.994  60.157 -52.829  1.00  0.00     0.097 C 
BRANCH  19  20
HETATM   20  C   UNL     1     -42.328  60.019 -51.343  1.00  0.00     0.042 C 
BRANCH  20  21
HETATM   21  C   UNL     1     -41.196  59.516 -50.456  1.00  0.00     0.230 C 
BRANCH  21  22
HETATM   22  N   UNL     1     -41.288  58.061 -50.219  1.00  0.00    -0.079 N 
HETATM   23  H   UNL     1     -40.575  57.572 -50.801  1.00  0.00     0.274 HD
HETATM   24  H   UNL     1     -41.133  57.782 -49.245  1.00  0.00     0.274 HD
HETATM   25  H   UNL     1     -42.192  57.680 -50.518  1.00  0.00     0.274 HD
ENDBRANCH  21  22
ENDBRANCH  20  21
ENDBRANCH  19  20
ENDBRANCH  17  19
ENDBRANCH   3  17
TORSDOF 6
ENDMDL
MODEL 3
REMARK VINA RESULT:      -7.6      2.303      3.338
REMARK  6 active torsions:
REMARK  status: ('A' for Active; 'I' for Inactive)
REMARK    1  A    between atoms: C_9  and  C_10 
REMARK    2  A    between atoms: C_12  and  N_13 
REMARK    3  A    between atoms: N_13  and  C_14 
REMARK    4  A    between atoms: C_14  and  C_15 
REMARK    5  A    between atoms: C_15  and  C_16 
REMARK    6  A    between atoms: C_16  and  N_17 
ROOT
HETATM    1  C   UNL     1     -41.706  55.794 -51.818  1.00  0.00     0.071 A 
HETATM    2  N   UNL     1     -42.891  55.900 -52.476  1.00  0.00    -0.218 NA
HETATM    3  C   UNL     1     -43.496  57.101 -52.420  1.00  0.00     0.202 A 
HETATM    4  N   UNL     1     -43.010  58.171 -51.797  1.00  0.00    -0.231 NA
HETATM    5  C   UNL     1     -41.835  58.023 -51.157  1.00  0.00     0.122 A 
HETATM    6  C   UNL     1     -41.135  56.844 -51.129  1.00  0.00     0.052 A 
ENDROOT
BRANCH   1   7
HETATM    7  C   UNL     1     -41.082  54.469 -51.888  1.00  0.00    -0.006 A 
HETATM    8  C   UNL     1     -40.527  53.866 -50.750  1.00  0.00     0.014 A 
HETATM    9  C   UNL     1     -39.982  52.581 -50.817  1.00  0.00     0.013 A 
HETATM   10  C   UNL     1     -39.981  51.863 -52.020  1.00  0.00    -0.026 A 
HETATM   11  C   UNL     1     -39.446  50.567 -52.096  1.00  0.00     0.012 A 
HETATM   12  C   UNL     1     -40.523  52.459 -53.181  1.00  0.00    -0.025 A 
HETATM   13  C   UNL     1     -39.451  49.865 -53.301  1.00  0.00     0.001 A 
HETATM   14  C   UNL     1     -39.982  50.451 -54.446  1.00  0.00     0.001 A 
HETATM   15  C   UNL     1     -40.512  51.742 -54.389  1.00  0.00     0.012 A 
HETATM   16  C   UNL     1     -41.058  53.755 -53.100  1.00  0.00     0.026 A 
ENDBRANCH   1   7
BRANCH   3  17
HETATM   17  N   UNL     1     -44.712  57.269 -53.078  1.00  0.00    -0.261 NA
HETATM   18  H   UNL     1     -44.835  56.372 -53.557  1.00  0.00     0.130 HD
BRANCH  17  19
HETATM   19  C   UNL     1     -44.737  58.395 -53.996  1.00  0.00     0.097 C 
BRANCH  19  20
HETATM   20  C   UNL     1     -44.991  57.910 -55.423  1.00  0.00     0.042 C 
BRANCH  20  21
HETATM   21  C   UNL     1     -43.802  57.260 -56.121  1.00  0.00     0.230 C 
BRANCH  21  22
HETATM   22  N   UNL     1     -43.621  55.854 -55.705  1.00  0.00    -0.079 N 
HETATM   23  H   UNL     1     -44.197  55.238 -56.318  1.00  0.00     0.274 HD
HETATM   24  H   UNL     1     -42.654  55.521 -55.757  1.00  0.00     0.274 HD
HETATM   25  H   UNL     1     -43.964  55.689 -54.753  1.00  0.00     0.274 HD
ENDBRANCH  21  22
ENDBRANCH  20  21
ENDBRANCH  19  20
ENDBRANCH  17  19
ENDBRANCH   3  17
TORSDOF 6
ENDMDL
MODEL 4
REMARK VINA RESULT:      -7.6      2.916      5.453
REMARK  6 active torsions:
REMARK  status: ('A' for Active; 'I' for Inactive)
REMARK    1  A    between atoms: C_9  and  C_10 
REMARK    2  A    between atoms: C_12  and  N_13 
REMARK    3  A    between atoms: N_13  and  C_14 
REMARK    4  A    between atoms: C_14  and  C_15 
REMARK    5  A    between atoms: C_15  and  C_16 
REMARK    6  A    between atoms: C_16  and  N_17 
ROOT
HETATM    1  C   UNL     1     -41.267  55.994 -54.305  1.00  0.00     0.071 A 
HETATM    2  N   UNL     1     -40.715  56.981 -53.550  1.00  0.00    -0.218 NA
HETATM    3  C   UNL     1     -41.055  58.241 -53.879  1.00  0.00     0.202 A 
HETATM    4  N   UNL     1     -41.894  58.573 -54.857  1.00  0.00    -0.231 NA
HETATM    5  C   UNL     1     -42.417  57.566 -55.580  1.00  0.00     0.122 A 
HETATM    6  C   UNL     1     -42.130  56.244 -55.351  1.00  0.00     0.052 A 
ENDROOT
BRANCH   1   7
HETATM    7  C   UNL     1     -40.862  54.635 -53.929  1.00  0.00    -0.006 A 
HETATM    8  C   UNL     1     -40.383  53.728 -54.884  1.00  0.00     0.014 A 
HETATM    9  C   UNL     1     -39.952  52.454 -54.506  1.00  0.00     0.013 A 
HETATM   10  C   UNL     1     -39.984  52.054 -53.163  1.00  0.00    -0.026 A 
HETATM   11  C   UNL     1     -39.543  50.780 -52.772  1.00  0.00     0.012 A 
HETATM   12  C   UNL     1     -40.478  52.948 -52.187  1.00  0.00    -0.025 A 
HETATM   13  C   UNL     1     -39.583  50.395 -51.431  1.00  0.00     0.001 A 
HETATM   14  C   UNL     1     -40.071  51.273 -50.468  1.00  0.00     0.001 A 
HETATM   15  C   UNL     1     -40.519  52.542 -50.844  1.00  0.00     0.012 A 
HETATM   16  C   UNL     1     -40.916  54.222 -52.585  1.00  0.00     0.026 A 
ENDBRANCH   1   7
BRANCH   3  17
HETATM   17  N   UNL     1     -40.522  59.292 -53.138  1.00  0.00    -0.261 NA
HETATM   18  H   UNL     1     -39.548  59.006 -53.006  1.00  0.00     0.130 HD
BRANCH  17  19
HETATM   19  C   UNL     1     -41.204  59.532 -51.877  1.00  0.00     0.097 C 
BRANCH  19  20
HETATM   20  C   UNL     1     -40.366  59.002 -50.713  1.00  0.00     0.042 C 
BRANCH  20  21
HETATM   21  C   UNL     1     -39.183  59.871 -50.303  1.00  0.00     0.230 C 
BRANCH  21  22
HETATM   22  N   UNL     1     -37.926  59.422 -50.935  1.00  0.00    -0.079 N 
HETATM   23  H   UNL     1     -37.142  59.532 -50.257  1.00  0.00     0.274 HD
HETATM   24  H   UNL     1     -37.933  58.443 -51.238  1.00  0.00     0.274 HD
HETATM   25  H   UNL     1     -37.673  60.002 -51.742  1.00  0.00     0.274 HD
ENDBRANCH  21  22
ENDBRANCH  20  21
ENDBRANCH  19  20
ENDBRANCH  17  19
ENDBRANCH   3  17
TORSDOF 6
ENDMDL
MODEL 5
REMARK VINA RESULT:      -7.5      0.985      1.806
REMARK  6 active torsions:
REMARK  status: ('A' for Active; 'I' for Inactive)
REMARK    1  A    between atoms: C_9  and  C_10 
REMARK    2  A    between atoms: C_12  and  N_13 
REMARK    3  A    between atoms: N_13  and  C_14 
REMARK    4  A    between atoms: C_14  and  C_15 
REMARK    5  A    between atoms: C_15  and  C_16 
REMARK    6  A    between atoms: C_16  and  N_17 
ROOT
HETATM    1  C   UNL     1     -41.283  55.596 -54.353  1.00  0.00     0.071 A 
HETATM    2  N   UNL     1     -41.728  55.609 -55.638  1.00  0.00    -0.218 NA
HETATM    3  C   UNL     1     -42.132  56.801 -56.114  1.00  0.00     0.202 A 
HETATM    4  N   UNL     1     -42.102  57.944 -55.433  1.00  0.00    -0.231 NA
HETATM    5  C   UNL     1     -41.655  57.886 -54.165  1.00  0.00     0.122 A 
HETATM    6  C   UNL     1     -41.236  56.726 -53.565  1.00  0.00     0.052 A 
ENDROOT
BRANCH   1   7
HETATM    7  C   UNL     1     -40.866  54.278 -53.862  1.00  0.00    -0.006 A 
HETATM    8  C   UNL     1     -40.322  53.319 -54.727  1.00  0.00     0.014 A 
HETATM    9  C   UNL     1     -39.880  52.086 -54.240  1.00  0.00     0.013 A 
HETATM   10  C   UNL     1     -39.966  51.781 -52.875  1.00  0.00    -0.026 A 
HETATM   11  C   UNL     1     -39.515  50.550 -52.373  1.00  0.00     0.012 A 
HETATM   12  C   UNL     1     -40.525  52.729 -51.989  1.00  0.00    -0.025 A 
HETATM   13  C   UNL     1     -39.609  50.260 -51.011  1.00  0.00     0.001 A 
HETATM   14  C   UNL     1     -40.162  51.191 -50.137  1.00  0.00     0.001 A 
HETATM   15  C   UNL     1     -40.621  52.418 -50.622  1.00  0.00     0.012 A 
HETATM   16  C   UNL     1     -40.974  53.960 -52.496  1.00  0.00     0.026 A 
ENDBRANCH   1   7
BRANCH   3  17
HETATM   17  N   UNL     1     -42.595  56.876 -57.425  1.00  0.00    -0.261 NA
HETATM   18  H   UNL     1     -43.301  57.616 -57.375  1.00  0.00     0.130 HD
BRANCH  17  19
HETATM   19  C   UNL     1     -43.138  55.626 -57.932  1.00  0.00     0.097 C 
BRANCH  19  20
HETATM   20  C   UNL     1     -43.343  55.713 -59.445  1.00  0.00     0.042 C 
BRANCH  20  21
HETATM   21  C   UNL     1     -44.654  55.138 -59.968  1.00  0.00     0.230 C 
BRANCH  21  22
HETATM   22  N   UNL     1     -44.724  53.674 -59.786  1.00  0.00    -0.079 N 
HETATM   23  H   UNL     1     -45.119  53.463 -58.845  1.00  0.00     0.274 HD
HETATM   24  H   UNL     1     -45.305  53.191 -60.478  1.00  0.00     0.274 HD
HETATM   25  H   UNL     1     -43.794  53.242 -59.795  1.00  0.00     0.274 HD
ENDBRANCH  21  22
ENDBRANCH  20  21
ENDBRANCH  19  20
ENDBRANCH  17  19
ENDBRANCH   3  17
TORSDOF 6
ENDMDL
MODEL 6
REMARK VINA RESULT:      -7.3      2.210      3.610
REMARK  6 active torsions:
REMARK  status: ('A' for Active; 'I' for Inactive)
REMARK    1  A    between atoms: C_9  and  C_10 
REMARK    2  A    between atoms: C_12  and  N_13 
REMARK    3  A    between atoms: N_13  and  C_14 
REMARK    4  A    between atoms: C_14  and  C_15 
REMARK    5  A    between atoms: C_15  and  C_16 
REMARK    6  A    between atoms: C_16  and  N_17 
ROOT
HETATM    1  C   UNL     1     -41.341  56.009 -52.195  1.00  0.00     0.071 A 
HETATM    2  N   UNL     1     -42.052  56.758 -53.079  1.00  0.00    -0.218 NA
HETATM    3  C   UNL     1     -42.389  57.996 -52.672  1.00  0.00     0.202 A 
HETATM    4  N   UNL     1     -42.059  58.529 -51.499  1.00  0.00    -0.231 NA
HETATM    5  C   UNL     1     -41.355  57.753 -50.653  1.00  0.00     0.122 A 
HETATM    6  C   UNL     1     -40.971  56.470 -50.949  1.00  0.00     0.052 A 
ENDROOT
BRANCH   1   7
HETATM    7  C   UNL     1     -41.005  54.661 -52.665  1.00  0.00    -0.006 A 
HETATM    8  C   UNL     1     -41.017  54.343 -54.030  1.00  0.00     0.014 A 
HETATM    9  C   UNL     1     -40.645  53.070 -54.470  1.00  0.00     0.013 A 
HETATM   10  C   UNL     1     -40.246  52.083 -53.558  1.00  0.00    -0.026 A 
HETATM   11  C   UNL     1     -39.860  50.805 -53.991  1.00  0.00     0.012 A 
HETATM   12  C   UNL     1     -40.241  52.379 -52.177  1.00  0.00    -0.025 A 
HETATM   13  C   UNL     1     -39.466  49.832 -53.071  1.00  0.00     0.001 A 
HETATM   14  C   UNL     1     -39.463  50.121 -51.710  1.00  0.00     0.001 A 
HETATM   15  C   UNL     1     -39.851  51.386 -51.264  1.00  0.00     0.012 A 
HETATM   16  C   UNL     1     -40.627  53.661 -51.750  1.00  0.00     0.026 A 
ENDBRANCH   1   7
BRANCH   3  17
HETATM   17  N   UNL     1     -43.116  58.810 -53.537  1.00  0.00    -0.261 NA
HETATM   18  H   UNL     1     -43.206  59.681 -53.007  1.00  0.00     0.130 HD
BRANCH  17  19
HETATM   19  C   UNL     1     -44.405  58.260 -53.923  1.00  0.00     0.097 C 
BRANCH  19  20
HETATM   20  C   UNL     1     -44.653  58.489 -55.414  1.00  0.00     0.042 C 
BRANCH  20  21
HETATM   21  C   UNL     1     -44.007  57.478 -56.353  1.00  0.00     0.230 C 
BRANCH  21  22
HETATM   22  N   UNL     1     -43.770  56.181 -55.687  1.00  0.00    -0.079 N 
HETATM   23  H   UNL     1     -44.578  55.960 -55.067  1.00  0.00     0.274 HD
HETATM   24  H   UNL     1     -43.652  55.392 -56.331  1.00  0.00     0.274 HD
HETATM   25  H   UNL     1     -42.952  56.211 -55.069  1.00  0.00     0.274 HD
ENDBRANCH  21  22
ENDBRANCH  20  21
ENDBRANCH  19  20
ENDBRANCH  17  19
ENDBRANCH   3  17
TORSDOF 6
ENDMDL
MODEL 7
REMARK VINA RESULT:      -7.1      3.583      4.790
REMARK  6 active torsions:
REMARK  status: ('A' for Active; 'I' for Inactive)
REMARK    1  A    between atoms: C_9  and  C_10 
REMARK    2  A    between atoms: C_12  and  N_13 
REMARK    3  A    between atoms: N_13  and  C_14 
REMARK    4  A    between atoms: C_14  and  C_15 
REMARK    5  A    between atoms: C_15  and  C_16 
REMARK    6  A    between atoms: C_16  and  N_17 
ROOT
HETATM    1  C   UNL     1     -41.279  55.715 -52.097  1.00  0.00     0.071 A 
HETATM    2  N   UNL     1     -41.927  56.506 -52.993  1.00  0.00    -0.218 NA
HETATM    3  C   UNL     1     -42.272  57.733 -52.561  1.00  0.00     0.202 A 
HETATM    4  N   UNL     1     -42.006  58.218 -51.351  1.00  0.00    -0.231 NA
HETATM    5  C   UNL     1     -41.365  57.401 -50.495  1.00  0.00     0.122 A 
HETATM    6  C   UNL     1     -40.980  56.124 -50.815  1.00  0.00     0.052 A 
ENDROOT
BRANCH   1   7
HETATM    7  C   UNL     1     -40.932  54.380 -52.596  1.00  0.00    -0.006 A 
HETATM    8  C   UNL     1     -40.916  54.099 -53.969  1.00  0.00     0.014 A 
HETATM    9  C   UNL     1     -40.534  52.838 -54.436  1.00  0.00     0.013 A 
HETATM   10  C   UNL     1     -40.152  51.828 -53.543  1.00  0.00    -0.026 A 
HETATM   11  C   UNL     1     -39.756  50.562 -54.002  1.00  0.00     0.012 A 
HETATM   12  C   UNL     1     -40.176  52.087 -52.155  1.00  0.00    -0.025 A 
HETATM   13  C   UNL     1     -39.381  49.564 -53.101  1.00  0.00     0.001 A 
HETATM   14  C   UNL     1     -39.406  49.816 -51.733  1.00  0.00     0.001 A 
HETATM   15  C   UNL     1     -39.804  51.069 -51.261  1.00  0.00     0.012 A 
HETATM   16  C   UNL     1     -40.572  53.356 -51.701  1.00  0.00     0.026 A 
ENDBRANCH   1   7
BRANCH   3  17
HETATM   17  N   UNL     1     -42.935  58.588 -53.437  1.00  0.00    -0.261 NA
HETATM   18  H   UNL     1     -42.779  59.509 -53.017  1.00  0.00     0.130 HD
BRANCH  17  19
HETATM   19  C   UNL     1     -44.347  58.287 -53.602  1.00  0.00     0.097 C 
BRANCH  19  20
HETATM   20  C   UNL     1     -45.196  59.490 -53.189  1.00  0.00     0.042 C 
BRANCH  20  21
HETATM   21  C   UNL     1     -45.387  59.678 -51.688  1.00  0.00     0.230 C 
BRANCH  21  22
HETATM   22  N   UNL     1     -44.213  60.318 -51.060  1.00  0.00    -0.079 N 
HETATM   23  H   UNL     1     -44.320  61.353 -51.108  1.00  0.00     0.274 HD
HETATM   24  H   UNL     1     -44.074  60.069 -50.076  1.00  0.00     0.274 HD
HETATM   25  H   UNL     1     -43.346  60.109 -51.567  1.00  0.00     0.274 HD
ENDBRANCH  21  22
ENDBRANCH  20  21
ENDBRANCH  19  20
ENDBRANCH  17  19
ENDBRANCH   3  17
TORSDOF 6
ENDMDL
MODEL 8
REMARK VINA RESULT:      -6.9      1.966      3.789
REMARK  6 active torsions:
REMARK  status: ('A' for Active; 'I' for Inactive)
REMARK    1  A    between atoms: C_9  and  C_10 
REMARK    2  A    between atoms: C_12  and  N_13 
REMARK    3  A    between atoms: N_13  and  C_14 
REMARK    4  A    between atoms: C_14  and  C_15 
REMARK    5  A    between atoms: C_15  and  C_16 
REMARK    6  A    between atoms: C_16  and  N_17 
ROOT
HETATM    1  C   UNL     1     -41.707  55.370 -54.898  1.00  0.00     0.071 A 
HETATM    2  N   UNL     1     -41.634  56.623 -54.375  1.00  0.00    -0.218 NA
HETATM    3  C   UNL     1     -42.140  57.613 -55.132  1.00  0.00     0.202 A 
HETATM    4  N   UNL     1     -42.716  57.446 -56.320  1.00  0.00    -0.231 NA
HETATM    5  C   UNL     1     -42.767  56.190 -56.802  1.00  0.00     0.122 A 
HETATM    6  C   UNL     1     -42.267  55.104 -56.129  1.00  0.00     0.052 A 
ENDROOT
BRANCH   1   7
HETATM    7  C   UNL     1     -41.132  54.318 -54.053  1.00  0.00    -0.006 A 
HETATM    8  C   UNL     1     -40.859  54.543 -52.697  1.00  0.00     0.014 A 
HETATM    9  C   UNL     1     -40.359  53.518 -51.889  1.00  0.00     0.013 A 
HETATM   10  C   UNL     1     -40.125  52.240 -52.413  1.00  0.00    -0.026 A 
HETATM   11  C   UNL     1     -39.634  51.201 -51.608  1.00  0.00     0.012 A 
HETATM   12  C   UNL     1     -40.380  51.997 -53.781  1.00  0.00    -0.025 A 
HETATM   13  C   UNL     1     -39.403  49.934 -52.145  1.00  0.00     0.001 A 
HETATM   14  C   UNL     1     -39.651  49.693 -53.492  1.00  0.00     0.001 A 
HETATM   15  C   UNL     1     -40.134  50.719 -54.308  1.00  0.00     0.012 A 
HETATM   16  C   UNL     1     -40.872  53.041 -54.582  1.00  0.00     0.026 A 
ENDBRANCH   1   7
BRANCH   3  17
HETATM   17  N   UNL     1     -42.095  58.917 -54.646  1.00  0.00    -0.261 NA
HETATM   18  H   UNL     1     -41.115  59.022 -54.370  1.00  0.00     0.130 HD
BRANCH  17  19
HETATM   19  C   UNL     1     -43.011  59.170 -53.546  1.00  0.00     0.097 C 
BRANCH  19  20
HETATM   20  C   UNL     1     -44.118  60.127 -53.988  1.00  0.00     0.042 C 
BRANCH  20  21
HETATM   21  C   UNL     1     -43.799  60.989 -55.204  1.00  0.00     0.230 C 
BRANCH  21  22
HETATM   22  N   UNL     1     -42.739  61.976 -54.915  1.00  0.00    -0.079 N 
HETATM   23  H   UNL     1     -42.955  62.867 -55.412  1.00  0.00     0.274 HD
HETATM   24  H   UNL     1     -42.630  62.198 -53.921  1.00  0.00     0.274 HD
HETATM   25  H   UNL     1     -41.827  61.677 -55.276  1.00  0.00     0.274 HD
ENDBRANCH  21  22
ENDBRANCH  20  21
ENDBRANCH  19  20
ENDBRANCH  17  19
ENDBRANCH   3  17
TORSDOF 6
ENDMDL
MODEL 9
REMARK VINA RESULT:      -6.7      1.971      3.043
REMARK  6 active torsions:
REMARK  status: ('A' for Active; 'I' for Inactive)
REMARK    1  A    between atoms: C_9  and  C_10 
REMARK    2  A    between atoms: C_12  and  N_13 
REMARK    3  A    between atoms: N_13  and  C_14 
REMARK    4  A    between atoms: C_14  and  C_15 
REMARK    5  A    between atoms: C_15  and  C_16 
REMARK    6  A    between atoms: C_16  and  N_17 
ROOT
HETATM    1  C   UNL     1     -42.989  55.998 -54.780  1.00  0.00     0.071 A 
HETATM    2  N   UNL     1     -42.439  55.896 -56.020  1.00  0.00    -0.218 NA
HETATM    3  C   UNL     1     -43.043  56.597 -56.997  1.00  0.00     0.202 A 
HETATM    4  N   UNL     1     -44.104  57.383 -56.828  1.00  0.00    -0.231 NA
HETATM    5  C   UNL     1     -44.617  57.454 -55.586  1.00  0.00     0.122 A 
HETATM    6  C   UNL     1     -44.100  56.770 -54.515  1.00  0.00     0.052 A 
ENDROOT
BRANCH   1   7
HETATM    7  C   UNL     1     -42.315  55.209 -53.744  1.00  0.00    -0.006 A 
HETATM    8  C   UNL     1     -41.660  54.009 -54.054  1.00  0.00     0.014 A 
HETATM    9  C   UNL     1     -40.977  53.293 -53.068  1.00  0.00     0.013 A 
HETATM   10  C   UNL     1     -40.926  53.759 -51.747  1.00  0.00    -0.026 A 
HETATM   11  C   UNL     1     -40.233  53.052 -50.751  1.00  0.00     0.012 A 
HETATM   12  C   UNL     1     -41.592  54.958 -51.411  1.00  0.00    -0.025 A 
HETATM   13  C   UNL     1     -40.193  53.527 -49.440  1.00  0.00     0.001 A 
HETATM   14  C   UNL     1     -40.850  54.707 -49.107  1.00  0.00     0.001 A 
HETATM   15  C   UNL     1     -41.549  55.418 -50.085  1.00  0.00     0.012 A 
HETATM   16  C   UNL     1     -42.283  55.662 -52.412  1.00  0.00     0.026 A 
ENDBRANCH   1   7
BRANCH   3  17
HETATM   17  N   UNL     1     -42.521  56.534 -58.286  1.00  0.00    -0.261 NA
HETATM   18  H   UNL     1     -42.630  57.494 -58.623  1.00  0.00     0.130 HD
BRANCH  17  19
HETATM   19  C   UNL     1     -43.184  55.567 -59.146  1.00  0.00     0.097 C 
BRANCH  19  20
HETATM   20  C   UNL     1     -44.039  56.287 -60.190  1.00  0.00     0.042 C 
BRANCH  20  21
HETATM   21  C   UNL     1     -45.506  55.878 -60.237  1.00  0.00     0.230 C 
BRANCH  21  22
HETATM   22  N   UNL     1     -46.284  56.488 -59.139  1.00  0.00    -0.079 N 
HETATM   23  H   UNL     1     -47.201  56.001 -59.056  1.00  0.00     0.274 HD
HETATM   24  H   UNL     1     -45.827  56.440 -58.223  1.00  0.00     0.274 HD
HETATM   25  H   UNL     1     -46.511  57.469 -59.330  1.00  0.00     0.274 HD
ENDBRANCH  21  22
ENDBRANCH  20  21
ENDBRANCH  19  20
ENDBRANCH  17  19
ENDBRANCH   3  17
TORSDOF 6
ENDMDL
MODEL 10
REMARK VINA RESULT:      -6.6      1.651      2.123
REMARK  6 active torsions:
REMARK  status: ('A' for Active; 'I' for Inactive)
REMARK    1  A    between atoms: C_9  and  C_10 
REMARK    2  A    between atoms: C_12  and  N_13 
REMARK    3  A    between atoms: N_13  and  C_14 
REMARK    4  A    between atoms: C_14  and  C_15 
REMARK    5  A    between atoms: C_15  and  C_16 
REMARK    6  A    between atoms: C_16  and  N_17 
ROOT
HETATM    1  C   UNL     1     -41.662  57.187 -54.587  1.00  0.00     0.071 A 
HETATM    2  N   UNL     1     -42.187  56.917 -55.812  1.00  0.00    -0.218 NA
HETATM    3  C   UNL     1     -42.586  57.980 -56.535  1.00  0.00     0.202 A 
HETATM    4  N   UNL     1     -42.480  59.248 -56.147  1.00  0.00    -0.231 NA
HETATM    5  C   UNL     1     -41.956  59.472 -54.928  1.00  0.00     0.122 A 
HETATM    6  C   UNL     1     -41.532  58.469 -54.094  1.00  0.00     0.052 A 
ENDROOT
BRANCH   1   7
HETATM    7  C   UNL     1     -41.252  56.006 -53.821  1.00  0.00    -0.006 A 
HETATM    8  C   UNL     1     -41.333  55.983 -52.422  1.00  0.00     0.014 A 
HETATM    9  C   UNL     1     -40.989  54.833 -51.706  1.00  0.00     0.013 A 
HETATM   10  C   UNL     1     -40.560  53.676 -52.369  1.00  0.00    -0.026 A 
HETATM   11  C   UNL     1     -40.222  52.512 -51.659  1.00  0.00     0.012 A 
HETATM   12  C   UNL     1     -40.457  53.684 -53.778  1.00  0.00    -0.025 A 
HETATM   13  C   UNL     1     -39.794  51.368 -52.333  1.00  0.00     0.001 A 
HETATM   14  C   UNL     1     -39.690  51.374 -53.720  1.00  0.00     0.001 A 
HETATM   15  C   UNL     1     -40.016  52.526 -54.440  1.00  0.00     0.012 A 
HETATM   16  C   UNL     1     -40.797  54.850 -54.482  1.00  0.00     0.026 A 
ENDBRANCH   1   7
BRANCH   3  17
HETATM   17  N   UNL     1     -43.129  57.763 -57.799  1.00  0.00    -0.261 NA
HETATM   18  H   UNL     1     -42.670  58.479 -58.368  1.00  0.00     0.130 HD
BRANCH  17  19
HETATM   19  C   UNL     1     -44.578  57.864 -57.844  1.00  0.00     0.097 C 
BRANCH  19  20
HETATM   20  C   UNL     1     -45.107  57.295 -59.162  1.00  0.00     0.042 C 
BRANCH  20  21
HETATM   21  C   UNL     1     -46.624  57.269 -59.308  1.00  0.00     0.230 C 
BRANCH  21  22
HETATM   22  N   UNL     1     -47.110  55.952 -59.765  1.00  0.00    -0.079 N 
HETATM   23  H   UNL     1     -46.747  55.211 -59.128  1.00  0.00     0.274 HD
HETATM   24  H   UNL     1     -48.131  55.864 -59.787  1.00  0.00     0.274 HD
HETATM   25  H   UNL     1     -46.751  55.712 -60.695  1.00  0.00     0.274 HD
ENDBRANCH  21  22
ENDBRANCH  20  21
ENDBRANCH  19  20
ENDBRANCH  17  19
ENDBRANCH   3  17
TORSDOF 6
ENDMDL
