MODEL 1
REMARK VINA RESULT:      -8.2      0.000      0.000
REMARK  9 active torsions:
REMARK  status: ('A' for Active; 'I' for Inactive)
REMARK    1  A    between atoms: O_2  and  C_3 
REMARK    2  A    between atoms: C_6  and  C_7 
REMARK    3  A    between atoms: C_13  and  C_14 
REMARK       I    between atoms: C_14  and  N_15 
REMARK    4  A    between atoms: N_15  and  N_16 
REMARK    5  A    between atoms: N_16  and  C_17 
REMARK    6  A    between atoms: C_17  and  N_18 
REMARK    7  A    between atoms: N_18  and  C_19 
REMARK    8  A    between atoms: C_19  and  C_20 
REMARK    9  A    between atoms: C_27  and  C_28 
ROOT
HETATM    1  C   UNL     1     -42.591  54.460 -54.202  1.00  0.00     0.118 C 
HETATM    2  N   UNL     1     -42.754  55.637 -53.350  1.00  0.00    -0.365 N 
HETATM    3  C   UNL     1     -43.635  56.586 -53.767  1.00  0.00     0.138 A 
HETATM    4  N   UNL     1     -43.933  56.703 -55.107  1.00  0.00    -0.240 N 
HETATM    5  N   UNL     1     -44.932  57.561 -55.360  1.00  0.00    -0.181 NA
HETATM    6  C   UNL     1     -45.167  58.113 -54.169  1.00  0.00     0.160 A 
HETATM    7  C   UNL     1     -44.396  57.543 -53.122  1.00  0.00     0.098 A 
HETATM    8  C   UNL     1     -43.395  55.849 -56.154  1.00  0.00     0.221 C 
HETATM    9  C   UNL     1     -42.262  54.951 -55.620  1.00  0.00     0.066 C 
HETATM   10  H   UNL     1     -42.660  55.462 -52.346  1.00  0.00     0.161 HD
ENDROOT
BRANCH   7  11
HETATM   11  C   UNL     1     -44.408  57.886 -51.711  1.00  0.00     0.275 C 
HETATM   12  N   UNL     1     -45.316  58.884 -51.388  1.00  0.00    -0.263 N 
HETATM   13  H   UNL     1     -46.109  59.085 -51.991  1.00  0.00     0.190 HD
HETATM   14  O   UNL     1     -43.677  57.363 -50.874  1.00  0.00    -0.266 OA
BRANCH  12  15
HETATM   15  N   UNL     1     -45.428  59.323 -50.059  1.00  0.00    -0.274 N 
HETATM   16  H   UNL     1     -46.243  58.954 -49.567  1.00  0.00     0.189 HD
BRANCH  15  17
HETATM   17  C   UNL     1     -45.045  60.597 -49.712  1.00  0.00     0.186 C 
HETATM   18  S   UNL     1     -46.046  61.936 -49.669  1.00  0.00    -0.040 SA
BRANCH  17  19
HETATM   19  N   UNL     1     -43.716  60.763 -49.449  1.00  0.00    -0.360 N 
HETATM   20  H   UNL     1     -43.493  60.864 -48.467  1.00  0.00     0.162 HD
BRANCH  19  21
HETATM   21  C   UNL     1     -42.732  61.300 -50.376  1.00  0.00     0.187 C 
BRANCH  21  22
HETATM   22  C   UNL     1     -41.746  60.262 -50.748  1.00  0.00     0.070 A 
HETATM   23  O   UNL     1     -41.666  59.938 -52.071  1.00  0.00    -0.325 OA
HETATM   24  C   UNL     1     -40.739  58.952 -52.182  1.00  0.00     0.142 A 
HETATM   25  C   UNL     1     -40.225  58.633 -50.948  1.00  0.00     0.027 A 
HETATM   26  C   UNL     1     -40.877  59.477 -50.018  1.00  0.00     0.036 A 
ENDBRANCH  21  22
ENDBRANCH  19  21
ENDBRANCH  17  19
ENDBRANCH  15  17
ENDBRANCH  12  15
ENDBRANCH   7  11
BRANCH   1  27
HETATM   27  C   UNL     1     -41.553  53.510 -53.640  1.00  0.00    -0.035 A 
HETATM   28  C   UNL     1     -41.143  53.651 -52.305  1.00  0.00     0.012 A 
HETATM   29  C   UNL     1     -40.259  52.736 -51.728  1.00  0.00     0.037 A 
HETATM   30  C   UNL     1     -39.770  51.660 -52.467  1.00  0.00     0.068 A 
HETATM   31  C   UNL     1     -40.118  51.543 -53.812  1.00  0.00     0.037 A 
HETATM   32  C   UNL     1     -40.996  52.467 -54.396  1.00  0.00     0.012 A 
BRANCH  30  33
HETATM   33  O   UNL     1     -38.948  50.809 -51.783  1.00  0.00    -0.356 OA
HETATM   34  C   UNL     1     -39.597  49.891 -50.910  1.00  0.00     0.210 C 
ENDBRANCH  30  33
ENDBRANCH   1  27
BRANCH   8  35
HETATM   35  C   UNL     1     -42.885  56.669 -57.319  1.00  0.00     0.409 C 
HETATM   36  F   UNL     1     -42.247  55.915 -58.243  1.00  0.00    -0.169 F 
HETATM   37  F   UNL     1     -43.935  57.254 -57.958  1.00  0.00    -0.169 F 
HETATM   38  F   UNL     1     -42.062  57.673 -56.955  1.00  0.00    -0.169 F 
ENDBRANCH   8  35
TORSDOF 9
ENDMDL
MODEL 2
REMARK VINA RESULT:      -8.1      2.170      3.042
REMARK  9 active torsions:
REMARK  status: ('A' for Active; 'I' for Inactive)
REMARK    1  A    between atoms: O_2  and  C_3 
REMARK    2  A    between atoms: C_6  and  C_7 
REMARK    3  A    between atoms: C_13  and  C_14 
REMARK       I    between atoms: C_14  and  N_15 
REMARK    4  A    between atoms: N_15  and  N_16 
REMARK    5  A    between atoms: N_16  and  C_17 
REMARK    6  A    between atoms: C_17  and  N_18 
REMARK    7  A    between atoms: N_18  and  C_19 
REMARK    8  A    between atoms: C_19  and  C_20 
REMARK    9  A    between atoms: C_27  and  C_28 
ROOT
HETATM    1  C   UNL     1     -42.211  54.871 -54.560  1.00  0.00     0.118 C 
HETATM    2  N   UNL     1     -41.581  56.163 -54.293  1.00  0.00    -0.365 N 
HETATM    3  C   UNL     1     -42.229  57.272 -54.737  1.00  0.00     0.138 A 
HETATM    4  N   UNL     1     -43.097  57.176 -55.803  1.00  0.00    -0.240 N 
HETATM    5  N   UNL     1     -43.789  58.303 -56.032  1.00  0.00    -0.181 NA
HETATM    6  C   UNL     1     -43.235  59.176 -55.190  1.00  0.00     0.160 A 
HETATM    7  C   UNL     1     -42.255  58.596 -54.341  1.00  0.00     0.098 A 
HETATM    8  C   UNL     1     -43.422  55.943 -56.501  1.00  0.00     0.221 C 
HETATM    9  C   UNL     1     -42.494  54.792 -56.067  1.00  0.00     0.066 C 
HETATM   10  H   UNL     1     -41.062  56.218 -53.412  1.00  0.00     0.161 HD
ENDROOT
BRANCH   7  11
HETATM   11  C   UNL     1     -41.471  59.244 -53.304  1.00  0.00     0.275 C 
HETATM   12  N   UNL     1     -42.197  59.543 -52.162  1.00  0.00    -0.263 N 
HETATM   13  H   UNL     1     -43.060  59.051 -51.946  1.00  0.00     0.190 HD
HETATM   14  O   UNL     1     -40.281  59.523 -53.423  1.00  0.00    -0.266 OA
BRANCH  12  15
HETATM   15  N   UNL     1     -41.566  60.181 -51.081  1.00  0.00    -0.274 N 
HETATM   16  H   UNL     1     -41.357  61.167 -51.245  1.00  0.00     0.189 HD
BRANCH  15  17
HETATM   17  C   UNL     1     -40.662  59.499 -50.301  1.00  0.00     0.186 C 
HETATM   18  S   UNL     1     -39.071  59.942 -50.044  1.00  0.00    -0.040 SA
BRANCH  17  19
HETATM   19  N   UNL     1     -41.115  58.332 -49.758  1.00  0.00    -0.360 N 
HETATM   20  H   UNL     1     -41.417  58.408 -48.794  1.00  0.00     0.162 HD
BRANCH  19  21
HETATM   21  C   UNL     1     -40.742  56.996 -50.196  1.00  0.00     0.187 C 
BRANCH  21  22
HETATM   22  C   UNL     1     -41.947  56.179 -50.457  1.00  0.00     0.070 A 
HETATM   23  O   UNL     1     -42.842  56.675 -51.360  1.00  0.00    -0.325 OA
HETATM   24  C   UNL     1     -43.875  55.797 -51.417  1.00  0.00     0.142 A 
HETATM   25  C   UNL     1     -43.662  54.744 -50.559  1.00  0.00     0.027 A 
HETATM   26  C   UNL     1     -42.417  54.991 -49.935  1.00  0.00     0.036 A 
ENDBRANCH  21  22
ENDBRANCH  19  21
ENDBRANCH  17  19
ENDBRANCH  15  17
ENDBRANCH  12  15
ENDBRANCH   7  11
BRANCH   1  27
HETATM   27  C   UNL     1     -41.363  53.724 -54.047  1.00  0.00    -0.035 A 
HETATM   28  C   UNL     1     -40.774  53.820 -52.777  1.00  0.00     0.012 A 
HETATM   29  C   UNL     1     -40.064  52.746 -52.235  1.00  0.00     0.037 A 
HETATM   30  C   UNL     1     -39.932  51.554 -52.945  1.00  0.00     0.068 A 
HETATM   31  C   UNL     1     -40.458  51.466 -54.233  1.00  0.00     0.037 A 
HETATM   32  C   UNL     1     -41.160  52.547 -54.783  1.00  0.00     0.012 A 
BRANCH  30  33
HETATM   33  O   UNL     1     -39.255  50.560 -52.295  1.00  0.00    -0.356 OA
HETATM   34  C   UNL     1     -39.683  50.287 -50.966  1.00  0.00     0.210 C 
ENDBRANCH  30  33
ENDBRANCH   1  27
BRANCH   8  35
HETATM   35  C   UNL     1     -43.336  56.126 -58.001  1.00  0.00     0.409 C 
HETATM   36  F   UNL     1     -42.269  56.869 -58.372  1.00  0.00    -0.169 F 
HETATM   37  F   UNL     1     -43.188  54.913 -58.600  1.00  0.00    -0.169 F 
HETATM   38  F   UNL     1     -44.441  56.677 -58.542  1.00  0.00    -0.169 F 
ENDBRANCH   8  35
TORSDOF 9
ENDMDL
MODEL 3
REMARK VINA RESULT:      -8.1      4.033      6.530
REMARK  9 active torsions:
REMARK  status: ('A' for Active; 'I' for Inactive)
REMARK    1  A    between atoms: O_2  and  C_3 
REMARK    2  A    between atoms: C_6  and  C_7 
REMARK    3  A    between atoms: C_13  and  C_14 
REMARK       I    between atoms: C_14  and  N_15 
REMARK    4  A    between atoms: N_15  and  N_16 
REMARK    5  A    between atoms: N_16  and  C_17 
REMARK    6  A    between atoms: C_17  and  N_18 
REMARK    7  A    between atoms: N_18  and  C_19 
REMARK    8  A    between atoms: C_19  and  C_20 
REMARK    9  A    between atoms: C_27  and  C_28 
ROOT
HETATM    1  C   UNL     1     -41.139  55.542 -53.314  1.00  0.00     0.118 C 
HETATM    2  N   UNL     1     -41.725  55.872 -54.612  1.00  0.00    -0.365 N 
HETATM    3  C   UNL     1     -42.249  57.119 -54.756  1.00  0.00     0.138 A 
HETATM    4  N   UNL     1     -42.684  57.810 -53.647  1.00  0.00    -0.240 N 
HETATM    5  N   UNL     1     -43.023  59.081 -53.909  1.00  0.00    -0.181 NA
HETATM    6  C   UNL     1     -42.946  59.149 -55.239  1.00  0.00     0.160 A 
HETATM    7  C   UNL     1     -42.458  57.956 -55.836  1.00  0.00     0.098 A 
HETATM    8  C   UNL     1     -42.601  57.323 -52.280  1.00  0.00     0.221 C 
HETATM    9  C   UNL     1     -42.191  55.839 -52.237  1.00  0.00     0.066 C 
HETATM   10  H   UNL     1     -41.268  55.436 -55.418  1.00  0.00     0.161 HD
ENDROOT
BRANCH   7  11
HETATM   11  C   UNL     1     -42.233  57.687 -57.245  1.00  0.00     0.275 C 
HETATM   12  N   UNL     1     -42.751  56.474 -57.670  1.00  0.00    -0.263 N 
HETATM   13  H   UNL     1     -43.493  56.011 -57.153  1.00  0.00     0.190 HD
HETATM   14  O   UNL     1     -41.628  58.447 -57.996  1.00  0.00    -0.266 OA
BRANCH  12  15
HETATM   15  N   UNL     1     -42.598  56.080 -59.010  1.00  0.00    -0.274 N 
HETATM   16  H   UNL     1     -41.805  56.516 -59.483  1.00  0.00     0.189 HD
BRANCH  15  17
HETATM   17  C   UNL     1     -43.700  55.833 -59.793  1.00  0.00     0.186 C 
HETATM   18  S   UNL     1     -44.589  54.418 -59.803  1.00  0.00    -0.040 SA
BRANCH  17  19
HETATM   19  N   UNL     1     -44.032  56.823 -60.672  1.00  0.00    -0.360 N 
HETATM   20  H   UNL     1     -43.663  56.694 -61.607  1.00  0.00     0.162 HD
BRANCH  19  21
HETATM   21  C   UNL     1     -44.375  58.190 -60.315  1.00  0.00     0.187 C 
BRANCH  21  22
HETATM   22  C   UNL     1     -45.421  58.208 -59.269  1.00  0.00     0.070 A 
HETATM   23  O   UNL     1     -45.091  58.789 -58.080  1.00  0.00    -0.325 OA
HETATM   24  C   UNL     1     -46.169  58.663 -57.264  1.00  0.00     0.142 A 
HETATM   25  C   UNL     1     -47.187  58.003 -57.910  1.00  0.00     0.027 A 
HETATM   26  C   UNL     1     -46.705  57.705 -59.206  1.00  0.00     0.036 A 
ENDBRANCH  21  22
ENDBRANCH  19  21
ENDBRANCH  17  19
ENDBRANCH  15  17
ENDBRANCH  12  15
ENDBRANCH   7  11
BRANCH   1  27
HETATM   27  C   UNL     1     -40.633  54.114 -53.283  1.00  0.00    -0.035 A 
HETATM   28  C   UNL     1     -40.284  53.535 -52.052  1.00  0.00     0.012 A 
HETATM   29  C   UNL     1     -39.903  52.193 -51.974  1.00  0.00     0.037 A 
HETATM   30  C   UNL     1     -39.868  51.400 -53.119  1.00  0.00     0.068 A 
HETATM   31  C   UNL     1     -40.151  51.976 -54.356  1.00  0.00     0.037 A 
HETATM   32  C   UNL     1     -40.521  53.326 -54.438  1.00  0.00     0.012 A 
BRANCH  30  33
HETATM   33  O   UNL     1     -39.524  50.094 -52.912  1.00  0.00    -0.356 OA
HETATM   34  C   UNL     1     -39.579  49.646 -51.563  1.00  0.00     0.210 C 
ENDBRANCH  30  33
ENDBRANCH   1  27
BRANCH   8  35
HETATM   35  C   UNL     1     -43.916  57.508 -51.553  1.00  0.00     0.409 C 
HETATM   36  F   UNL     1     -44.984  57.358 -52.369  1.00  0.00    -0.169 F 
HETATM   37  F   UNL     1     -44.036  56.562 -50.582  1.00  0.00    -0.169 F 
HETATM   38  F   UNL     1     -44.027  58.699 -50.931  1.00  0.00    -0.169 F 
ENDBRANCH   8  35
TORSDOF 9
ENDMDL
MODEL 4
REMARK VINA RESULT:      -8.1      3.799      6.315
REMARK  9 active torsions:
REMARK  status: ('A' for Active; 'I' for Inactive)
REMARK    1  A    between atoms: O_2  and  C_3 
REMARK    2  A    between atoms: C_6  and  C_7 
REMARK    3  A    between atoms: C_13  and  C_14 
REMARK       I    between atoms: C_14  and  N_15 
REMARK    4  A    between atoms: N_15  and  N_16 
REMARK    5  A    between atoms: N_16  and  C_17 
REMARK    6  A    between atoms: C_17  and  N_18 
REMARK    7  A    between atoms: N_18  and  C_19 
REMARK    8  A    between atoms: C_19  and  C_20 
REMARK    9  A    between atoms: C_27  and  C_28 
ROOT
HETATM    1  C   UNL     1     -41.152  56.157 -53.454  1.00  0.00     0.118 C 
HETATM    2  N   UNL     1     -42.490  56.357 -54.008  1.00  0.00    -0.365 N 
HETATM    3  C   UNL     1     -42.920  57.640 -54.140  1.00  0.00     0.138 A 
HETATM    4  N   UNL     1     -42.394  58.625 -53.334  1.00  0.00    -0.240 N 
HETATM    5  N   UNL     1     -42.782  59.862 -53.676  1.00  0.00    -0.181 NA
HETATM    6  C   UNL     1     -43.695  59.642 -54.624  1.00  0.00     0.160 A 
HETATM    7  C   UNL     1     -43.827  58.271 -54.971  1.00  0.00     0.098 A 
HETATM    8  C   UNL     1     -41.354  58.415 -52.338  1.00  0.00     0.221 C 
HETATM    9  C   UNL     1     -41.081  56.914 -52.120  1.00  0.00     0.066 C 
HETATM   10  H   UNL     1     -42.775  55.669 -54.712  1.00  0.00     0.161 HD
ENDROOT
BRANCH   7  11
HETATM   11  C   UNL     1     -44.706  57.679 -55.964  1.00  0.00     0.275 C 
HETATM   12  N   UNL     1     -46.026  58.088 -55.855  1.00  0.00    -0.263 N 
HETATM   13  H   UNL     1     -46.268  58.952 -55.378  1.00  0.00     0.190 HD
HETATM   14  O   UNL     1     -44.331  56.877 -56.816  1.00  0.00    -0.266 OA
BRANCH  12  15
HETATM   15  N   UNL     1     -46.989  57.587 -56.746  1.00  0.00    -0.274 N 
HETATM   16  H   UNL     1     -47.309  56.643 -56.524  1.00  0.00     0.189 HD
BRANCH  15  17
HETATM   17  C   UNL     1     -46.928  57.899 -58.084  1.00  0.00     0.186 C 
HETATM   18  S   UNL     1     -47.074  59.433 -58.732  1.00  0.00    -0.040 SA
BRANCH  17  19
HETATM   19  N   UNL     1     -46.803  56.837 -58.932  1.00  0.00    -0.360 N 
HETATM   20  H   UNL     1     -46.825  55.933 -58.477  1.00  0.00     0.162 HD
BRANCH  19  21
HETATM   21  C   UNL     1     -46.159  56.870 -60.236  1.00  0.00     0.187 C 
BRANCH  21  22
HETATM   22  C   UNL     1     -44.695  56.706 -60.098  1.00  0.00     0.070 A 
HETATM   23  O   UNL     1     -43.940  57.839 -60.177  1.00  0.00    -0.325 OA
HETATM   24  C   UNL     1     -42.642  57.460 -60.065  1.00  0.00     0.142 A 
HETATM   25  C   UNL     1     -42.549  56.096 -59.920  1.00  0.00     0.027 A 
HETATM   26  C   UNL     1     -43.876  55.605 -59.944  1.00  0.00     0.036 A 
ENDBRANCH  21  22
ENDBRANCH  19  21
ENDBRANCH  17  19
ENDBRANCH  15  17
ENDBRANCH  12  15
ENDBRANCH   7  11
BRANCH   1  27
HETATM   27  C   UNL     1     -40.820  54.684 -53.326  1.00  0.00    -0.035 A 
HETATM   28  C   UNL     1     -40.619  53.921 -54.487  1.00  0.00     0.012 A 
HETATM   29  C   UNL     1     -40.221  52.585 -54.406  1.00  0.00     0.037 A 
HETATM   30  C   UNL     1     -40.009  51.983 -53.166  1.00  0.00     0.068 A 
HETATM   31  C   UNL     1     -40.266  52.709 -52.004  1.00  0.00     0.037 A 
HETATM   32  C   UNL     1     -40.678  54.046 -52.084  1.00  0.00     0.012 A 
BRANCH  30  33
HETATM   33  O   UNL     1     -39.580  50.687 -53.214  1.00  0.00    -0.356 OA
HETATM   34  C   UNL     1     -39.819  50.000 -54.437  1.00  0.00     0.210 C 
ENDBRANCH  30  33
ENDBRANCH   1  27
BRANCH   8  35
HETATM   35  C   UNL     1     -41.721  59.061 -51.020  1.00  0.00     0.409 C 
HETATM   36  F   UNL     1     -41.414  60.378 -50.986  1.00  0.00    -0.169 F 
HETATM   37  F   UNL     1     -43.066  58.974 -50.828  1.00  0.00    -0.169 F 
HETATM   38  F   UNL     1     -41.152  58.469 -49.951  1.00  0.00    -0.169 F 
ENDBRANCH   8  35
TORSDOF 9
ENDMDL
MODEL 5
REMARK VINA RESULT:      -8.0      3.892      6.229
REMARK  9 active torsions:
REMARK  status: ('A' for Active; 'I' for Inactive)
REMARK    1  A    between atoms: O_2  and  C_3 
REMARK    2  A    between atoms: C_6  and  C_7 
REMARK    3  A    between atoms: C_13  and  C_14 
REMARK       I    between atoms: C_14  and  N_15 
REMARK    4  A    between atoms: N_15  and  N_16 
REMARK    5  A    between atoms: N_16  and  C_17 
REMARK    6  A    between atoms: C_17  and  N_18 
REMARK    7  A    between atoms: N_18  and  C_19 
REMARK    8  A    between atoms: C_19  and  C_20 
REMARK    9  A    between atoms: C_27  and  C_28 
ROOT
HETATM    1  C   UNL     1     -40.791  54.868 -53.505  1.00  0.00     0.118 C 
HETATM    2  N   UNL     1     -41.898  55.055 -54.442  1.00  0.00    -0.365 N 
HETATM    3  C   UNL     1     -42.374  56.320 -54.594  1.00  0.00     0.138 A 
HETATM    4  N   UNL     1     -42.215  57.237 -53.579  1.00  0.00    -0.240 N 
HETATM    5  N   UNL     1     -42.581  58.482 -53.921  1.00  0.00    -0.181 NA
HETATM    6  C   UNL     1     -43.125  58.318 -55.128  1.00  0.00     0.160 A 
HETATM    7  C   UNL     1     -43.022  56.988 -55.616  1.00  0.00     0.098 A 
HETATM    8  C   UNL     1     -41.529  56.977 -52.324  1.00  0.00     0.221 C 
HETATM    9  C   UNL     1     -41.211  55.478 -52.159  1.00  0.00     0.066 C 
HETATM   10  H   UNL     1     -41.885  54.435 -55.257  1.00  0.00     0.161 HD
ENDROOT
BRANCH   7  11
HETATM   11  C   UNL     1     -43.488  56.462 -56.887  1.00  0.00     0.275 C 
HETATM   12  N   UNL     1     -44.511  57.204 -57.456  1.00  0.00    -0.263 N 
HETATM   13  H   UNL     1     -44.660  58.176 -57.197  1.00  0.00     0.190 HD
HETATM   14  O   UNL     1     -43.038  55.446 -57.411  1.00  0.00    -0.266 OA
BRANCH  12  15
HETATM   15  N   UNL     1     -45.065  56.805 -58.684  1.00  0.00    -0.274 N 
HETATM   16  H   UNL     1     -45.045  55.795 -58.839  1.00  0.00     0.189 HD
BRANCH  15  17
HETATM   17  C   UNL     1     -44.910  57.586 -59.804  1.00  0.00     0.186 C 
HETATM   18  S   UNL     1     -45.894  58.864 -60.242  1.00  0.00    -0.040 SA
BRANCH  17  19
HETATM   19  N   UNL     1     -43.897  57.220 -60.643  1.00  0.00    -0.360 N 
HETATM   20  H   UNL     1     -44.146  56.503 -61.313  1.00  0.00     0.162 HD
BRANCH  19  21
HETATM   21  C   UNL     1     -42.477  57.348 -60.356  1.00  0.00     0.187 C 
BRANCH  21  22
HETATM   22  C   UNL     1     -42.165  58.707 -59.863  1.00  0.00     0.070 A 
HETATM   23  O   UNL     1     -41.991  58.847 -58.517  1.00  0.00    -0.325 OA
HETATM   24  C   UNL     1     -41.755  60.162 -58.282  1.00  0.00     0.142 A 
HETATM   25  C   UNL     1     -41.780  60.874 -59.458  1.00  0.00     0.027 A 
HETATM   26  C   UNL     1     -42.048  59.935 -60.482  1.00  0.00     0.036 A 
ENDBRANCH  21  22
ENDBRANCH  19  21
ENDBRANCH  17  19
ENDBRANCH  15  17
ENDBRANCH  12  15
ENDBRANCH   7  11
BRANCH   1  27
HETATM   27  C   UNL     1     -40.391  53.410 -53.404  1.00  0.00    -0.035 A 
HETATM   28  C   UNL     1     -40.016  52.885 -52.158  1.00  0.00     0.012 A 
HETATM   29  C   UNL     1     -39.731  51.525 -52.011  1.00  0.00     0.037 A 
HETATM   30  C   UNL     1     -39.820  50.661 -53.101  1.00  0.00     0.068 A 
HETATM   31  C   UNL     1     -40.130  51.179 -54.358  1.00  0.00     0.037 A 
HETATM   32  C   UNL     1     -40.404  52.545 -54.509  1.00  0.00     0.012 A 
BRANCH  30  33
HETATM   33  O   UNL     1     -39.562  49.348 -52.826  1.00  0.00    -0.356 OA
HETATM   34  C   UNL     1     -39.533  48.998 -51.447  1.00  0.00     0.210 C 
ENDBRANCH  30  33
ENDBRANCH   1  27
BRANCH   8  35
HETATM   35  C   UNL     1     -42.348  57.454 -51.144  1.00  0.00     0.409 C 
HETATM   36  F   UNL     1     -43.675  57.258 -51.322  1.00  0.00    -0.169 F 
HETATM   37  F   UNL     1     -42.000  56.750 -50.033  1.00  0.00    -0.169 F 
HETATM   38  F   UNL     1     -42.152  58.753 -50.840  1.00  0.00    -0.169 F 
ENDBRANCH   8  35
TORSDOF 9
ENDMDL
MODEL 6
REMARK VINA RESULT:      -7.9      2.958      5.353
REMARK  9 active torsions:
REMARK  status: ('A' for Active; 'I' for Inactive)
REMARK    1  A    between atoms: O_2  and  C_3 
REMARK    2  A    between atoms: C_6  and  C_7 
REMARK    3  A    between atoms: C_13  and  C_14 
REMARK       I    between atoms: C_14  and  N_15 
REMARK    4  A    between atoms: N_15  and  N_16 
REMARK    5  A    between atoms: N_16  and  C_17 
REMARK    6  A    between atoms: C_17  and  N_18 
REMARK    7  A    between atoms: N_18  and  C_19 
REMARK    8  A    between atoms: C_19  and  C_20 
REMARK    9  A    between atoms: C_27  and  C_28 
ROOT
HETATM    1  C   UNL     1     -41.780  55.536 -54.948  1.00  0.00     0.118 C 
HETATM    2  N   UNL     1     -42.742  55.431 -53.851  1.00  0.00    -0.365 N 
HETATM    3  C   UNL     1     -42.279  54.950 -52.666  1.00  0.00     0.138 A 
HETATM    4  N   UNL     1     -41.172  54.131 -52.645  1.00  0.00    -0.240 N 
HETATM    5  N   UNL     1     -40.728  53.864 -51.408  1.00  0.00    -0.181 NA
HETATM    6  C   UNL     1     -41.667  54.401 -50.626  1.00  0.00     0.160 A 
HETATM    7  C   UNL     1     -42.666  55.105 -51.348  1.00  0.00     0.098 A 
HETATM    8  C   UNL     1     -40.402  53.746 -53.816  1.00  0.00     0.221 C 
HETATM    9  C   UNL     1     -41.113  54.164 -55.118  1.00  0.00     0.066 C 
HETATM   10  H   UNL     1     -43.465  56.156 -53.838  1.00  0.00     0.161 HD
ENDROOT
BRANCH   7  11
HETATM   11  C   UNL     1     -43.816  55.818 -50.822  1.00  0.00     0.275 C 
HETATM   12  N   UNL     1     -43.778  57.185 -51.051  1.00  0.00    -0.263 N 
HETATM   13  H   UNL     1     -43.206  57.575 -51.796  1.00  0.00     0.190 HD
HETATM   14  O   UNL     1     -44.735  55.276 -50.212  1.00  0.00    -0.266 OA
BRANCH  12  15
HETATM   15  N   UNL     1     -44.823  58.001 -50.587  1.00  0.00    -0.274 N 
HETATM   16  H   UNL     1     -45.745  57.564 -50.638  1.00  0.00     0.189 HD
BRANCH  15  17
HETATM   17  C   UNL     1     -44.791  59.359 -50.799  1.00  0.00     0.186 C 
HETATM   18  S   UNL     1     -45.861  60.220 -51.752  1.00  0.00    -0.040 SA
BRANCH  17  19
HETATM   19  N   UNL     1     -43.749  60.022 -50.218  1.00  0.00    -0.360 N 
HETATM   20  H   UNL     1     -43.910  60.296 -49.257  1.00  0.00     0.162 HD
BRANCH  19  21
HETATM   21  C   UNL     1     -42.733  60.783 -50.928  1.00  0.00     0.187 C 
BRANCH  21  22
HETATM   22  C   UNL     1     -41.972  59.907 -51.846  1.00  0.00     0.070 A 
HETATM   23  O   UNL     1     -41.251  58.899 -51.275  1.00  0.00    -0.325 OA
HETATM   24  C   UNL     1     -40.609  58.252 -52.281  1.00  0.00     0.142 A 
HETATM   25  C   UNL     1     -40.901  58.834 -53.492  1.00  0.00     0.027 A 
HETATM   26  C   UNL     1     -41.780  59.907 -53.212  1.00  0.00     0.036 A 
ENDBRANCH  21  22
ENDBRANCH  19  21
ENDBRANCH  17  19
ENDBRANCH  15  17
ENDBRANCH  12  15
ENDBRANCH   7  11
BRANCH   1  27
HETATM   27  C   UNL     1     -42.437  56.046 -56.214  1.00  0.00    -0.035 A 
HETATM   28  C   UNL     1     -42.484  57.428 -56.457  1.00  0.00     0.012 A 
HETATM   29  C   UNL     1     -42.999  57.927 -57.656  1.00  0.00     0.037 A 
HETATM   30  C   UNL     1     -43.471  57.059 -58.639  1.00  0.00     0.068 A 
HETATM   31  C   UNL     1     -43.489  55.688 -58.387  1.00  0.00     0.037 A 
HETATM   32  C   UNL     1     -42.984  55.187 -57.180  1.00  0.00     0.012 A 
BRANCH  30  33
HETATM   33  O   UNL     1     -43.909  57.661 -59.785  1.00  0.00    -0.356 OA
HETATM   34  C   UNL     1     -43.129  58.760 -60.244  1.00  0.00     0.210 C 
ENDBRANCH  30  33
ENDBRANCH   1  27
BRANCH   8  35
HETATM   35  C   UNL     1     -40.144  52.255 -53.835  1.00  0.00     0.409 C 
HETATM   36  F   UNL     1     -41.246  51.535 -53.521  1.00  0.00    -0.169 F 
HETATM   37  F   UNL     1     -39.777  51.871 -55.088  1.00  0.00    -0.169 F 
HETATM   38  F   UNL     1     -39.143  51.869 -53.018  1.00  0.00    -0.169 F 
ENDBRANCH   8  35
TORSDOF 9
ENDMDL
MODEL 7
REMARK VINA RESULT:      -7.8      4.262      6.785
REMARK  9 active torsions:
REMARK  status: ('A' for Active; 'I' for Inactive)
REMARK    1  A    between atoms: O_2  and  C_3 
REMARK    2  A    between atoms: C_6  and  C_7 
REMARK    3  A    between atoms: C_13  and  C_14 
REMARK       I    between atoms: C_14  and  N_15 
REMARK    4  A    between atoms: N_15  and  N_16 
REMARK    5  A    between atoms: N_16  and  C_17 
REMARK    6  A    between atoms: C_17  and  N_18 
REMARK    7  A    between atoms: N_18  and  C_19 
REMARK    8  A    between atoms: C_19  and  C_20 
REMARK    9  A    between atoms: C_27  and  C_28 
ROOT
HETATM    1  C   UNL     1     -41.206  55.568 -53.324  1.00  0.00     0.118 C 
HETATM    2  N   UNL     1     -41.846  55.847 -54.608  1.00  0.00    -0.365 N 
HETATM    3  C   UNL     1     -42.395  57.081 -54.771  1.00  0.00     0.138 A 
HETATM    4  N   UNL     1     -42.799  57.802 -53.670  1.00  0.00    -0.240 N 
HETATM    5  N   UNL     1     -43.168  59.059 -53.958  1.00  0.00    -0.181 NA
HETATM    6  C   UNL     1     -43.141  59.084 -55.292  1.00  0.00     0.160 A 
HETATM    7  C   UNL     1     -42.658  57.880 -55.869  1.00  0.00     0.098 A 
HETATM    8  C   UNL     1     -42.656  57.361 -52.291  1.00  0.00     0.221 C 
HETATM    9  C   UNL     1     -42.221  55.884 -52.216  1.00  0.00     0.066 C 
HETATM   10  H   UNL     1     -41.413  55.392 -55.416  1.00  0.00     0.161 HD
ENDROOT
BRANCH   7  11
HETATM   11  C   UNL     1     -42.482  57.568 -57.276  1.00  0.00     0.275 C 
HETATM   12  N   UNL     1     -42.086  58.653 -58.042  1.00  0.00    -0.263 N 
HETATM   13  H   UNL     1     -41.634  59.458 -57.615  1.00  0.00     0.190 HD
HETATM   14  O   UNL     1     -42.681  56.456 -57.759  1.00  0.00    -0.266 OA
BRANCH  12  15
HETATM   15  N   UNL     1     -41.888  58.498 -59.424  1.00  0.00    -0.274 N 
HETATM   16  H   UNL     1     -40.966  58.135 -59.673  1.00  0.00     0.189 HD
BRANCH  15  17
HETATM   17  C   UNL     1     -42.438  59.393 -60.310  1.00  0.00     0.186 C 
HETATM   18  S   UNL     1     -41.871  60.936 -60.615  1.00  0.00    -0.040 SA
BRANCH  17  19
HETATM   19  N   UNL     1     -43.582  58.980 -60.930  1.00  0.00    -0.360 N 
HETATM   20  H   UNL     1     -43.665  59.275 -61.896  1.00  0.00     0.162 HD
BRANCH  19  21
HETATM   21  C   UNL     1     -44.832  58.651 -60.264  1.00  0.00     0.187 C 
BRANCH  21  22
HETATM   22  C   UNL     1     -45.054  57.188 -60.267  1.00  0.00     0.070 A 
HETATM   23  O   UNL     1     -44.037  56.414 -60.745  1.00  0.00    -0.325 OA
HETATM   24  C   UNL     1     -44.461  55.126 -60.693  1.00  0.00     0.142 A 
HETATM   25  C   UNL     1     -45.741  55.059 -60.195  1.00  0.00     0.027 A 
HETATM   26  C   UNL     1     -46.128  56.393 -59.921  1.00  0.00     0.036 A 
ENDBRANCH  21  22
ENDBRANCH  19  21
ENDBRANCH  17  19
ENDBRANCH  15  17
ENDBRANCH  12  15
ENDBRANCH   7  11
BRANCH   1  27
HETATM   27  C   UNL     1     -40.676  54.149 -53.266  1.00  0.00    -0.035 A 
HETATM   28  C   UNL     1     -40.345  53.590 -52.021  1.00  0.00     0.012 A 
HETATM   29  C   UNL     1     -39.943  52.256 -51.921  1.00  0.00     0.037 A 
HETATM   30  C   UNL     1     -39.869  51.451 -53.057  1.00  0.00     0.068 A 
HETATM   31  C   UNL     1     -40.134  52.010 -54.306  1.00  0.00     0.037 A 
HETATM   32  C   UNL     1     -40.526  53.352 -54.410  1.00  0.00     0.012 A 
BRANCH  30  33
HETATM   33  O   UNL     1     -39.507  50.153 -52.829  1.00  0.00    -0.356 OA
HETATM   34  C   UNL     1     -39.562  49.725 -51.472  1.00  0.00     0.210 C 
ENDBRANCH  30  33
ENDBRANCH   1  27
BRANCH   8  35
HETATM   35  C   UNL     1     -43.945  57.550 -51.521  1.00  0.00     0.409 C 
HETATM   36  F   UNL     1     -44.039  58.779 -50.964  1.00  0.00    -0.169 F 
HETATM   37  F   UNL     1     -45.004  57.428 -52.367  1.00  0.00    -0.169 F 
HETATM   38  F   UNL     1     -44.134  56.632 -50.551  1.00  0.00    -0.169 F 
ENDBRANCH   8  35
TORSDOF 9
ENDMDL
MODEL 8
REMARK VINA RESULT:      -7.8      2.059      3.025
REMARK  9 active torsions:
REMARK  status: ('A' for Active; 'I' for Inactive)
REMARK    1  A    between atoms: O_2  and  C_3 
REMARK    2  A    between atoms: C_6  and  C_7 
REMARK    3  A    between atoms: C_13  and  C_14 
REMARK       I    between atoms: C_14  and  N_15 
REMARK    4  A    between atoms: N_15  and  N_16 
REMARK    5  A    between atoms: N_16  and  C_17 
REMARK    6  A    between atoms: C_17  and  N_18 
REMARK    7  A    between atoms: N_18  and  C_19 
REMARK    8  A    between atoms: C_19  and  C_20 
REMARK    9  A    between atoms: C_27  and  C_28 
ROOT
HETATM    1  C   UNL     1     -43.322  55.797 -56.102  1.00  0.00     0.118 C 
HETATM    2  N   UNL     1     -43.494  57.209 -55.764  1.00  0.00    -0.365 N 
HETATM    3  C   UNL     1     -44.220  57.968 -56.627  1.00  0.00     0.138 A 
HETATM    4  N   UNL     1     -44.318  57.597 -57.950  1.00  0.00    -0.240 N 
HETATM    5  N   UNL     1     -45.191  58.337 -58.650  1.00  0.00    -0.181 NA
HETATM    6  C   UNL     1     -45.538  59.294 -57.788  1.00  0.00     0.160 A 
HETATM    7  C   UNL     1     -44.973  59.121 -56.497  1.00  0.00     0.098 A 
HETATM    8  C   UNL     1     -43.721  56.401 -58.523  1.00  0.00     0.221 C 
HETATM    9  C   UNL     1     -42.759  55.723 -57.528  1.00  0.00     0.066 C 
HETATM   10  H   UNL     1     -43.556  57.410 -54.762  1.00  0.00     0.161 HD
ENDROOT
BRANCH   7  11
HETATM   11  C   UNL     1     -45.149  59.957 -55.323  1.00  0.00     0.275 C 
HETATM   12  N   UNL     1     -45.580  59.263 -54.203  1.00  0.00    -0.263 N 
HETATM   13  H   UNL     1     -45.441  58.259 -54.124  1.00  0.00     0.190 HD
HETATM   14  O   UNL     1     -44.955  61.170 -55.314  1.00  0.00    -0.266 OA
BRANCH  12  15
HETATM   15  N   UNL     1     -45.801  59.949 -52.998  1.00  0.00    -0.274 N 
HETATM   16  H   UNL     1     -45.694  60.962 -53.070  1.00  0.00     0.189 HD
BRANCH  15  17
HETATM   17  C   UNL     1     -45.421  59.391 -51.800  1.00  0.00     0.186 C 
HETATM   18  S   UNL     1     -45.477  60.152 -50.312  1.00  0.00    -0.040 SA
BRANCH  17  19
HETATM   19  N   UNL     1     -44.899  58.133 -51.874  1.00  0.00    -0.360 N 
HETATM   20  H   UNL     1     -45.584  57.403 -52.025  1.00  0.00     0.162 HD
BRANCH  19  21
HETATM   21  C   UNL     1     -43.643  57.703 -51.279  1.00  0.00     0.187 C 
BRANCH  21  22
HETATM   22  C   UNL     1     -42.509  58.004 -52.181  1.00  0.00     0.070 A 
HETATM   23  O   UNL     1     -42.712  58.974 -53.119  1.00  0.00    -0.325 OA
HETATM   24  C   UNL     1     -41.573  59.061 -53.852  1.00  0.00     0.142 A 
HETATM   25  C   UNL     1     -40.641  58.155 -53.404  1.00  0.00     0.027 A 
HETATM   26  C   UNL     1     -41.246  57.468 -52.325  1.00  0.00     0.036 A 
ENDBRANCH  21  22
ENDBRANCH  19  21
ENDBRANCH  17  19
ENDBRANCH  15  17
ENDBRANCH  12  15
ENDBRANCH   7  11
BRANCH   1  27
HETATM   27  C   UNL     1     -42.462  55.083 -55.079  1.00  0.00    -0.035 A 
HETATM   28  C   UNL     1     -43.041  54.650 -53.876  1.00  0.00     0.012 A 
HETATM   29  C   UNL     1     -42.301  53.908 -52.952  1.00  0.00     0.037 A 
HETATM   30  C   UNL     1     -40.972  53.577 -53.210  1.00  0.00     0.068 A 
HETATM   31  C   UNL     1     -40.366  54.054 -54.371  1.00  0.00     0.037 A 
HETATM   32  C   UNL     1     -41.103  54.809 -55.294  1.00  0.00     0.012 A 
BRANCH  30  33
HETATM   33  O   UNL     1     -40.366  52.812 -52.255  1.00  0.00    -0.356 OA
HETATM   34  C   UNL     1     -39.687  51.654 -52.728  1.00  0.00     0.210 C 
ENDBRANCH  30  33
ENDBRANCH   1  27
BRANCH   8  35
HETATM   35  C   UNL     1     -42.984  56.720 -59.805  1.00  0.00     0.409 C 
HETATM   36  F   UNL     1     -43.808  56.772 -60.877  1.00  0.00    -0.169 F 
HETATM   37  F   UNL     1     -42.404  57.947 -59.705  1.00  0.00    -0.169 F 
HETATM   38  F   UNL     1     -41.986  55.856 -60.084  1.00  0.00    -0.169 F 
ENDBRANCH   8  35
TORSDOF 9
ENDMDL
MODEL 9
REMARK VINA RESULT:      -7.7      2.567      3.613
REMARK  9 active torsions:
REMARK  status: ('A' for Active; 'I' for Inactive)
REMARK    1  A    between atoms: O_2  and  C_3 
REMARK    2  A    between atoms: C_6  and  C_7 
REMARK    3  A    between atoms: C_13  and  C_14 
REMARK       I    between atoms: C_14  and  N_15 
REMARK    4  A    between atoms: N_15  and  N_16 
REMARK    5  A    between atoms: N_16  and  C_17 
REMARK    6  A    between atoms: C_17  and  N_18 
REMARK    7  A    between atoms: N_18  and  C_19 
REMARK    8  A    between atoms: C_19  and  C_20 
REMARK    9  A    between atoms: C_27  and  C_28 
ROOT
HETATM    1  C   UNL     1     -43.133  55.851 -56.086  1.00  0.00     0.118 C 
HETATM    2  N   UNL     1     -42.501  57.160 -56.246  1.00  0.00    -0.365 N 
HETATM    3  C   UNL     1     -43.026  57.990 -57.187  1.00  0.00     0.138 A 
HETATM    4  N   UNL     1     -43.718  57.464 -58.255  1.00  0.00    -0.240 N 
HETATM    5  N   UNL     1     -44.318  58.393 -59.014  1.00  0.00    -0.181 NA
HETATM    6  C   UNL     1     -43.869  59.540 -58.501  1.00  0.00     0.160 A 
HETATM    7  C   UNL     1     -43.060  59.362 -57.348  1.00  0.00     0.098 A 
HETATM    8  C   UNL     1     -43.977  56.048 -58.460  1.00  0.00     0.221 C 
HETATM    9  C   UNL     1     -43.177  55.181 -57.467  1.00  0.00     0.066 C 
HETATM   10  H   UNL     1     -42.126  57.568 -55.386  1.00  0.00     0.161 HD
ENDROOT
BRANCH   7  11
HETATM   11  C   UNL     1     -42.424  60.384 -56.534  1.00  0.00     0.275 C 
HETATM   12  N   UNL     1     -43.247  60.901 -55.546  1.00  0.00    -0.263 N 
HETATM   13  H   UNL     1     -44.053  60.382 -55.211  1.00  0.00     0.190 HD
HETATM   14  O   UNL     1     -41.273  60.775 -56.707  1.00  0.00    -0.266 OA
BRANCH  12  15
HETATM   15  N   UNL     1     -42.764  61.905 -54.690  1.00  0.00    -0.274 N 
HETATM   16  H   UNL     1     -41.746  61.937 -54.619  1.00  0.00     0.189 HD
BRANCH  15  17
HETATM   17  C   UNL     1     -43.454  62.237 -53.548  1.00  0.00     0.186 C 
HETATM   18  S   UNL     1     -44.691  63.358 -53.449  1.00  0.00    -0.040 SA
BRANCH  17  19
HETATM   19  N   UNL     1     -43.026  61.629 -52.404  1.00  0.00    -0.360 N 
HETATM   20  H   UNL     1     -42.147  61.981 -52.046  1.00  0.00     0.162 HD
BRANCH  19  21
HETATM   21  C   UNL     1     -43.387  60.287 -51.975  1.00  0.00     0.187 C 
BRANCH  21  22
HETATM   22  C   UNL     1     -42.333  59.319 -52.350  1.00  0.00     0.070 A 
HETATM   23  O   UNL     1     -41.291  59.802 -53.088  1.00  0.00    -0.325 OA
HETATM   24  C   UNL     1     -40.471  58.753 -53.350  1.00  0.00     0.142 A 
HETATM   25  C   UNL     1     -40.974  57.598 -52.798  1.00  0.00     0.027 A 
HETATM   26  C   UNL     1     -42.180  57.962 -52.153  1.00  0.00     0.036 A 
ENDBRANCH  21  22
ENDBRANCH  19  21
ENDBRANCH  17  19
ENDBRANCH  15  17
ENDBRANCH  12  15
ENDBRANCH   7  11
BRANCH   1  27
HETATM   27  C   UNL     1     -42.423  55.018 -55.038  1.00  0.00    -0.035 A 
HETATM   28  C   UNL     1     -41.118  54.565 -55.288  1.00  0.00     0.012 A 
HETATM   29  C   UNL     1     -40.401  53.875 -54.308  1.00  0.00     0.037 A 
HETATM   30  C   UNL     1     -40.966  53.628 -53.058  1.00  0.00     0.068 A 
HETATM   31  C   UNL     1     -42.283  54.016 -52.817  1.00  0.00     0.037 A 
HETATM   32  C   UNL     1     -43.009  54.698 -53.804  1.00  0.00     0.012 A 
BRANCH  30  33
HETATM   33  O   UNL     1     -40.154  52.984 -52.168  1.00  0.00    -0.356 OA
HETATM   34  C   UNL     1     -39.641  51.727 -52.595  1.00  0.00     0.210 C 
ENDBRANCH  30  33
ENDBRANCH   1  27
BRANCH   8  35
HETATM   35  C   UNL     1     -43.648  55.631 -59.877  1.00  0.00     0.409 C 
HETATM   36  F   UNL     1     -44.317  56.359 -60.799  1.00  0.00    -0.169 F 
HETATM   37  F   UNL     1     -42.323  55.831 -60.115  1.00  0.00    -0.169 F 
HETATM   38  F   UNL     1     -43.879  54.325 -60.124  1.00  0.00    -0.169 F 
ENDBRANCH   8  35
TORSDOF 9
ENDMDL
MODEL 10
REMARK VINA RESULT:      -7.6      2.253      2.974
REMARK  9 active torsions:
REMARK  status: ('A' for Active; 'I' for Inactive)
REMARK    1  A    between atoms: O_2  and  C_3 
REMARK    2  A    between atoms: C_6  and  C_7 
REMARK    3  A    between atoms: C_13  and  C_14 
REMARK       I    between atoms: C_14  and  N_15 
REMARK    4  A    between atoms: N_15  and  N_16 
REMARK    5  A    between atoms: N_16  and  C_17 
REMARK    6  A    between atoms: C_17  and  N_18 
REMARK    7  A    between atoms: N_18  and  C_19 
REMARK    8  A    between atoms: C_19  and  C_20 
REMARK    9  A    between atoms: C_27  and  C_28 
ROOT
HETATM    1  C   UNL     1     -42.769  55.915 -55.649  1.00  0.00     0.118 C 
HETATM    2  N   UNL     1     -42.216  57.249 -55.422  1.00  0.00    -0.365 N 
HETATM    3  C   UNL     1     -42.725  58.266 -56.169  1.00  0.00     0.138 A 
HETATM    4  N   UNL     1     -43.300  57.997 -57.390  1.00  0.00    -0.240 N 
HETATM    5  N   UNL     1     -43.904  59.059 -57.943  1.00  0.00    -0.181 NA
HETATM    6  C   UNL     1     -43.570  60.058 -57.124  1.00  0.00     0.160 A 
HETATM    7  C   UNL     1     -42.838  59.631 -55.985  1.00  0.00     0.098 A 
HETATM    8  C   UNL     1     -43.449  56.669 -57.963  1.00  0.00     0.221 C 
HETATM    9  C   UNL     1     -42.668  55.616 -57.152  1.00  0.00     0.066 C 
HETATM   10  H   UNL     1     -41.933  57.443 -54.457  1.00  0.00     0.161 HD
ENDROOT
BRANCH   7  11
HETATM   11  C   UNL     1     -42.333  60.441 -54.890  1.00  0.00     0.275 C 
HETATM   12  N   UNL     1     -42.969  61.666 -54.763  1.00  0.00    -0.263 N 
HETATM   13  H   UNL     1     -43.896  61.817 -55.152  1.00  0.00     0.190 HD
HETATM   14  O   UNL     1     -41.416  60.093 -54.151  1.00  0.00    -0.266 OA
BRANCH  12  15
HETATM   15  N   UNL     1     -42.575  62.557 -53.751  1.00  0.00    -0.274 N 
HETATM   16  H   UNL     1     -41.563  62.652 -53.652  1.00  0.00     0.189 HD
BRANCH  15  17
HETATM   17  C   UNL     1     -43.301  62.654 -52.588  1.00  0.00     0.186 C 
HETATM   18  S   UNL     1     -43.903  64.069 -51.933  1.00  0.00    -0.040 SA
BRANCH  17  19
HETATM   19  N   UNL     1     -43.473  61.488 -51.901  1.00  0.00    -0.360 N 
HETATM   20  H   UNL     1     -44.356  61.024 -52.076  1.00  0.00     0.162 HD
BRANCH  19  21
HETATM   21  C   UNL     1     -42.819  61.142 -50.648  1.00  0.00     0.187 C 
BRANCH  21  22
HETATM   22  C   UNL     1     -42.071  59.873 -50.784  1.00  0.00     0.070 A 
HETATM   23  O   UNL     1     -42.733  58.829 -51.361  1.00  0.00    -0.325 OA
HETATM   24  C   UNL     1     -41.885  57.769 -51.352  1.00  0.00     0.142 A 
HETATM   25  C   UNL     1     -40.688  58.114 -50.771  1.00  0.00     0.027 A 
HETATM   26  C   UNL     1     -40.807  59.474 -50.400  1.00  0.00     0.036 A 
ENDBRANCH  21  22
ENDBRANCH  19  21
ENDBRANCH  17  19
ENDBRANCH  15  17
ENDBRANCH  12  15
ENDBRANCH   7  11
BRANCH   1  27
HETATM   27  C   UNL     1     -42.085  54.877 -54.783  1.00  0.00    -0.035 A 
HETATM   28  C   UNL     1     -40.973  54.185 -55.289  1.00  0.00     0.012 A 
HETATM   29  C   UNL     1     -40.262  53.289 -54.487  1.00  0.00     0.037 A 
HETATM   30  C   UNL     1     -40.640  53.071 -53.163  1.00  0.00     0.068 A 
HETATM   31  C   UNL     1     -41.779  53.703 -52.666  1.00  0.00     0.037 A 
HETATM   32  C   UNL     1     -42.501  54.592 -53.474  1.00  0.00     0.012 A 
BRANCH  30  33
HETATM   33  O   UNL     1     -39.843  52.208 -52.465  1.00  0.00    -0.356 OA
HETATM   34  C   UNL     1     -39.563  50.968 -53.105  1.00  0.00     0.210 C 
ENDBRANCH  30  33
ENDBRANCH   1  27
BRANCH   8  35
HETATM   35  C   UNL     1     -42.990  56.640 -59.405  1.00  0.00     0.409 C 
HETATM   36  F   UNL     1     -41.847  57.336 -59.598  1.00  0.00    -0.169 F 
HETATM   37  F   UNL     1     -42.728  55.357 -59.775  1.00  0.00    -0.169 F 
HETATM   38  F   UNL     1     -43.913  57.099 -60.275  1.00  0.00    -0.169 F 
ENDBRANCH   8  35
TORSDOF 9
ENDMDL
