MODEL 1
REMARK VINA RESULT:      -6.7      0.000      0.000
REMARK  4 active torsions:
REMARK  status: ('A' for Active; 'I' for Inactive)
REMARK    1  A    between atoms: C_5  and  C_6 
REMARK       I    between atoms: C_6  and  N_7 
REMARK    2  A    between atoms: N_7  and  N_8 
REMARK       I    between atoms: N_8  and  C_9 
REMARK    3  A    between atoms: C_9  and  C_10 
REMARK    4  A    between atoms: C_13  and  C_14 
ROOT
HETATM    1  N   UNL     1     -40.914  54.693 -55.643  1.00  0.00    -0.263 N 
HETATM    2  C   UNL     1     -42.245  54.912 -55.932  1.00  0.00     0.270 C 
HETATM    3  O   UNL     1     -43.105  54.043 -55.797  1.00  0.00    -0.266 OA
HETATM    4  H   UNL     1     -40.229  55.439 -55.535  1.00  0.00     0.190 HD
ENDROOT
BRANCH   2   5
HETATM    5  C   UNL     1     -42.608  56.278 -56.393  1.00  0.00     0.033 A 
HETATM    6  C   UNL     1     -42.404  57.411 -55.604  1.00  0.00     0.017 A 
HETATM    7  C   UNL     1     -42.756  58.675 -56.092  1.00  0.00     0.010 A 
HETATM    8  C   UNL     1     -43.303  58.851 -57.383  1.00  0.00    -0.035 A 
HETATM    9  C   UNL     1     -43.513  57.694 -58.150  1.00  0.00     0.010 A 
HETATM   10  C   UNL     1     -43.156  56.427 -57.670  1.00  0.00     0.017 A 
BRANCH   8  11
HETATM   11  C   UNL     1     -43.690  60.261 -57.831  1.00  0.00     0.141 C 
HETATM   12  S   UNL     1     -42.603  61.569 -57.158  1.00  0.00    -0.149 SA
HETATM   13  C   UNL     1     -41.120  61.285 -58.157  1.00  0.00     0.076 C 
HETATM   14  C   UNL     1     -41.378  61.542 -59.633  1.00  0.00     0.020 C 
HETATM   15  C   UNL     1     -42.310  60.523 -60.270  1.00  0.00     0.076 C 
HETATM   16  S   UNL     1     -44.001  60.544 -59.604  1.00  0.00    -0.149 SA
ENDBRANCH   8  11
ENDBRANCH   2   5
BRANCH   1  17
HETATM   17  N   UNL     1     -40.556  53.451 -55.105  1.00  0.00    -0.262 N 
HETATM   18  C   UNL     1     -40.373  53.339 -53.744  1.00  0.00     0.286 C 
HETATM   19  O   UNL     1     -40.479  54.312 -52.995  1.00  0.00    -0.264 OA
HETATM   20  H   UNL     1     -40.571  52.658 -55.740  1.00  0.00     0.190 HD
BRANCH  18  21
HETATM   21  C   UNL     1     -40.053  52.015 -53.261  1.00  0.00     0.102 A 
HETATM   22  N   UNL     1     -39.759  51.787 -51.932  1.00  0.00    -0.361 N 
HETATM   23  C   UNL     1     -39.479  50.463 -51.727  1.00  0.00     0.088 A 
HETATM   24  H   UNL     1     -39.751  52.514 -51.227  1.00  0.00     0.165 HD
HETATM   25  C   UNL     1     -39.595  49.816 -52.934  1.00  0.00     0.019 A 
HETATM   26  C   UNL     1     -39.955  50.788 -53.900  1.00  0.00     0.036 A 
ENDBRANCH  18  21
ENDBRANCH   1  17
TORSDOF 4
ENDMDL
MODEL 2
REMARK VINA RESULT:      -6.6      3.846      5.109
REMARK  4 active torsions:
REMARK  status: ('A' for Active; 'I' for Inactive)
REMARK    1  A    between atoms: C_5  and  C_6 
REMARK       I    between atoms: C_6  and  N_7 
REMARK    2  A    between atoms: N_7  and  N_8 
REMARK       I    between atoms: N_8  and  C_9 
REMARK    3  A    between atoms: C_9  and  C_10 
REMARK    4  A    between atoms: C_13  and  C_14 
ROOT
HETATM    1  N   UNL     1     -41.200  55.183 -52.696  1.00  0.00    -0.263 N 
HETATM    2  C   UNL     1     -41.301  56.223 -53.597  1.00  0.00     0.270 C 
HETATM    3  O   UNL     1     -41.088  56.082 -54.800  1.00  0.00    -0.266 OA
HETATM    4  H   UNL     1     -41.577  55.216 -51.750  1.00  0.00     0.190 HD
ENDROOT
BRANCH   2   5
HETATM    5  C   UNL     1     -41.714  57.540 -53.046  1.00  0.00     0.033 A 
HETATM    6  C   UNL     1     -41.452  58.741 -53.708  1.00  0.00     0.017 A 
HETATM    7  C   UNL     1     -41.871  59.954 -53.148  1.00  0.00     0.010 A 
HETATM    8  C   UNL     1     -42.577  60.007 -51.925  1.00  0.00    -0.035 A 
HETATM    9  C   UNL     1     -42.814  58.786 -51.271  1.00  0.00     0.010 A 
HETATM   10  C   UNL     1     -42.403  57.569 -51.831  1.00  0.00     0.017 A 
BRANCH   8  11
HETATM   11  C   UNL     1     -42.974  61.373 -51.364  1.00  0.00     0.141 C 
HETATM   12  S   UNL     1     -43.752  62.476 -52.599  1.00  0.00    -0.149 SA
HETATM   13  C   UNL     1     -45.372  61.681 -52.748  1.00  0.00     0.076 C 
HETATM   14  C   UNL     1     -46.151  61.742 -51.444  1.00  0.00     0.020 C 
HETATM   15  C   UNL     1     -45.550  60.885 -50.341  1.00  0.00     0.076 C 
HETATM   16  S   UNL     1     -43.902  61.422 -49.796  1.00  0.00    -0.149 SA
ENDBRANCH   8  11
ENDBRANCH   2   5
BRANCH   1  17
HETATM   17  N   UNL     1     -40.918  53.907 -53.198  1.00  0.00    -0.262 N 
HETATM   18  C   UNL     1     -40.203  53.024 -52.418  1.00  0.00     0.286 C 
HETATM   19  O   UNL     1     -39.773  53.343 -51.309  1.00  0.00    -0.264 OA
HETATM   20  H   UNL     1     -41.369  53.651 -54.072  1.00  0.00     0.190 HD
BRANCH  18  21
HETATM   21  C   UNL     1     -39.995  51.711 -52.987  1.00  0.00     0.102 A 
HETATM   22  N   UNL     1     -39.581  50.649 -52.210  1.00  0.00    -0.361 N 
HETATM   23  C   UNL     1     -39.445  49.523 -52.976  1.00  0.00     0.088 A 
HETATM   24  H   UNL     1     -39.403  50.718 -51.215  1.00  0.00     0.165 HD
HETATM   25  C   UNL     1     -39.778  49.850 -54.269  1.00  0.00     0.019 A 
HETATM   26  C   UNL     1     -40.124  51.225 -54.279  1.00  0.00     0.036 A 
ENDBRANCH  18  21
ENDBRANCH   1  17
TORSDOF 4
ENDMDL
MODEL 3
REMARK VINA RESULT:      -6.6      3.977      4.904
REMARK  4 active torsions:
REMARK  status: ('A' for Active; 'I' for Inactive)
REMARK    1  A    between atoms: C_5  and  C_6 
REMARK       I    between atoms: C_6  and  N_7 
REMARK    2  A    between atoms: N_7  and  N_8 
REMARK       I    between atoms: N_8  and  C_9 
REMARK    3  A    between atoms: C_9  and  C_10 
REMARK    4  A    between atoms: C_13  and  C_14 
ROOT
HETATM    1  N   UNL     1     -42.179  55.021 -52.985  1.00  0.00    -0.263 N 
HETATM    2  C   UNL     1     -43.367  55.453 -53.536  1.00  0.00     0.270 C 
HETATM    3  O   UNL     1     -43.964  54.821 -54.407  1.00  0.00    -0.266 OA
HETATM    4  H   UNL     1     -41.784  55.400 -52.126  1.00  0.00     0.190 HD
ENDROOT
BRANCH   2   5
HETATM    5  C   UNL     1     -43.923  56.725 -53.004  1.00  0.00     0.033 A 
HETATM    6  C   UNL     1     -44.185  56.913 -51.645  1.00  0.00     0.017 A 
HETATM    7  C   UNL     1     -44.700  58.136 -51.196  1.00  0.00     0.010 A 
HETATM    8  C   UNL     1     -44.951  59.210 -52.079  1.00  0.00    -0.035 A 
HETATM    9  C   UNL     1     -44.693  58.989 -53.443  1.00  0.00     0.010 A 
HETATM   10  C   UNL     1     -44.171  57.770 -53.897  1.00  0.00     0.017 A 
BRANCH   8  11
HETATM   11  C   UNL     1     -45.542  60.502 -51.515  1.00  0.00     0.141 C 
HETATM   12  S   UNL     1     -45.126  60.794 -49.758  1.00  0.00    -0.149 SA
HETATM   13  C   UNL     1     -43.383  61.256 -49.924  1.00  0.00     0.076 C 
HETATM   14  C   UNL     1     -43.216  62.546 -50.711  1.00  0.00     0.020 C 
HETATM   15  C   UNL     1     -43.581  62.408 -52.181  1.00  0.00     0.076 C 
HETATM   16  S   UNL     1     -45.334  62.035 -52.480  1.00  0.00    -0.149 SA
ENDBRANCH   8  11
ENDBRANCH   2   5
BRANCH   1  17
HETATM   17  N   UNL     1     -41.685  53.774 -53.388  1.00  0.00    -0.262 N 
HETATM   18  C   UNL     1     -40.662  53.195 -52.668  1.00  0.00     0.286 C 
HETATM   19  O   UNL     1     -40.147  53.765 -51.705  1.00  0.00    -0.264 OA
HETATM   20  H   UNL     1     -42.197  53.298 -54.125  1.00  0.00     0.190 HD
BRANCH  18  21
HETATM   21  C   UNL     1     -40.241  51.888 -53.118  1.00  0.00     0.102 A 
HETATM   22  N   UNL     1     -39.731  50.956 -52.238  1.00  0.00    -0.361 N 
HETATM   23  C   UNL     1     -39.395  49.807 -52.902  1.00  0.00     0.088 A 
HETATM   24  H   UNL     1     -39.625  51.122 -51.244  1.00  0.00     0.165 HD
HETATM   25  C   UNL     1     -39.692  49.988 -54.232  1.00  0.00     0.019 A 
HETATM   26  C   UNL     1     -40.223  51.295 -54.371  1.00  0.00     0.036 A 
ENDBRANCH  18  21
ENDBRANCH   1  17
TORSDOF 4
ENDMDL
MODEL 4
REMARK VINA RESULT:      -6.6      4.612      5.264
REMARK  4 active torsions:
REMARK  status: ('A' for Active; 'I' for Inactive)
REMARK    1  A    between atoms: C_5  and  C_6 
REMARK       I    between atoms: C_6  and  N_7 
REMARK    2  A    between atoms: N_7  and  N_8 
REMARK       I    between atoms: N_8  and  C_9 
REMARK    3  A    between atoms: C_9  and  C_10 
REMARK    4  A    between atoms: C_13  and  C_14 
ROOT
HETATM    1  N   UNL     1     -41.425  55.338 -52.599  1.00  0.00    -0.263 N 
HETATM    2  C   UNL     1     -42.672  55.870 -52.856  1.00  0.00     0.270 C 
HETATM    3  O   UNL     1     -43.494  55.314 -53.582  1.00  0.00    -0.266 OA
HETATM    4  H   UNL     1     -40.821  55.656 -51.844  1.00  0.00     0.190 HD
ENDROOT
BRANCH   2   5
HETATM    5  C   UNL     1     -42.997  57.155 -52.183  1.00  0.00     0.033 A 
HETATM    6  C   UNL     1     -42.030  58.129 -51.928  1.00  0.00     0.017 A 
HETATM    7  C   UNL     1     -42.393  59.326 -51.299  1.00  0.00     0.010 A 
HETATM    8  C   UNL     1     -43.727  59.597 -50.921  1.00  0.00    -0.035 A 
HETATM    9  C   UNL     1     -44.678  58.593 -51.174  1.00  0.00     0.010 A 
HETATM   10  C   UNL     1     -44.322  57.397 -51.810  1.00  0.00     0.017 A 
BRANCH   8  11
HETATM   11  C   UNL     1     -44.038  60.914 -50.210  1.00  0.00     0.141 C 
HETATM   12  S   UNL     1     -43.151  62.352 -50.911  1.00  0.00    -0.149 SA
HETATM   13  C   UNL     1     -44.077  62.566 -52.453  1.00  0.00     0.076 C 
HETATM   14  C   UNL     1     -45.527  62.937 -52.191  1.00  0.00     0.020 C 
HETATM   15  C   UNL     1     -46.335  61.810 -51.567  1.00  0.00     0.076 C 
HETATM   16  S   UNL     1     -45.784  61.334 -49.901  1.00  0.00    -0.149 SA
ENDBRANCH   8  11
ENDBRANCH   2   5
BRANCH   1  17
HETATM   17  N   UNL     1     -41.129  54.078 -53.131  1.00  0.00    -0.262 N 
HETATM   18  C   UNL     1     -40.343  53.211 -52.403  1.00  0.00     0.286 C 
HETATM   19  O   UNL     1     -39.865  53.532 -51.313  1.00  0.00    -0.264 OA
HETATM   20  H   UNL     1     -41.617  53.817 -53.984  1.00  0.00     0.190 HD
BRANCH  18  21
HETATM   21  C   UNL     1     -40.123  51.912 -52.998  1.00  0.00     0.102 A 
HETATM   22  N   UNL     1     -39.645  50.853 -52.255  1.00  0.00    -0.361 N 
HETATM   23  C   UNL     1     -39.510  49.742 -53.041  1.00  0.00     0.088 A 
HETATM   24  H   UNL     1     -39.427  50.915 -51.267  1.00  0.00     0.165 HD
HETATM   25  C   UNL     1     -39.908  50.075 -54.314  1.00  0.00     0.019 A 
HETATM   26  C   UNL     1     -40.293  51.439 -54.291  1.00  0.00     0.036 A 
ENDBRANCH  18  21
ENDBRANCH   1  17
TORSDOF 4
ENDMDL
MODEL 5
REMARK VINA RESULT:      -6.5     17.884     20.254
REMARK  4 active torsions:
REMARK  status: ('A' for Active; 'I' for Inactive)
REMARK    1  A    between atoms: C_5  and  C_6 
REMARK       I    between atoms: C_6  and  N_7 
REMARK    2  A    between atoms: N_7  and  N_8 
REMARK       I    between atoms: N_8  and  C_9 
REMARK    3  A    between atoms: C_9  and  C_10 
REMARK    4  A    between atoms: C_13  and  C_14 
ROOT
HETATM    1  N   UNL     1     -31.240  40.172 -47.932  1.00  0.00    -0.263 N 
HETATM    2  C   UNL     1     -31.797  39.262 -48.806  1.00  0.00     0.270 C 
HETATM    3  O   UNL     1     -31.752  38.047 -48.618  1.00  0.00    -0.266 OA
HETATM    4  H   UNL     1     -31.449  41.169 -47.946  1.00  0.00     0.190 HD
ENDROOT
BRANCH   2   5
HETATM    5  C   UNL     1     -32.490  39.823 -49.996  1.00  0.00     0.033 A 
HETATM    6  C   UNL     1     -31.824  40.078 -51.196  1.00  0.00     0.017 A 
HETATM    7  C   UNL     1     -32.529  40.598 -52.289  1.00  0.00     0.010 A 
HETATM    8  C   UNL     1     -33.915  40.862 -52.226  1.00  0.00    -0.035 A 
HETATM    9  C   UNL     1     -34.558  40.612 -51.002  1.00  0.00     0.010 A 
HETATM   10  C   UNL     1     -33.860  40.084 -49.908  1.00  0.00     0.017 A 
BRANCH   8  11
HETATM   11  C   UNL     1     -34.605  41.459 -53.453  1.00  0.00     0.141 C 
HETATM   12  S   UNL     1     -34.051  40.728 -55.035  1.00  0.00    -0.149 SA
HETATM   13  C   UNL     1     -34.864  39.114 -54.934  1.00  0.00     0.076 C 
HETATM   14  C   UNL     1     -36.379  39.246 -54.933  1.00  0.00     0.020 C 
HETATM   15  C   UNL     1     -36.929  39.885 -53.668  1.00  0.00     0.076 C 
HETATM   16  S   UNL     1     -36.422  41.613 -53.427  1.00  0.00    -0.149 SA
ENDBRANCH   8  11
ENDBRANCH   2   5
BRANCH   1  17
HETATM   17  N   UNL     1     -30.674  39.682 -46.749  1.00  0.00    -0.262 N 
HETATM   18  C   UNL     1     -29.892  40.520 -45.984  1.00  0.00     0.286 C 
HETATM   19  O   UNL     1     -29.648  41.676 -46.335  1.00  0.00    -0.264 OA
HETATM   20  H   UNL     1     -30.975  38.760 -46.448  1.00  0.00     0.190 HD
BRANCH  18  21
HETATM   21  C   UNL     1     -29.385  39.955 -44.754  1.00  0.00     0.102 A 
HETATM   22  N   UNL     1     -28.966  40.759 -43.714  1.00  0.00    -0.361 N 
HETATM   23  C   UNL     1     -28.519  39.993 -42.671  1.00  0.00     0.088 A 
HETATM   24  H   UNL     1     -28.989  41.771 -43.743  1.00  0.00     0.165 HD
HETATM   25  C   UNL     1     -28.651  38.673 -43.030  1.00  0.00     0.019 A 
HETATM   26  C   UNL     1     -29.194  38.646 -44.339  1.00  0.00     0.036 A 
ENDBRANCH  18  21
ENDBRANCH   1  17
TORSDOF 4
ENDMDL
MODEL 6
REMARK VINA RESULT:      -6.3      4.957      5.674
REMARK  4 active torsions:
REMARK  status: ('A' for Active; 'I' for Inactive)
REMARK    1  A    between atoms: C_5  and  C_6 
REMARK       I    between atoms: C_6  and  N_7 
REMARK    2  A    between atoms: N_7  and  N_8 
REMARK       I    between atoms: N_8  and  C_9 
REMARK    3  A    between atoms: C_9  and  C_10 
REMARK    4  A    between atoms: C_13  and  C_14 
ROOT
HETATM    1  N   UNL     1     -41.525  55.721 -51.945  1.00  0.00    -0.263 N 
HETATM    2  C   UNL     1     -41.476  56.923 -52.621  1.00  0.00     0.270 C 
HETATM    3  O   UNL     1     -41.044  57.022 -53.768  1.00  0.00    -0.266 OA
HETATM    4  H   UNL     1     -42.069  55.572 -51.097  1.00  0.00     0.190 HD
ENDROOT
BRANCH   2   5
HETATM    5  C   UNL     1     -42.005  58.111 -51.902  1.00  0.00     0.033 A 
HETATM    6  C   UNL     1     -41.169  59.043 -51.284  1.00  0.00     0.017 A 
HETATM    7  C   UNL     1     -41.721  60.150 -50.628  1.00  0.00     0.010 A 
HETATM    8  C   UNL     1     -43.115  60.372 -50.581  1.00  0.00    -0.035 A 
HETATM    9  C   UNL     1     -43.935  59.411 -51.196  1.00  0.00     0.010 A 
HETATM   10  C   UNL     1     -43.388  58.305 -51.861  1.00  0.00     0.017 A 
BRANCH   8  11
HETATM   11  C   UNL     1     -43.641  61.588 -49.818  1.00  0.00     0.141 C 
HETATM   12  S   UNL     1     -43.005  63.182 -50.451  1.00  0.00    -0.149 SA
HETATM   13  C   UNL     1     -43.952  63.306 -51.989  1.00  0.00     0.076 C 
HETATM   14  C   UNL     1     -45.444  63.418 -51.724  1.00  0.00     0.020 C 
HETATM   15  C   UNL     1     -46.054  62.147 -51.155  1.00  0.00     0.076 C 
HETATM   16  S   UNL     1     -45.433  61.698 -49.506  1.00  0.00    -0.149 SA
ENDBRANCH   8  11
ENDBRANCH   2   5
BRANCH   1  17
HETATM   17  N   UNL     1     -41.134  54.566 -52.632  1.00  0.00    -0.262 N 
HETATM   18  C   UNL     1     -40.501  53.556 -51.940  1.00  0.00     0.286 C 
HETATM   19  O   UNL     1     -40.238  53.662 -50.741  1.00  0.00    -0.264 OA
HETATM   20  H   UNL     1     -41.452  54.478 -53.594  1.00  0.00     0.190 HD
BRANCH  18  21
HETATM   21  C   UNL     1     -40.174  52.378 -52.710  1.00  0.00     0.102 A 
HETATM   22  N   UNL     1     -39.675  51.242 -52.107  1.00  0.00    -0.361 N 
HETATM   23  C   UNL     1     -39.433  50.273 -53.042  1.00  0.00     0.088 A 
HETATM   24  H   UNL     1     -39.512  51.162 -51.110  1.00  0.00     0.165 HD
HETATM   25  C   UNL     1     -39.781  50.778 -54.272  1.00  0.00     0.019 A 
HETATM   26  C   UNL     1     -40.247  52.101 -54.067  1.00  0.00     0.036 A 
ENDBRANCH  18  21
ENDBRANCH   1  17
TORSDOF 4
ENDMDL
MODEL 7
REMARK VINA RESULT:      -6.3      4.768      5.860
REMARK  4 active torsions:
REMARK  status: ('A' for Active; 'I' for Inactive)
REMARK    1  A    between atoms: C_5  and  C_6 
REMARK       I    between atoms: C_6  and  N_7 
REMARK    2  A    between atoms: N_7  and  N_8 
REMARK       I    between atoms: N_8  and  C_9 
REMARK    3  A    between atoms: C_9  and  C_10 
REMARK    4  A    between atoms: C_13  and  C_14 
ROOT
HETATM    1  N   UNL     1     -42.788  55.622 -52.629  1.00  0.00    -0.263 N 
HETATM    2  C   UNL     1     -42.946  56.272 -51.422  1.00  0.00     0.270 C 
HETATM    3  O   UNL     1     -42.648  55.756 -50.347  1.00  0.00    -0.266 OA
HETATM    4  H   UNL     1     -42.817  56.093 -53.532  1.00  0.00     0.190 HD
ENDROOT
BRANCH   2   5
HETATM    5  C   UNL     1     -43.477  57.659 -51.480  1.00  0.00     0.033 A 
HETATM    6  C   UNL     1     -42.724  58.726 -51.976  1.00  0.00     0.017 A 
HETATM    7  C   UNL     1     -43.276  60.012 -52.016  1.00  0.00     0.010 A 
HETATM    8  C   UNL     1     -44.595  60.272 -51.582  1.00  0.00    -0.035 A 
HETATM    9  C   UNL     1     -45.325  59.185 -51.072  1.00  0.00     0.010 A 
HETATM   10  C   UNL     1     -44.781  57.894 -51.037  1.00  0.00     0.017 A 
BRANCH   8  11
HETATM   11  C   UNL     1     -45.115  61.709 -51.628  1.00  0.00     0.141 C 
HETATM   12  S   UNL     1     -46.254  62.123 -50.258  1.00  0.00    -0.149 SA
HETATM   13  C   UNL     1     -45.070  62.229 -48.892  1.00  0.00     0.076 C 
HETATM   14  C   UNL     1     -44.078  63.363 -49.094  1.00  0.00     0.020 C 
HETATM   15  C   UNL     1     -43.113  63.123 -50.245  1.00  0.00     0.076 C 
HETATM   16  S   UNL     1     -43.907  63.052 -51.878  1.00  0.00    -0.149 SA
ENDBRANCH   8  11
ENDBRANCH   2   5
BRANCH   1  17
HETATM   17  N   UNL     1     -42.192  54.356 -52.618  1.00  0.00    -0.262 N 
HETATM   18  C   UNL     1     -41.052  54.146 -53.365  1.00  0.00     0.286 C 
HETATM   19  O   UNL     1     -40.569  55.033 -54.070  1.00  0.00    -0.264 OA
HETATM   20  H   UNL     1     -42.564  53.682 -51.954  1.00  0.00     0.190 HD
BRANCH  18  21
HETATM   21  C   UNL     1     -40.470  52.827 -53.262  1.00  0.00     0.102 A 
HETATM   22  N   UNL     1     -40.029  52.329 -52.053  1.00  0.00    -0.361 N 
HETATM   23  C   UNL     1     -39.510  51.074 -52.216  1.00  0.00     0.088 A 
HETATM   24  H   UNL     1     -40.087  52.842 -51.181  1.00  0.00     0.165 HD
HETATM   25  C   UNL     1     -39.615  50.744 -53.547  1.00  0.00     0.019 A 
HETATM   26  C   UNL     1     -40.217  51.844 -54.207  1.00  0.00     0.036 A 
ENDBRANCH  18  21
ENDBRANCH   1  17
TORSDOF 4
ENDMDL
MODEL 8
REMARK VINA RESULT:      -6.3      8.021      9.999
REMARK  4 active torsions:
REMARK  status: ('A' for Active; 'I' for Inactive)
REMARK    1  A    between atoms: C_5  and  C_6 
REMARK       I    between atoms: C_6  and  N_7 
REMARK    2  A    between atoms: N_7  and  N_8 
REMARK       I    between atoms: N_8  and  C_9 
REMARK    3  A    between atoms: C_9  and  C_10 
REMARK    4  A    between atoms: C_13  and  C_14 
ROOT
HETATM    1  N   UNL     1     -44.832  60.323 -49.431  1.00  0.00    -0.263 N 
HETATM    2  C   UNL     1     -45.580  60.209 -50.584  1.00  0.00     0.270 C 
HETATM    3  O   UNL     1     -46.572  60.901 -50.804  1.00  0.00    -0.266 OA
HETATM    4  H   UNL     1     -43.899  59.929 -49.321  1.00  0.00     0.190 HD
ENDROOT
BRANCH   2   5
HETATM    5  C   UNL     1     -45.110  59.214 -51.584  1.00  0.00     0.033 A 
HETATM    6  C   UNL     1     -45.062  59.495 -52.951  1.00  0.00     0.017 A 
HETATM    7  C   UNL     1     -44.602  58.523 -53.848  1.00  0.00     0.010 A 
HETATM    8  C   UNL     1     -44.161  57.254 -53.412  1.00  0.00    -0.035 A 
HETATM    9  C   UNL     1     -44.235  56.991 -52.034  1.00  0.00     0.010 A 
HETATM   10  C   UNL     1     -44.687  57.961 -51.131  1.00  0.00     0.017 A 
BRANCH   8  11
HETATM   11  C   UNL     1     -43.702  56.237 -54.458  1.00  0.00     0.141 C 
HETATM   12  S   UNL     1     -42.218  56.761 -55.390  1.00  0.00    -0.149 SA
HETATM   13  C   UNL     1     -40.954  56.536 -54.112  1.00  0.00     0.076 C 
HETATM   14  C   UNL     1     -40.816  55.077 -53.708  1.00  0.00     0.020 C 
HETATM   15  C   UNL     1     -42.027  54.541 -52.961  1.00  0.00     0.076 C 
HETATM   16  S   UNL     1     -43.550  54.492 -53.951  1.00  0.00    -0.149 SA
ENDBRANCH   8  11
ENDBRANCH   2   5
BRANCH   1  17
HETATM   17  N   UNL     1     -45.185  61.324 -48.518  1.00  0.00    -0.262 N 
HETATM   18  C   UNL     1     -45.894  60.980 -47.388  1.00  0.00     0.286 C 
HETATM   19  O   UNL     1     -46.258  59.821 -47.181  1.00  0.00    -0.264 OA
HETATM   20  H   UNL     1     -44.787  62.246 -48.676  1.00  0.00     0.190 HD
BRANCH  18  21
HETATM   21  C   UNL     1     -46.177  62.062 -46.471  1.00  0.00     0.102 A 
HETATM   22  N   UNL     1     -47.459  62.543 -46.303  1.00  0.00    -0.361 N 
HETATM   23  C   UNL     1     -47.468  63.569 -45.398  1.00  0.00     0.088 A 
HETATM   24  H   UNL     1     -48.265  62.176 -46.796  1.00  0.00     0.165 HD
HETATM   25  C   UNL     1     -46.177  63.760 -44.965  1.00  0.00     0.019 A 
HETATM   26  C   UNL     1     -45.363  62.814 -45.638  1.00  0.00     0.036 A 
ENDBRANCH  18  21
ENDBRANCH   1  17
TORSDOF 4
ENDMDL
MODEL 9
REMARK VINA RESULT:      -6.2      5.112      9.090
REMARK  4 active torsions:
REMARK  status: ('A' for Active; 'I' for Inactive)
REMARK    1  A    between atoms: C_5  and  C_6 
REMARK       I    between atoms: C_6  and  N_7 
REMARK    2  A    between atoms: N_7  and  N_8 
REMARK       I    between atoms: N_8  and  C_9 
REMARK    3  A    between atoms: C_9  and  C_10 
REMARK    4  A    between atoms: C_13  and  C_14 
ROOT
HETATM    1  N   UNL     1     -45.531  57.123 -58.260  1.00  0.00    -0.263 N 
HETATM    2  C   UNL     1     -44.191  57.450 -58.268  1.00  0.00     0.270 C 
HETATM    3  O   UNL     1     -43.661  58.060 -59.195  1.00  0.00    -0.266 OA
HETATM    4  H   UNL     1     -46.034  56.821 -57.428  1.00  0.00     0.190 HD
ENDROOT
BRANCH   2   5
HETATM    5  C   UNL     1     -43.403  57.050 -57.072  1.00  0.00     0.033 A 
HETATM    6  C   UNL     1     -42.936  55.747 -56.887  1.00  0.00     0.017 A 
HETATM    7  C   UNL     1     -42.191  55.427 -55.746  1.00  0.00     0.010 A 
HETATM    8  C   UNL     1     -41.874  56.394 -54.766  1.00  0.00    -0.035 A 
HETATM    9  C   UNL     1     -42.370  57.693 -54.967  1.00  0.00     0.010 A 
HETATM   10  C   UNL     1     -43.110  58.021 -56.111  1.00  0.00     0.017 A 
BRANCH   8  11
HETATM   11  C   UNL     1     -41.082  55.959 -53.533  1.00  0.00     0.141 C 
HETATM   12  S   UNL     1     -41.400  56.989 -52.055  1.00  0.00    -0.149 SA
HETATM   13  C   UNL     1     -43.059  56.407 -51.622  1.00  0.00     0.076 C 
HETATM   14  C   UNL     1     -43.056  54.938 -51.231  1.00  0.00     0.020 C 
HETATM   15  C   UNL     1     -42.758  54.005 -52.394  1.00  0.00     0.076 C 
HETATM   16  S   UNL     1     -41.088  54.191 -53.088  1.00  0.00    -0.149 SA
ENDBRANCH   8  11
ENDBRANCH   2   5
BRANCH   1  17
HETATM   17  N   UNL     1     -46.322  57.579 -59.322  1.00  0.00    -0.262 N 
HETATM   18  C   UNL     1     -46.683  56.695 -60.315  1.00  0.00     0.286 C 
HETATM   19  O   UNL     1     -46.296  55.525 -60.311  1.00  0.00    -0.264 OA
HETATM   20  H   UNL     1     -46.697  58.520 -59.239  1.00  0.00     0.190 HD
BRANCH  18  21
HETATM   21  C   UNL     1     -47.540  57.230 -61.349  1.00  0.00     0.102 A 
HETATM   22  N   UNL     1     -47.493  58.563 -61.702  1.00  0.00    -0.361 N 
HETATM   23  C   UNL     1     -48.403  58.826 -62.690  1.00  0.00     0.088 A 
HETATM   24  H   UNL     1     -46.869  59.235 -61.272  1.00  0.00     0.165 HD
HETATM   25  C   UNL     1     -49.051  57.651 -62.990  1.00  0.00     0.019 A 
HETATM   26  C   UNL     1     -48.511  56.646 -62.149  1.00  0.00     0.036 A 
ENDBRANCH  18  21
ENDBRANCH   1  17
TORSDOF 4
ENDMDL
MODEL 10
REMARK VINA RESULT:      -6.2      1.631      2.574
REMARK  4 active torsions:
REMARK  status: ('A' for Active; 'I' for Inactive)
REMARK    1  A    between atoms: C_5  and  C_6 
REMARK       I    between atoms: C_6  and  N_7 
REMARK    2  A    between atoms: N_7  and  N_8 
REMARK       I    between atoms: N_8  and  C_9 
REMARK    3  A    between atoms: C_9  and  C_10 
REMARK    4  A    between atoms: C_13  and  C_14 
ROOT
HETATM    1  N   UNL     1     -41.176  54.885 -55.828  1.00  0.00    -0.263 N 
HETATM    2  C   UNL     1     -42.520  54.937 -56.139  1.00  0.00     0.270 C 
HETATM    3  O   UNL     1     -43.305  54.038 -55.842  1.00  0.00    -0.266 OA
HETATM    4  H   UNL     1     -40.558  55.693 -55.863  1.00  0.00     0.190 HD
ENDROOT
BRANCH   2   5
HETATM    5  C   UNL     1     -42.993  56.162 -56.835  1.00  0.00     0.033 A 
HETATM    6  C   UNL     1     -43.272  57.347 -56.153  1.00  0.00     0.017 A 
HETATM    7  C   UNL     1     -43.707  58.475 -56.860  1.00  0.00     0.010 A 
HETATM    8  C   UNL     1     -43.859  58.463 -58.264  1.00  0.00    -0.035 A 
HETATM    9  C   UNL     1     -43.588  57.253 -58.925  1.00  0.00     0.010 A 
HETATM   10  C   UNL     1     -43.145  56.124 -58.224  1.00  0.00     0.017 A 
BRANCH   8  11
HETATM   11  C   UNL     1     -44.368  59.726 -58.959  1.00  0.00     0.141 C 
HETATM   12  S   UNL     1     -45.262  59.395 -60.520  1.00  0.00    -0.149 SA
HETATM   13  C   UNL     1     -46.807  58.722 -59.856  1.00  0.00     0.076 C 
HETATM   14  C   UNL     1     -47.566  59.755 -59.040  1.00  0.00     0.020 C 
HETATM   15  C   UNL     1     -46.872  60.124 -57.738  1.00  0.00     0.076 C 
HETATM   16  S   UNL     1     -45.270  60.954 -57.959  1.00  0.00    -0.149 SA
ENDBRANCH   8  11
ENDBRANCH   2   5
BRANCH   1  17
HETATM   17  N   UNL     1     -40.719  53.795 -55.079  1.00  0.00    -0.262 N 
HETATM   18  C   UNL     1     -40.642  53.910 -53.708  1.00  0.00     0.286 C 
HETATM   19  O   UNL     1     -40.928  54.960 -53.131  1.00  0.00    -0.264 OA
HETATM   20  H   UNL     1     -40.584  52.921 -55.581  1.00  0.00     0.190 HD
BRANCH  18  21
HETATM   21  C   UNL     1     -40.207  52.726 -53.002  1.00  0.00     0.102 A 
HETATM   22  N   UNL     1     -40.087  52.712 -51.628  1.00  0.00    -0.361 N 
HETATM   23  C   UNL     1     -39.649  51.488 -51.200  1.00  0.00     0.088 A 
HETATM   24  H   UNL     1     -40.293  53.511 -51.039  1.00  0.00     0.165 HD
HETATM   25  C   UNL     1     -39.485  50.689 -52.307  1.00  0.00     0.019 A 
HETATM   26  C   UNL     1     -39.834  51.464 -53.441  1.00  0.00     0.036 A 
ENDBRANCH  18  21
ENDBRANCH   1  17
TORSDOF 4
ENDMDL
