MODEL 1
REMARK VINA RESULT:      -8.5      0.000      0.000
REMARK  5 active torsions:
REMARK  status: ('A' for Active; 'I' for Inactive)
REMARK    1  A    between atoms: C_5  and  C_6 
REMARK    2  A    between atoms: C_6  and  O_7 
REMARK    3  A    between atoms: O_7  and  C_8 
REMARK    4  A    between atoms: C_12  and  C_13 
REMARK    5  A    between atoms: C_30  and  O_31 
ROOT
HETATM    1  C   UNL     1     -42.427  56.296 -53.184  1.00  0.00     0.130 A 
HETATM    2  C   UNL     1     -42.233  57.635 -52.827  1.00  0.00     0.048 A 
HETATM    3 BR   UNL     1     -40.844  58.183 -51.651  1.00  0.00    -0.048 Br
HETATM    4  C   UNL     1     -43.110  58.619 -53.289  1.00  0.00     0.033 A 
HETATM    5  C   UNL     1     -44.227  58.289 -54.075  1.00  0.00    -0.012 A 
HETATM    6  C   UNL     1     -44.392  56.937 -54.434  1.00  0.00     0.050 A 
HETATM    7  C   UNL     1     -43.523  55.937 -53.972  1.00  0.00     0.104 A 
ENDROOT
BRANCH   5   8
HETATM    8  C   UNL     1     -45.293  59.306 -54.482  1.00  0.00     0.219 C 
HETATM    9  N   UNL     1     -44.693  60.598 -54.732  1.00  0.00    -0.332 N 
HETATM   10  C   UNL     1     -44.041  60.882 -55.904  1.00  0.00     0.256 C 
HETATM   11  H   UNL     1     -44.384  61.142 -53.940  1.00  0.00     0.165 HD
HETATM   12  O   UNL     1     -43.222  61.791 -55.993  1.00  0.00    -0.267 OA
HETATM   13  C   UNL     1     -44.407  60.039 -57.030  1.00  0.00     0.073 A 
HETATM   14  C   UNL     1     -45.435  59.137 -56.869  1.00  0.00     0.088 A 
HETATM   15  C   UNL     1     -43.826  59.952 -58.332  1.00  0.00    -0.023 A 
HETATM   16  S   UNL     1     -45.780  58.276 -58.293  1.00  0.00    -0.074 SA
HETATM   17  N   UNL     1     -46.041  58.932 -55.675  1.00  0.00    -0.358 N 
HETATM   18  C   UNL     1     -44.475  59.008 -59.108  1.00  0.00     0.018 A 
HETATM   19  C   UNL     1     -44.076  58.605 -60.484  1.00  0.00     0.281 C 
HETATM   20  N   UNL     1     -43.072  59.582 -61.089  1.00  0.00    -0.070 N 
HETATM   21  C   UNL     1     -42.022  60.022 -60.070  1.00  0.00     0.239 C 
HETATM   22  H   UNL     1     -42.570  59.056 -61.815  1.00  0.00     0.279 HD
HETATM   23  C   UNL     1     -43.737  60.730 -61.789  1.00  0.00     0.270 C 
HETATM   24  C   UNL     1     -42.650  60.722 -58.853  1.00  0.00     0.068 C 
HETATM   25  H   UNL     1     -46.650  58.128 -55.554  1.00  0.00     0.162 HD
ENDBRANCH   5   8
BRANCH   7  26
HETATM   26  O   UNL     1     -43.850  54.676 -54.387  1.00  0.00    -0.353 OA
HETATM   27  C   UNL     1     -43.348  54.294 -55.663  1.00  0.00     0.210 C 
ENDBRANCH   7  26
BRANCH   1  28
HETATM   28  O   UNL     1     -41.554  55.322 -52.693  1.00  0.00    -0.271 OA
BRANCH  28  29
HETATM   29  C   UNL     1     -40.661  54.871 -53.648  1.00  0.00     0.298 C 
HETATM   30  O   UNL     1     -40.142  55.525 -54.539  1.00  0.00    -0.259 OA
BRANCH  29  31
HETATM   31  C   UNL     1     -40.319  53.455 -53.350  1.00  0.00     0.040 A 
HETATM   32  C   UNL     1     -40.072  53.105 -52.016  1.00  0.00     0.018 A 
HETATM   33  C   UNL     1     -39.817  51.775 -51.675  1.00  0.00     0.007 A 
HETATM   34  C   UNL     1     -39.807  50.779 -52.658  1.00  0.00    -0.062 A 
HETATM   35  C   UNL     1     -39.520  49.351 -52.296  1.00  0.00     0.048 C 
HETATM   36  C   UNL     1     -40.019  51.137 -53.995  1.00  0.00     0.007 A 
HETATM   37  C   UNL     1     -40.278  52.466 -54.341  1.00  0.00     0.018 A 
ENDBRANCH  29  31
ENDBRANCH  28  29
ENDBRANCH   1  28
TORSDOF 5
ENDMDL
MODEL 2
REMARK VINA RESULT:      -8.4      1.489      2.351
REMARK  5 active torsions:
REMARK  status: ('A' for Active; 'I' for Inactive)
REMARK    1  A    between atoms: C_5  and  C_6 
REMARK    2  A    between atoms: C_6  and  O_7 
REMARK    3  A    between atoms: O_7  and  C_8 
REMARK    4  A    between atoms: C_12  and  C_13 
REMARK    5  A    between atoms: C_30  and  O_31 
ROOT
HETATM    1  C   UNL     1     -41.820  56.789 -53.750  1.00  0.00     0.130 A 
HETATM    2  C   UNL     1     -43.134  56.508 -54.143  1.00  0.00     0.048 A 
HETATM    3 BR   UNL     1     -43.693  54.763 -54.648  1.00  0.00    -0.048 Br
HETATM    4  C   UNL     1     -44.076  57.536 -54.232  1.00  0.00     0.033 A 
HETATM    5  C   UNL     1     -43.722  58.872 -53.982  1.00  0.00    -0.012 A 
HETATM    6  C   UNL     1     -42.397  59.128 -53.574  1.00  0.00     0.050 A 
HETATM    7  C   UNL     1     -41.440  58.107 -53.485  1.00  0.00     0.104 A 
ENDROOT
BRANCH   5   8
HETATM    8  C   UNL     1     -44.674  60.046 -54.208  1.00  0.00     0.219 C 
HETATM    9  N   UNL     1     -43.963  61.173 -54.771  1.00  0.00    -0.332 N 
HETATM   10  C   UNL     1     -43.640  61.238 -56.102  1.00  0.00     0.256 C 
HETATM   11  H   UNL     1     -43.352  61.702 -54.168  1.00  0.00     0.165 HD
HETATM   12  O   UNL     1     -42.743  61.960 -56.524  1.00  0.00    -0.267 OA
HETATM   13  C   UNL     1     -44.453  60.403 -56.972  1.00  0.00     0.073 A 
HETATM   14  C   UNL     1     -45.527  59.736 -56.428  1.00  0.00     0.088 A 
HETATM   15  C   UNL     1     -44.297  60.110 -58.362  1.00  0.00    -0.023 A 
HETATM   16  S   UNL     1     -46.409  58.858 -57.585  1.00  0.00    -0.074 SA
HETATM   17  N   UNL     1     -45.787  59.741 -55.098  1.00  0.00    -0.358 N 
HETATM   18  C   UNL     1     -45.292  59.258 -58.807  1.00  0.00     0.018 A 
HETATM   19  C   UNL     1     -45.382  58.686 -60.179  1.00  0.00     0.281 C 
HETATM   20  N   UNL     1     -44.447  59.399 -61.150  1.00  0.00    -0.070 N 
HETATM   21  C   UNL     1     -43.089  59.698 -60.518  1.00  0.00     0.239 C 
HETATM   22  H   UNL     1     -44.272  58.734 -61.913  1.00  0.00     0.279 HD
HETATM   23  C   UNL     1     -45.084  60.602 -61.783  1.00  0.00     0.270 C 
HETATM   24  C   UNL     1     -43.210  60.594 -59.274  1.00  0.00     0.068 C 
HETATM   25  H   UNL     1     -46.461  59.084 -54.717  1.00  0.00     0.162 HD
ENDBRANCH   5   8
BRANCH   7  26
HETATM   26  O   UNL     1     -40.197  58.536 -53.109  1.00  0.00    -0.353 OA
HETATM   27  C   UNL     1     -40.071  58.954 -51.754  1.00  0.00     0.210 C 
ENDBRANCH   7  26
BRANCH   1  28
HETATM   28  O   UNL     1     -40.886  55.753 -53.690  1.00  0.00    -0.271 OA
BRANCH  28  29
HETATM   29  C   UNL     1     -40.913  55.077 -52.483  1.00  0.00     0.298 C 
HETATM   30  O   UNL     1     -41.264  55.516 -51.400  1.00  0.00    -0.259 OA
BRANCH  29  31
HETATM   31  C   UNL     1     -40.555  53.653 -52.727  1.00  0.00     0.040 A 
HETATM   32  C   UNL     1     -40.712  53.148 -54.023  1.00  0.00     0.018 A 
HETATM   33  C   UNL     1     -40.323  51.840 -54.319  1.00  0.00     0.007 A 
HETATM   34  C   UNL     1     -39.772  51.021 -53.327  1.00  0.00    -0.062 A 
HETATM   35  C   UNL     1     -39.365  49.611 -53.638  1.00  0.00     0.048 C 
HETATM   36  C   UNL     1     -39.648  51.517 -52.023  1.00  0.00     0.007 A 
HETATM   37  C   UNL     1     -40.033  52.827 -51.723  1.00  0.00     0.018 A 
ENDBRANCH  29  31
ENDBRANCH  28  29
ENDBRANCH   1  28
TORSDOF 5
ENDMDL
MODEL 3
REMARK VINA RESULT:      -8.1     17.049     20.299
REMARK  5 active torsions:
REMARK  status: ('A' for Active; 'I' for Inactive)
REMARK    1  A    between atoms: C_5  and  C_6 
REMARK    2  A    between atoms: C_6  and  O_7 
REMARK    3  A    between atoms: O_7  and  C_8 
REMARK    4  A    between atoms: C_12  and  C_13 
REMARK    5  A    between atoms: C_30  and  O_31 
ROOT
HETATM    1  C   UNL     1     -36.730  39.345 -58.384  1.00  0.00     0.130 A 
HETATM    2  C   UNL     1     -35.711  38.689 -57.684  1.00  0.00     0.048 A 
HETATM    3 BR   UNL     1     -35.559  36.795 -57.648  1.00  0.00    -0.048 Br
HETATM    4  C   UNL     1     -34.794  39.422 -56.928  1.00  0.00     0.033 A 
HETATM    5  C   UNL     1     -34.897  40.819 -56.811  1.00  0.00    -0.012 A 
HETATM    6  C   UNL     1     -35.922  41.457 -57.537  1.00  0.00     0.050 A 
HETATM    7  C   UNL     1     -36.854  40.734 -58.295  1.00  0.00     0.104 A 
ENDROOT
BRANCH   5   8
HETATM    8  C   UNL     1     -34.012  41.648 -55.881  1.00  0.00     0.219 C 
HETATM    9  N   UNL     1     -34.822  42.475 -55.014  1.00  0.00    -0.332 N 
HETATM   10  C   UNL     1     -35.441  41.972 -53.899  1.00  0.00     0.256 C 
HETATM   11  H   UNL     1     -35.273  43.285 -55.412  1.00  0.00     0.165 HD
HETATM   12  O   UNL     1     -36.405  42.525 -53.381  1.00  0.00    -0.267 OA
HETATM   13  C   UNL     1     -34.859  40.748 -53.373  1.00  0.00     0.073 A 
HETATM   14  C   UNL     1     -33.695  40.278 -53.939  1.00  0.00     0.088 A 
HETATM   15  C   UNL     1     -35.333  39.882 -52.341  1.00  0.00    -0.023 A 
HETATM   16  S   UNL     1     -33.111  38.879 -53.171  1.00  0.00    -0.074 SA
HETATM   17  N   UNL     1     -33.136  40.850 -55.032  1.00  0.00    -0.358 N 
HETATM   18  C   UNL     1     -34.475  38.813 -52.152  1.00  0.00     0.018 A 
HETATM   19  C   UNL     1     -34.708  37.680 -51.216  1.00  0.00     0.281 C 
HETATM   20  N   UNL     1     -35.835  37.983 -50.233  1.00  0.00    -0.070 N 
HETATM   21  C   UNL     1     -37.008  38.687 -50.911  1.00  0.00     0.239 C 
HETATM   22  H   UNL     1     -36.186  37.071 -49.917  1.00  0.00     0.279 HD
HETATM   23  C   UNL     1     -35.349  38.691 -49.002  1.00  0.00     0.270 C 
HETATM   24  C   UNL     1     -36.595  40.026 -51.546  1.00  0.00     0.068 C 
HETATM   25  H   UNL     1     -32.399  40.361 -55.532  1.00  0.00     0.162 HD
ENDBRANCH   5   8
BRANCH   7  26
HETATM   26  O   UNL     1     -37.800  41.507 -58.907  1.00  0.00    -0.353 OA
HETATM   27  C   UNL     1     -37.323  42.383 -59.923  1.00  0.00     0.210 C 
ENDBRANCH   7  26
BRANCH   1  28
HETATM   28  O   UNL     1     -37.653  38.593 -59.116  1.00  0.00    -0.271 OA
BRANCH  28  29
HETATM   29  C   UNL     1     -37.423  38.640 -60.479  1.00  0.00     0.298 C 
HETATM   30  O   UNL     1     -36.360  38.853 -61.040  1.00  0.00    -0.259 OA
BRANCH  29  31
HETATM   31  C   UNL     1     -38.675  38.261 -61.187  1.00  0.00     0.040 A 
HETATM   32  C   UNL     1     -39.861  38.210 -60.444  1.00  0.00     0.018 A 
HETATM   33  C   UNL     1     -41.074  37.929 -61.075  1.00  0.00     0.007 A 
HETATM   34  C   UNL     1     -41.119  37.697 -62.455  1.00  0.00    -0.062 A 
HETATM   35  C   UNL     1     -42.419  37.383 -63.135  1.00  0.00     0.048 C 
HETATM   36  C   UNL     1     -39.927  37.714 -63.190  1.00  0.00     0.007 A 
HETATM   37  C   UNL     1     -38.711  37.998 -62.562  1.00  0.00     0.018 A 
ENDBRANCH  29  31
ENDBRANCH  28  29
ENDBRANCH   1  28
TORSDOF 5
ENDMDL
MODEL 4
REMARK VINA RESULT:      -8.1      1.650      2.018
REMARK  5 active torsions:
REMARK  status: ('A' for Active; 'I' for Inactive)
REMARK    1  A    between atoms: C_5  and  C_6 
REMARK    2  A    between atoms: C_6  and  O_7 
REMARK    3  A    between atoms: O_7  and  C_8 
REMARK    4  A    between atoms: C_12  and  C_13 
REMARK    5  A    between atoms: C_30  and  O_31 
ROOT
HETATM    1  C   UNL     1     -42.747  56.512 -53.252  1.00  0.00     0.130 A 
HETATM    2  C   UNL     1     -43.451  57.393 -52.424  1.00  0.00     0.048 A 
HETATM    3 BR   UNL     1     -44.413  56.801 -50.895  1.00  0.00    -0.048 Br
HETATM    4  C   UNL     1     -43.517  58.753 -52.738  1.00  0.00     0.033 A 
HETATM    5  C   UNL     1     -42.926  59.259 -53.907  1.00  0.00    -0.012 A 
HETATM    6  C   UNL     1     -42.210  58.355 -54.717  1.00  0.00     0.050 A 
HETATM    7  C   UNL     1     -42.141  56.987 -54.418  1.00  0.00     0.104 A 
ENDROOT
BRANCH   5   8
HETATM    8  C   UNL     1     -43.093  60.706 -54.370  1.00  0.00     0.219 C 
HETATM    9  N   UNL     1     -42.086  61.044 -55.352  1.00  0.00    -0.332 N 
HETATM   10  C   UNL     1     -42.191  60.661 -56.664  1.00  0.00     0.256 C 
HETATM   11  H   UNL     1     -41.139  61.187 -55.034  1.00  0.00     0.165 HD
HETATM   12  O   UNL     1     -41.218  60.596 -57.407  1.00  0.00    -0.267 OA
HETATM   13  C   UNL     1     -43.542  60.356 -57.107  1.00  0.00     0.073 A 
HETATM   14  C   UNL     1     -44.587  60.591 -56.242  1.00  0.00     0.088 A 
HETATM   15  C   UNL     1     -43.992  59.787 -58.338  1.00  0.00    -0.023 A 
HETATM   16  S   UNL     1     -46.101  60.244 -56.932  1.00  0.00    -0.074 SA
HETATM   17  N   UNL     1     -44.394  60.990 -54.962  1.00  0.00    -0.358 N 
HETATM   18  C   UNL     1     -45.369  59.656 -58.354  1.00  0.00     0.018 A 
HETATM   19  C   UNL     1     -46.159  59.024 -59.447  1.00  0.00     0.281 C 
HETATM   20  N   UNL     1     -45.323  58.833 -60.709  1.00  0.00    -0.070 N 
HETATM   21  C   UNL     1     -43.910  58.349 -60.388  1.00  0.00     0.239 C 
HETATM   22  H   UNL     1     -45.778  58.077 -61.235  1.00  0.00     0.279 HD
HETATM   23  C   UNL     1     -45.349  60.038 -61.603  1.00  0.00     0.270 C 
HETATM   24  C   UNL     1     -43.146  59.337 -59.491  1.00  0.00     0.068 C 
HETATM   25  H   UNL     1     -45.169  60.961 -54.306  1.00  0.00     0.162 HD
ENDBRANCH   5   8
BRANCH   7  26
HETATM   26  O   UNL     1     -41.436  56.249 -55.328  1.00  0.00    -0.353 OA
HETATM   27  C   UNL     1     -42.198  55.676 -56.385  1.00  0.00     0.210 C 
ENDBRANCH   7  26
BRANCH   1  28
HETATM   28  O   UNL     1     -42.713  55.152 -52.936  1.00  0.00    -0.271 OA
BRANCH  28  29
HETATM   29  C   UNL     1     -41.590  54.798 -52.210  1.00  0.00     0.298 C 
HETATM   30  O   UNL     1     -41.169  55.333 -51.196  1.00  0.00    -0.259 OA
BRANCH  29  31
HETATM   31  C   UNL     1     -41.019  53.554 -52.792  1.00  0.00     0.040 A 
HETATM   32  C   UNL     1     -40.093  52.835 -52.026  1.00  0.00     0.018 A 
HETATM   33  C   UNL     1     -39.582  51.624 -52.497  1.00  0.00     0.007 A 
HETATM   34  C   UNL     1     -39.990  51.115 -53.736  1.00  0.00    -0.062 A 
HETATM   35  C   UNL     1     -39.433  49.821 -54.251  1.00  0.00     0.048 C 
HETATM   36  C   UNL     1     -40.889  51.853 -54.515  1.00  0.00     0.007 A 
HETATM   37  C   UNL     1     -41.405  53.064 -54.046  1.00  0.00     0.018 A 
ENDBRANCH  29  31
ENDBRANCH  28  29
ENDBRANCH   1  28
TORSDOF 5
ENDMDL
MODEL 5
REMARK VINA RESULT:      -7.8      2.944      4.452
REMARK  5 active torsions:
REMARK  status: ('A' for Active; 'I' for Inactive)
REMARK    1  A    between atoms: C_5  and  C_6 
REMARK    2  A    between atoms: C_6  and  O_7 
REMARK    3  A    between atoms: O_7  and  C_8 
REMARK    4  A    between atoms: C_12  and  C_13 
REMARK    5  A    between atoms: C_30  and  O_31 
ROOT
HETATM    1  C   UNL     1     -42.630  56.994 -55.568  1.00  0.00     0.130 A 
HETATM    2  C   UNL     1     -43.100  55.883 -56.277  1.00  0.00     0.048 A 
HETATM    3 BR   UNL     1     -43.519  54.236 -55.426  1.00  0.00    -0.048 Br
HETATM    4  C   UNL     1     -43.221  55.936 -57.668  1.00  0.00     0.033 A 
HETATM    5  C   UNL     1     -42.831  57.077 -58.389  1.00  0.00    -0.012 A 
HETATM    6  C   UNL     1     -42.375  58.188 -57.651  1.00  0.00     0.050 A 
HETATM    7  C   UNL     1     -42.243  58.146 -56.256  1.00  0.00     0.104 A 
ENDROOT
BRANCH   5   8
HETATM    8  C   UNL     1     -42.805  57.133 -59.916  1.00  0.00     0.219 C 
HETATM    9  N   UNL     1     -43.983  56.497 -60.466  1.00  0.00    -0.332 N 
HETATM   10  C   UNL     1     -45.198  57.131 -60.510  1.00  0.00     0.256 C 
HETATM   11  H   UNL     1     -44.038  55.491 -60.440  1.00  0.00     0.165 HD
HETATM   12  O   UNL     1     -46.254  56.515 -60.607  1.00  0.00    -0.267 OA
HETATM   13  C   UNL     1     -45.136  58.582 -60.449  1.00  0.00     0.073 A 
HETATM   14  C   UNL     1     -43.901  59.189 -60.482  1.00  0.00     0.088 A 
HETATM   15  C   UNL     1     -46.191  59.536 -60.315  1.00  0.00    -0.023 A 
HETATM   16  S   UNL     1     -44.003  60.886 -60.469  1.00  0.00    -0.074 SA
HETATM   17  N   UNL     1     -42.744  58.484 -60.457  1.00  0.00    -0.358 N 
HETATM   18  C   UNL     1     -45.696  60.828 -60.292  1.00  0.00     0.018 A 
HETATM   19  C   UNL     1     -46.512  62.056 -60.080  1.00  0.00     0.281 C 
HETATM   20  N   UNL     1     -48.004  61.774 -60.226  1.00  0.00    -0.070 N 
HETATM   21  C   UNL     1     -48.400  60.453 -59.569  1.00  0.00     0.239 C 
HETATM   22  H   UNL     1     -48.483  62.515 -59.699  1.00  0.00     0.279 HD
HETATM   23  C   UNL     1     -48.477  61.897 -61.644  1.00  0.00     0.270 C 
HETATM   24  C   UNL     1     -47.657  59.253 -60.181  1.00  0.00     0.068 C 
HETATM   25  H   UNL     1     -41.867  58.967 -60.283  1.00  0.00     0.162 HD
ENDBRANCH   5   8
BRANCH   7  26
HETATM   26  O   UNL     1     -41.754  59.298 -55.705  1.00  0.00    -0.353 OA
HETATM   27  C   UNL     1     -42.177  60.508 -56.322  1.00  0.00     0.210 C 
ENDBRANCH   7  26
BRANCH   1  28
HETATM   28  O   UNL     1     -42.493  56.913 -54.180  1.00  0.00    -0.271 OA
BRANCH  28  29
HETATM   29  C   UNL     1     -41.174  56.816 -53.776  1.00  0.00     0.298 C 
HETATM   30  O   UNL     1     -40.454  57.721 -53.385  1.00  0.00    -0.259 OA
BRANCH  29  31
HETATM   31  C   UNL     1     -40.783  55.381 -53.768  1.00  0.00     0.040 A 
HETATM   32  C   UNL     1     -41.083  54.623 -52.629  1.00  0.00     0.018 A 
HETATM   33  C   UNL     1     -40.800  53.256 -52.600  1.00  0.00     0.007 A 
HETATM   34  C   UNL     1     -40.217  52.628 -53.707  1.00  0.00    -0.062 A 
HETATM   35  C   UNL     1     -39.901  51.162 -53.675  1.00  0.00     0.048 C 
HETATM   36  C   UNL     1     -39.886  53.394 -54.831  1.00  0.00     0.007 A 
HETATM   37  C   UNL     1     -40.170  54.762 -54.866  1.00  0.00     0.018 A 
ENDBRANCH  29  31
ENDBRANCH  28  29
ENDBRANCH   1  28
TORSDOF 5
ENDMDL
MODEL 6
REMARK VINA RESULT:      -7.8      3.832      6.181
REMARK  5 active torsions:
REMARK  status: ('A' for Active; 'I' for Inactive)
REMARK    1  A    between atoms: C_5  and  C_6 
REMARK    2  A    between atoms: C_6  and  O_7 
REMARK    3  A    between atoms: O_7  and  C_8 
REMARK    4  A    between atoms: C_12  and  C_13 
REMARK    5  A    between atoms: C_30  and  O_31 
ROOT
HETATM    1  C   UNL     1     -41.405  58.076 -53.374  1.00  0.00     0.130 A 
HETATM    2  C   UNL     1     -41.456  59.192 -52.531  1.00  0.00     0.048 A 
HETATM    3 BR   UNL     1     -40.620  59.214 -50.823  1.00  0.00    -0.048 Br
HETATM    4  C   UNL     1     -42.186  60.322 -52.903  1.00  0.00     0.033 A 
HETATM    5  C   UNL     1     -42.924  60.351 -54.099  1.00  0.00    -0.012 A 
HETATM    6  C   UNL     1     -42.845  59.222 -54.938  1.00  0.00     0.050 A 
HETATM    7  C   UNL     1     -42.120  58.078 -54.574  1.00  0.00     0.104 A 
ENDROOT
BRANCH   5   8
HETATM    8  C   UNL     1     -43.854  61.502 -54.480  1.00  0.00     0.219 C 
HETATM    9  N   UNL     1     -45.225  61.173 -54.159  1.00  0.00    -0.332 N 
HETATM   10  C   UNL     1     -45.715  61.261 -52.881  1.00  0.00     0.256 C 
HETATM   11  H   UNL     1     -45.706  60.506 -54.743  1.00  0.00     0.165 HD
HETATM   12  O   UNL     1     -46.714  60.650 -52.519  1.00  0.00    -0.267 OA
HETATM   13  C   UNL     1     -44.970  62.146 -51.999  1.00  0.00     0.073 A 
HETATM   14  C   UNL     1     -43.947  62.897 -52.532  1.00  0.00     0.088 A 
HETATM   15  C   UNL     1     -45.100  62.352 -50.591  1.00  0.00    -0.023 A 
HETATM   16  S   UNL     1     -43.222  63.924 -51.388  1.00  0.00    -0.074 SA
HETATM   17  N   UNL     1     -43.539  62.761 -53.817  1.00  0.00    -0.358 N 
HETATM   18  C   UNL     1     -44.185  63.285 -50.136  1.00  0.00     0.018 A 
HETATM   19  C   UNL     1     -43.991  63.673 -48.712  1.00  0.00     0.281 C 
HETATM   20  N   UNL     1     -45.137  63.183 -47.832  1.00  0.00    -0.070 N 
HETATM   21  C   UNL     1     -45.573  61.766 -48.201  1.00  0.00     0.239 C 
HETATM   22  H   UNL     1     -44.758  63.133 -46.879  1.00  0.00     0.279 HD
HETATM   23  C   UNL     1     -46.276  64.159 -47.777  1.00  0.00     0.270 C 
HETATM   24  C   UNL     1     -46.053  61.666 -49.659  1.00  0.00     0.068 C 
HETATM   25  H   UNL     1     -42.663  63.183 -54.111  1.00  0.00     0.162 HD
ENDBRANCH   5   8
BRANCH   7  26
HETATM   26  O   UNL     1     -42.179  57.063 -55.488  1.00  0.00    -0.353 OA
HETATM   27  C   UNL     1     -43.443  56.422 -55.622  1.00  0.00     0.210 C 
ENDBRANCH   7  26
BRANCH   1  28
HETATM   28  O   UNL     1     -40.689  56.946 -52.974  1.00  0.00    -0.271 OA
BRANCH  28  29
HETATM   29  C   UNL     1     -41.502  55.942 -52.482  1.00  0.00     0.298 C 
HETATM   30  O   UNL     1     -42.562  56.075 -51.891  1.00  0.00    -0.259 OA
BRANCH  29  31
HETATM   31  C   UNL     1     -40.941  54.628 -52.897  1.00  0.00     0.040 A 
HETATM   32  C   UNL     1     -40.694  53.674 -51.902  1.00  0.00     0.018 A 
HETATM   33  C   UNL     1     -40.235  52.401 -52.247  1.00  0.00     0.007 A 
HETATM   34  C   UNL     1     -40.020  52.064 -53.589  1.00  0.00    -0.062 A 
HETATM   35  C   UNL     1     -39.515  50.701 -53.962  1.00  0.00     0.048 C 
HETATM   36  C   UNL     1     -40.235  53.030 -54.579  1.00  0.00     0.007 A 
HETATM   37  C   UNL     1     -40.696  54.305 -54.238  1.00  0.00     0.018 A 
ENDBRANCH  29  31
ENDBRANCH  28  29
ENDBRANCH   1  28
TORSDOF 5
ENDMDL
MODEL 7
REMARK VINA RESULT:      -7.5      2.639      3.493
REMARK  5 active torsions:
REMARK  status: ('A' for Active; 'I' for Inactive)
REMARK    1  A    between atoms: C_5  and  C_6 
REMARK    2  A    between atoms: C_6  and  O_7 
REMARK    3  A    between atoms: O_7  and  C_8 
REMARK    4  A    between atoms: C_12  and  C_13 
REMARK    5  A    between atoms: C_30  and  O_31 
ROOT
HETATM    1  C   UNL     1     -42.911  56.525 -56.433  1.00  0.00     0.130 A 
HETATM    2  C   UNL     1     -43.432  56.694 -57.721  1.00  0.00     0.048 A 
HETATM    3 BR   UNL     1     -42.975  55.540 -59.161  1.00  0.00    -0.048 Br
HETATM    4  C   UNL     1     -44.273  57.772 -58.004  1.00  0.00     0.033 A 
HETATM    5  C   UNL     1     -44.577  58.734 -57.026  1.00  0.00    -0.012 A 
HETATM    6  C   UNL     1     -44.054  58.535 -55.733  1.00  0.00     0.050 A 
HETATM    7  C   UNL     1     -43.203  57.460 -55.436  1.00  0.00     0.104 A 
ENDROOT
BRANCH   5   8
HETATM    8  C   UNL     1     -45.370  60.007 -57.323  1.00  0.00     0.219 C 
HETATM    9  N   UNL     1     -44.849  61.119 -56.558  1.00  0.00    -0.332 N 
HETATM   10  C   UNL     1     -43.715  61.792 -56.934  1.00  0.00     0.256 C 
HETATM   11  H   UNL     1     -45.044  61.151 -55.569  1.00  0.00     0.165 HD
HETATM   12  O   UNL     1     -43.055  62.456 -56.142  1.00  0.00    -0.267 OA
HETATM   13  C   UNL     1     -43.368  61.672 -58.341  1.00  0.00     0.073 A 
HETATM   14  C   UNL     1     -44.244  61.022 -59.181  1.00  0.00     0.088 A 
HETATM   15  C   UNL     1     -42.193  62.102 -59.031  1.00  0.00    -0.023 A 
HETATM   16  S   UNL     1     -43.724  61.023 -60.799  1.00  0.00    -0.074 SA
HETATM   17  N   UNL     1     -45.357  60.397 -58.727  1.00  0.00    -0.358 N 
HETATM   18  C   UNL     1     -42.260  61.785 -60.376  1.00  0.00     0.018 A 
HETATM   19  C   UNL     1     -41.173  62.014 -61.367  1.00  0.00     0.281 C 
HETATM   20  N   UNL     1     -40.096  62.945 -60.818  1.00  0.00    -0.070 N 
HETATM   21  C   UNL     1     -39.767  62.637 -59.358  1.00  0.00     0.239 C 
HETATM   22  H   UNL     1     -39.245  62.740 -61.357  1.00  0.00     0.279 HD
HETATM   23  C   UNL     1     -40.407  64.392 -61.064  1.00  0.00     0.270 C 
HETATM   24  C   UNL     1     -40.995  62.783 -58.442  1.00  0.00     0.068 C 
HETATM   25  H   UNL     1     -45.864  59.767 -59.342  1.00  0.00     0.162 HD
ENDBRANCH   5   8
BRANCH   7  26
HETATM   26  O   UNL     1     -42.759  57.437 -54.144  1.00  0.00    -0.353 OA
HETATM   27  C   UNL     1     -43.769  57.471 -53.141  1.00  0.00     0.210 C 
ENDBRANCH   7  26
BRANCH   1  28
HETATM   28  O   UNL     1     -42.053  55.454 -56.175  1.00  0.00    -0.271 OA
BRANCH  28  29
HETATM   29  C   UNL     1     -42.699  54.373 -55.604  1.00  0.00     0.298 C 
HETATM   30  O   UNL     1     -43.725  53.838 -55.994  1.00  0.00    -0.259 OA
BRANCH  29  31
HETATM   31  C   UNL     1     -41.871  53.863 -54.479  1.00  0.00     0.040 A 
HETATM   32  C   UNL     1     -42.282  54.158 -53.173  1.00  0.00     0.018 A 
HETATM   33  C   UNL     1     -41.579  53.643 -52.081  1.00  0.00     0.007 A 
HETATM   34  C   UNL     1     -40.460  52.825 -52.280  1.00  0.00    -0.062 A 
HETATM   35  C   UNL     1     -39.696  52.280 -51.110  1.00  0.00     0.048 C 
HETATM   36  C   UNL     1     -40.031  52.560 -53.586  1.00  0.00     0.007 A 
HETATM   37  C   UNL     1     -40.733  53.071 -54.681  1.00  0.00     0.018 A 
ENDBRANCH  29  31
ENDBRANCH  28  29
ENDBRANCH   1  28
TORSDOF 5
ENDMDL
MODEL 8
REMARK VINA RESULT:      -7.5      3.180      4.468
REMARK  5 active torsions:
REMARK  status: ('A' for Active; 'I' for Inactive)
REMARK    1  A    between atoms: C_5  and  C_6 
REMARK    2  A    between atoms: C_6  and  O_7 
REMARK    3  A    between atoms: O_7  and  C_8 
REMARK    4  A    between atoms: C_12  and  C_13 
REMARK    5  A    between atoms: C_30  and  O_31 
ROOT
HETATM    1  C   UNL     1     -42.601  56.944 -54.834  1.00  0.00     0.130 A 
HETATM    2  C   UNL     1     -42.077  55.710 -55.234  1.00  0.00     0.048 A 
HETATM    3 BR   UNL     1     -40.903  54.699 -54.131  1.00  0.00    -0.048 Br
HETATM    4  C   UNL     1     -42.360  55.204 -56.504  1.00  0.00     0.033 A 
HETATM    5  C   UNL     1     -43.130  55.935 -57.424  1.00  0.00    -0.012 A 
HETATM    6  C   UNL     1     -43.659  57.168 -56.994  1.00  0.00     0.050 A 
HETATM    7  C   UNL     1     -43.378  57.691 -55.723  1.00  0.00     0.104 A 
ENDROOT
BRANCH   5   8
HETATM    8  C   UNL     1     -43.345  55.494 -58.872  1.00  0.00     0.219 C 
HETATM    9  N   UNL     1     -44.741  55.611 -59.235  1.00  0.00    -0.332 N 
HETATM   10  C   UNL     1     -45.309  56.814 -59.565  1.00  0.00     0.256 C 
HETATM   11  H   UNL     1     -45.388  54.932 -58.864  1.00  0.00     0.165 HD
HETATM   12  O   UNL     1     -46.518  57.005 -59.504  1.00  0.00    -0.267 OA
HETATM   13  C   UNL     1     -44.372  57.834 -60.008  1.00  0.00     0.073 A 
HETATM   14  C   UNL     1     -43.051  57.484 -60.178  1.00  0.00     0.088 A 
HETATM   15  C   UNL     1     -44.590  59.220 -60.274  1.00  0.00    -0.023 A 
HETATM   16  S   UNL     1     -42.102  58.768 -60.759  1.00  0.00    -0.074 SA
HETATM   17  N   UNL     1     -42.575  56.260 -59.843  1.00  0.00    -0.358 N 
HETATM   18  C   UNL     1     -43.420  59.844 -60.671  1.00  0.00     0.018 A 
HETATM   19  C   UNL     1     -43.274  61.299 -60.945  1.00  0.00     0.281 C 
HETATM   20  N   UNL     1     -44.629  61.990 -61.070  1.00  0.00    -0.070 N 
HETATM   21  C   UNL     1     -45.620  61.491 -60.020  1.00  0.00     0.239 C 
HETATM   22  H   UNL     1     -44.459  62.982 -60.862  1.00  0.00     0.279 HD
HETATM   23  C   UNL     1     -45.171  61.943 -62.468  1.00  0.00     0.270 C 
HETATM   24  C   UNL     1     -45.876  59.978 -60.134  1.00  0.00     0.068 C 
HETATM   25  H   UNL     1     -41.572  56.109 -59.797  1.00  0.00     0.162 HD
ENDBRANCH   5   8
BRANCH   7  26
HETATM   26  O   UNL     1     -43.943  58.913 -55.483  1.00  0.00    -0.353 OA
HETATM   27  C   UNL     1     -44.567  59.537 -56.599  1.00  0.00     0.210 C 
ENDBRANCH   7  26
BRANCH   1  28
HETATM   28  O   UNL     1     -42.287  57.445 -53.569  1.00  0.00    -0.271 OA
BRANCH  28  29
HETATM   29  C   UNL     1     -43.232  57.119 -52.613  1.00  0.00     0.298 C 
HETATM   30  O   UNL     1     -44.441  57.266 -52.692  1.00  0.00    -0.259 OA
BRANCH  29  31
HETATM   31  C   UNL     1     -42.550  56.427 -51.486  1.00  0.00     0.040 A 
HETATM   32  C   UNL     1     -43.114  55.238 -51.007  1.00  0.00     0.018 A 
HETATM   33  C   UNL     1     -42.475  54.513 -49.999  1.00  0.00     0.007 A 
HETATM   34  C   UNL     1     -41.265  54.965 -49.459  1.00  0.00    -0.062 A 
HETATM   35  C   UNL     1     -40.581  54.195 -48.368  1.00  0.00     0.048 C 
HETATM   36  C   UNL     1     -40.721  56.171 -49.915  1.00  0.00     0.007 A 
HETATM   37  C   UNL     1     -41.356  56.899 -50.926  1.00  0.00     0.018 A 
ENDBRANCH  29  31
ENDBRANCH  28  29
ENDBRANCH   1  28
TORSDOF 5
ENDMDL
MODEL 9
REMARK VINA RESULT:      -7.3      2.171      2.809
REMARK  5 active torsions:
REMARK  status: ('A' for Active; 'I' for Inactive)
REMARK    1  A    between atoms: C_5  and  C_6 
REMARK    2  A    between atoms: C_6  and  O_7 
REMARK    3  A    between atoms: O_7  and  C_8 
REMARK    4  A    between atoms: C_12  and  C_13 
REMARK    5  A    between atoms: C_30  and  O_31 
ROOT
HETATM    1  C   UNL     1     -41.342  57.474 -54.050  1.00  0.00     0.130 A 
HETATM    2  C   UNL     1     -41.391  58.772 -53.529  1.00  0.00     0.048 A 
HETATM    3 BR   UNL     1     -40.986  59.153 -51.711  1.00  0.00    -0.048 Br
HETATM    4  C   UNL     1     -41.805  59.837 -54.332  1.00  0.00     0.033 A 
HETATM    5  C   UNL     1     -42.226  59.630 -55.657  1.00  0.00    -0.012 A 
HETATM    6  C   UNL     1     -42.153  58.317 -56.163  1.00  0.00     0.050 A 
HETATM    7  C   UNL     1     -41.745  57.237 -55.367  1.00  0.00     0.104 A 
ENDROOT
BRANCH   5   8
HETATM    8  C   UNL     1     -42.824  60.734 -56.527  1.00  0.00     0.219 C 
HETATM    9  N   UNL     1     -42.324  60.640 -57.881  1.00  0.00    -0.332 N 
HETATM   10  C   UNL     1     -42.820  59.729 -58.778  1.00  0.00     0.256 C 
HETATM   11  H   UNL     1     -41.373  60.926 -58.060  1.00  0.00     0.165 HD
HETATM   12  O   UNL     1     -42.187  59.372 -59.766  1.00  0.00    -0.267 OA
HETATM   13  C   UNL     1     -44.153  59.234 -58.476  1.00  0.00     0.073 A 
HETATM   14  C   UNL     1     -44.840  59.796 -57.424  1.00  0.00     0.088 A 
HETATM   15  C   UNL     1     -44.898  58.183 -59.094  1.00  0.00    -0.023 A 
HETATM   16  S   UNL     1     -46.404  59.154 -57.244  1.00  0.00    -0.074 SA
HETATM   17  N   UNL     1     -44.280  60.709 -56.595  1.00  0.00    -0.358 N 
HETATM   18  C   UNL     1     -46.136  58.028 -58.494  1.00  0.00     0.018 A 
HETATM   19  C   UNL     1     -47.128  56.972 -58.834  1.00  0.00     0.281 C 
HETATM   20  N   UNL     1     -46.784  56.276 -60.148  1.00  0.00    -0.070 N 
HETATM   21  C   UNL     1     -45.286  56.006 -60.273  1.00  0.00     0.239 C 
HETATM   22  H   UNL     1     -47.243  55.357 -60.108  1.00  0.00     0.279 HD
HETATM   23  C   UNL     1     -47.362  56.980 -61.340  1.00  0.00     0.270 C 
HETATM   24  C   UNL     1     -44.455  57.300 -60.221  1.00  0.00     0.068 C 
HETATM   25  H   UNL     1     -44.745  60.947 -55.724  1.00  0.00     0.162 HD
ENDBRANCH   5   8
BRANCH   7  26
HETATM   26  O   UNL     1     -41.766  56.029 -56.007  1.00  0.00    -0.353 OA
HETATM   27  C   UNL     1     -42.892  55.792 -56.845  1.00  0.00     0.210 C 
ENDBRANCH   7  26
BRANCH   1  28
HETATM   28  O   UNL     1     -40.949  56.418 -53.225  1.00  0.00    -0.271 OA
BRANCH  28  29
HETATM   29  C   UNL     1     -41.935  55.461 -53.072  1.00  0.00     0.298 C 
HETATM   30  O   UNL     1     -43.132  55.653 -52.931  1.00  0.00    -0.259 OA
BRANCH  29  31
HETATM   31  C   UNL     1     -41.322  54.115 -53.231  1.00  0.00     0.040 A 
HETATM   32  C   UNL     1     -40.519  53.631 -52.191  1.00  0.00     0.018 A 
HETATM   33  C   UNL     1     -39.978  52.345 -52.261  1.00  0.00     0.007 A 
HETATM   34  C   UNL     1     -40.234  51.527 -53.367  1.00  0.00    -0.062 A 
HETATM   35  C   UNL     1     -39.645  50.150 -53.451  1.00  0.00     0.048 C 
HETATM   36  C   UNL     1     -41.008  52.026 -54.421  1.00  0.00     0.007 A 
HETATM   37  C   UNL     1     -41.553  53.311 -54.355  1.00  0.00     0.018 A 
ENDBRANCH  29  31
ENDBRANCH  28  29
ENDBRANCH   1  28
TORSDOF 5
ENDMDL
MODEL 10
REMARK VINA RESULT:      -7.1     16.765     18.965
REMARK  5 active torsions:
REMARK  status: ('A' for Active; 'I' for Inactive)
REMARK    1  A    between atoms: C_5  and  C_6 
REMARK    2  A    between atoms: C_6  and  O_7 
REMARK    3  A    between atoms: O_7  and  C_8 
REMARK    4  A    between atoms: C_12  and  C_13 
REMARK    5  A    between atoms: C_30  and  O_31 
ROOT
HETATM    1  C   UNL     1     -37.194  39.970 -51.310  1.00  0.00     0.130 A 
HETATM    2  C   UNL     1     -35.831  40.214 -51.513  1.00  0.00     0.048 A 
HETATM    3 BR   UNL     1     -34.498  39.609 -50.299  1.00  0.00    -0.048 Br
HETATM    4  C   UNL     1     -35.407  40.975 -52.604  1.00  0.00     0.033 A 
HETATM    5  C   UNL     1     -36.332  41.553 -53.492  1.00  0.00    -0.012 A 
HETATM    6  C   UNL     1     -37.697  41.280 -53.275  1.00  0.00     0.050 A 
HETATM    7  C   UNL     1     -38.137  40.523 -52.180  1.00  0.00     0.104 A 
ENDROOT
BRANCH   5   8
HETATM    8  C   UNL     1     -35.929  42.511 -54.612  1.00  0.00     0.219 C 
HETATM    9  N   UNL     1     -34.580  42.235 -55.054  1.00  0.00    -0.332 N 
HETATM   10  C   UNL     1     -34.290  41.197 -55.901  1.00  0.00     0.256 C 
HETATM   11  H   UNL     1     -33.815  42.511 -54.456  1.00  0.00     0.165 HD
HETATM   12  O   UNL     1     -33.165  40.716 -55.987  1.00  0.00    -0.267 OA
HETATM   13  C   UNL     1     -35.411  40.725 -56.699  1.00  0.00     0.073 A 
HETATM   14  C   UNL     1     -36.599  41.417 -56.637  1.00  0.00     0.088 A 
HETATM   15  C   UNL     1     -35.507  39.583 -57.552  1.00  0.00    -0.023 A 
HETATM   16  S   UNL     1     -37.785  40.778 -57.674  1.00  0.00    -0.074 SA
HETATM   17  N   UNL     1     -36.795  42.449 -55.782  1.00  0.00    -0.358 N 
HETATM   18  C   UNL     1     -36.763  39.492 -58.125  1.00  0.00     0.018 A 
HETATM   19  C   UNL     1     -37.230  38.380 -58.998  1.00  0.00     0.281 C 
HETATM   20  N   UNL     1     -36.069  37.511 -59.474  1.00  0.00    -0.070 N 
HETATM   21  C   UNL     1     -35.056  37.254 -58.360  1.00  0.00     0.239 C 
HETATM   22  H   UNL     1     -36.479  36.599 -59.710  1.00  0.00     0.279 HD
HETATM   23  C   UNL     1     -35.445  38.028 -60.737  1.00  0.00     0.270 C 
HETATM   24  C   UNL     1     -34.446  38.558 -57.817  1.00  0.00     0.068 C 
HETATM   25  H   UNL     1     -37.736  42.800 -55.627  1.00  0.00     0.162 HD
ENDBRANCH   5   8
BRANCH   7  26
HETATM   26  O   UNL     1     -39.495  40.386 -52.102  1.00  0.00    -0.353 OA
HETATM   27  C   UNL     1     -40.257  41.393 -52.758  1.00  0.00     0.210 C 
ENDBRANCH   7  26
BRANCH   1  28
HETATM   28  O   UNL     1     -37.599  39.227 -50.199  1.00  0.00    -0.271 OA
BRANCH  28  29
HETATM   29  C   UNL     1     -38.112  37.988 -50.540  1.00  0.00     0.298 C 
HETATM   30  O   UNL     1     -37.567  37.124 -51.209  1.00  0.00    -0.259 OA
BRANCH  29  31
HETATM   31  C   UNL     1     -39.416  37.805 -49.849  1.00  0.00     0.040 A 
HETATM   32  C   UNL     1     -39.484  38.104 -48.483  1.00  0.00     0.018 A 
HETATM   33  C   UNL     1     -40.702  38.017 -47.804  1.00  0.00     0.007 A 
HETATM   34  C   UNL     1     -41.866  37.633 -48.482  1.00  0.00    -0.062 A 
HETATM   35  C   UNL     1     -43.173  37.527 -47.753  1.00  0.00     0.048 C 
HETATM   36  C   UNL     1     -41.788  37.302 -49.840  1.00  0.00     0.007 A 
HETATM   37  C   UNL     1     -40.572  37.390 -50.523  1.00  0.00     0.018 A 
ENDBRANCH  29  31
ENDBRANCH  28  29
ENDBRANCH   1  28
TORSDOF 5
ENDMDL
