MODEL 1
REMARK VINA RESULT:      -7.6      0.000      0.000
REMARK  7 active torsions:
REMARK  status: ('A' for Active; 'I' for Inactive)
REMARK    1  A    between atoms: C_2  and  C_3 
REMARK    2  A    between atoms: C_3  and  C_4 
REMARK    3  A    between atoms: C_8  and  C_9 
REMARK       I    between atoms: C_9  and  N_10 
REMARK    4  A    between atoms: N_10  and  C_11 
REMARK    5  A    between atoms: C_11  and  C_12 
REMARK    6  A    between atoms: C_12  and  N_13 
REMARK    7  A    between atoms: C_16  and  C_17 
ROOT
HETATM    1  C   UNL     1     -43.569  57.961 -52.262  1.00  0.00     0.150 C 
ENDROOT
BRANCH   1   2
HETATM    2  N   UNL     1     -43.583  57.569 -53.665  1.00  0.00    -0.354 N 
HETATM    3  C   UNL     1     -42.461  57.108 -54.330  1.00  0.00     0.272 C 
HETATM    4  O   UNL     1     -41.328  57.345 -53.924  1.00  0.00    -0.266 OA
HETATM    5  H   UNL     1     -44.447  57.190 -54.064  1.00  0.00     0.162 HD
BRANCH   3   6
HETATM    6  C   UNL     1     -42.763  56.413 -55.585  1.00  0.00     0.146 A 
HETATM    7  N   UNL     1     -43.225  55.146 -55.582  1.00  0.00    -0.169 NA
HETATM    8  N   UNL     1     -43.399  54.861 -56.888  1.00  0.00    -0.282 N 
HETATM    9  C   UNL     1     -43.075  55.895 -57.721  1.00  0.00     0.030 A 
HETATM   10  H   UNL     1     -43.748  53.941 -57.143  1.00  0.00     0.189 HD
HETATM   11  C   UNL     1     -42.652  56.916 -56.901  1.00  0.00     0.065 A 
BRANCH   9  12
HETATM   12  C   UNL     1     -43.197  55.799 -59.203  1.00  0.00     0.058 C 
BRANCH  12  13
HETATM   13  C   UNL     1     -44.220  54.737 -59.611  1.00  0.00     0.002 C 
HETATM   14  C   UNL     1     -45.480  55.367 -60.181  1.00  0.00     0.005 C 
ENDBRANCH  12  13
ENDBRANCH   9  12
ENDBRANCH   3   6
ENDBRANCH   1   2
BRANCH   1  15
HETATM   15  C   UNL     1     -44.214  56.951 -51.290  1.00  0.00     0.254 C 
BRANCH  15  16
HETATM   16  N   UNL     1     -43.204  55.932 -50.830  1.00  0.00    -0.069 N 
HETATM   17  H   UNL     1     -43.615  55.542 -49.968  1.00  0.00     0.280 HD
HETATM   18  C   UNL     1     -42.941  54.775 -51.758  1.00  0.00     0.244 C 
HETATM   19  C   UNL     1     -41.616  54.229 -51.231  1.00  0.00     0.046 C 
HETATM   20  C   UNL     1     -40.830  55.506 -50.941  1.00  0.00     0.039 C 
HETATM   21  C   UNL     1     -41.864  56.498 -50.421  1.00  0.00     0.235 C 
BRANCH  19  22
HETATM   22  C   UNL     1     -40.890  53.264 -52.143  1.00  0.00    -0.046 A 
HETATM   23  C   UNL     1     -40.253  52.107 -51.636  1.00  0.00    -0.055 A 
HETATM   24  C   UNL     1     -40.256  51.755 -50.170  1.00  0.00     0.049 C 
HETATM   25  C   UNL     1     -39.593  51.235 -52.519  1.00  0.00     0.007 A 
HETATM   26  C   UNL     1     -39.539  51.502 -53.884  1.00  0.00     0.001 A 
HETATM   27  C   UNL     1     -40.140  52.648 -54.387  1.00  0.00     0.001 A 
HETATM   28  C   UNL     1     -40.804  53.521 -53.526  1.00  0.00     0.008 A 
ENDBRANCH  19  22
ENDBRANCH  15  16
ENDBRANCH   1  15
TORSDOF 7
ENDMDL
MODEL 2
REMARK VINA RESULT:      -7.6      2.366      3.445
REMARK  7 active torsions:
REMARK  status: ('A' for Active; 'I' for Inactive)
REMARK    1  A    between atoms: C_2  and  C_3 
REMARK    2  A    between atoms: C_3  and  C_4 
REMARK    3  A    between atoms: C_8  and  C_9 
REMARK       I    between atoms: C_9  and  N_10 
REMARK    4  A    between atoms: N_10  and  C_11 
REMARK    5  A    between atoms: C_11  and  C_12 
REMARK    6  A    between atoms: C_12  and  N_13 
REMARK    7  A    between atoms: C_16  and  C_17 
ROOT
HETATM    1  C   UNL     1     -43.699  57.173 -54.909  1.00  0.00     0.150 C 
ENDROOT
BRANCH   1   2
HETATM    2  N   UNL     1     -44.340  57.474 -56.181  1.00  0.00    -0.354 N 
HETATM    3  C   UNL     1     -43.643  57.572 -57.373  1.00  0.00     0.272 C 
HETATM    4  O   UNL     1     -42.436  57.788 -57.397  1.00  0.00    -0.266 OA
HETATM    5  H   UNL     1     -45.309  57.179 -56.328  1.00  0.00     0.162 HD
BRANCH   3   6
HETATM    6  C   UNL     1     -44.495  57.491 -58.563  1.00  0.00     0.146 A 
HETATM    7  N   UNL     1     -44.044  56.925 -59.701  1.00  0.00    -0.169 NA
HETATM    8  N   UNL     1     -45.091  57.019 -60.545  1.00  0.00    -0.282 N 
HETATM    9  C   UNL     1     -46.191  57.613 -59.991  1.00  0.00     0.030 A 
HETATM   10  H   UNL     1     -44.990  56.651 -61.487  1.00  0.00     0.189 HD
HETATM   11  C   UNL     1     -45.829  57.937 -58.703  1.00  0.00     0.065 A 
BRANCH   9  12
HETATM   12  C   UNL     1     -47.460  57.812 -60.745  1.00  0.00     0.058 C 
BRANCH  12  13
HETATM   13  C   UNL     1     -47.778  56.607 -61.631  1.00  0.00     0.002 C 
HETATM   14  C   UNL     1     -48.913  56.909 -62.596  1.00  0.00     0.005 C 
ENDBRANCH  12  13
ENDBRANCH   9  12
ENDBRANCH   3   6
ENDBRANCH   1   2
BRANCH   1  15
HETATM   15  C   UNL     1     -43.670  55.680 -54.523  1.00  0.00     0.254 C 
BRANCH  15  16
HETATM   16  N   UNL     1     -42.275  55.250 -54.150  1.00  0.00    -0.069 N 
HETATM   17  H   UNL     1     -41.947  55.989 -53.508  1.00  0.00     0.280 HD
HETATM   18  C   UNL     1     -42.146  53.940 -53.417  1.00  0.00     0.244 C 
HETATM   19  C   UNL     1     -40.667  53.608 -53.602  1.00  0.00     0.046 C 
HETATM   20  C   UNL     1     -40.426  53.994 -55.060  1.00  0.00     0.039 C 
HETATM   21  C   UNL     1     -41.284  55.232 -55.289  1.00  0.00     0.235 C 
BRANCH  19  22
HETATM   22  C   UNL     1     -40.262  52.187 -53.274  1.00  0.00    -0.046 A 
HETATM   23  C   UNL     1     -39.898  51.808 -51.961  1.00  0.00    -0.055 A 
HETATM   24  C   UNL     1     -39.891  52.778 -50.807  1.00  0.00     0.049 C 
HETATM   25  C   UNL     1     -39.533  50.476 -51.701  1.00  0.00     0.007 A 
HETATM   26  C   UNL     1     -39.504  49.527 -52.719  1.00  0.00     0.001 A 
HETATM   27  C   UNL     1     -39.836  49.896 -54.015  1.00  0.00     0.001 A 
HETATM   28  C   UNL     1     -40.207  51.213 -54.291  1.00  0.00     0.008 A 
ENDBRANCH  19  22
ENDBRANCH  15  16
ENDBRANCH   1  15
TORSDOF 7
ENDMDL
MODEL 3
REMARK VINA RESULT:      -7.5      1.250      2.004
REMARK  7 active torsions:
REMARK  status: ('A' for Active; 'I' for Inactive)
REMARK    1  A    between atoms: C_2  and  C_3 
REMARK    2  A    between atoms: C_3  and  C_4 
REMARK    3  A    between atoms: C_8  and  C_9 
REMARK       I    between atoms: C_9  and  N_10 
REMARK    4  A    between atoms: N_10  and  C_11 
REMARK    5  A    between atoms: C_11  and  C_12 
REMARK    6  A    between atoms: C_12  and  N_13 
REMARK    7  A    between atoms: C_16  and  C_17 
ROOT
HETATM    1  C   UNL     1     -43.077  59.442 -52.940  1.00  0.00     0.150 C 
ENDROOT
BRANCH   1   2
HETATM    2  N   UNL     1     -43.363  58.780 -54.205  1.00  0.00    -0.354 N 
HETATM    3  C   UNL     1     -42.450  58.710 -55.243  1.00  0.00     0.272 C 
HETATM    4  O   UNL     1     -41.512  59.495 -55.330  1.00  0.00    -0.266 OA
HETATM    5  H   UNL     1     -44.013  57.988 -54.213  1.00  0.00     0.162 HD
BRANCH   3   6
HETATM    6  C   UNL     1     -42.775  57.692 -56.246  1.00  0.00     0.146 A 
HETATM    7  N   UNL     1     -43.435  56.567 -55.904  1.00  0.00    -0.169 NA
HETATM    8  N   UNL     1     -43.563  55.900 -57.068  1.00  0.00    -0.282 N 
HETATM    9  C   UNL     1     -43.019  56.555 -58.138  1.00  0.00     0.030 A 
HETATM   10  H   UNL     1     -44.038  55.001 -57.064  1.00  0.00     0.189 HD
HETATM   11  C   UNL     1     -42.494  57.722 -57.632  1.00  0.00     0.065 A 
BRANCH   9  12
HETATM   12  C   UNL     1     -43.054  56.000 -59.520  1.00  0.00     0.058 C 
BRANCH  12  13
HETATM   13  C   UNL     1     -44.090  54.882 -59.647  1.00  0.00     0.002 C 
HETATM   14  C   UNL     1     -44.910  55.025 -60.919  1.00  0.00     0.005 C 
ENDBRANCH  12  13
ENDBRANCH   9  12
ENDBRANCH   3   6
ENDBRANCH   1   2
BRANCH   1  15
HETATM   15  C   UNL     1     -42.564  58.519 -51.815  1.00  0.00     0.254 C 
BRANCH  15  16
HETATM   16  N   UNL     1     -42.901  57.080 -52.109  1.00  0.00    -0.069 N 
HETATM   17  H   UNL     1     -43.535  57.130 -52.921  1.00  0.00     0.280 HD
HETATM   18  C   UNL     1     -41.753  56.184 -52.499  1.00  0.00     0.244 C 
HETATM   19  C   UNL     1     -42.338  54.791 -52.278  1.00  0.00     0.046 C 
HETATM   20  C   UNL     1     -43.102  54.963 -50.966  1.00  0.00     0.039 C 
HETATM   21  C   UNL     1     -43.681  56.371 -51.027  1.00  0.00     0.235 C 
BRANCH  19  22
HETATM   22  C   UNL     1     -41.342  53.652 -52.255  1.00  0.00    -0.046 A 
HETATM   23  C   UNL     1     -40.846  53.083 -53.451  1.00  0.00    -0.055 A 
HETATM   24  C   UNL     1     -41.264  53.566 -54.816  1.00  0.00     0.049 C 
HETATM   25  C   UNL     1     -39.918  52.029 -53.384  1.00  0.00     0.007 A 
HETATM   26  C   UNL     1     -39.495  51.522 -52.158  1.00  0.00     0.001 A 
HETATM   27  C   UNL     1     -39.996  52.058 -50.980  1.00  0.00     0.001 A 
HETATM   28  C   UNL     1     -40.913  53.109 -51.027  1.00  0.00     0.008 A 
ENDBRANCH  19  22
ENDBRANCH  15  16
ENDBRANCH   1  15
TORSDOF 7
ENDMDL
MODEL 4
REMARK VINA RESULT:      -7.4      2.676      6.040
REMARK  7 active torsions:
REMARK  status: ('A' for Active; 'I' for Inactive)
REMARK    1  A    between atoms: C_2  and  C_3 
REMARK    2  A    between atoms: C_3  and  C_4 
REMARK    3  A    between atoms: C_8  and  C_9 
REMARK       I    between atoms: C_9  and  N_10 
REMARK    4  A    between atoms: N_10  and  C_11 
REMARK    5  A    between atoms: C_11  and  C_12 
REMARK    6  A    between atoms: C_12  and  N_13 
REMARK    7  A    between atoms: C_16  and  C_17 
ROOT
HETATM    1  C   UNL     1     -43.771  57.131 -54.763  1.00  0.00     0.150 C 
ENDROOT
BRANCH   1   2
HETATM    2  N   UNL     1     -43.945  57.741 -53.452  1.00  0.00    -0.354 N 
HETATM    3  C   UNL     1     -42.896  58.277 -52.725  1.00  0.00     0.272 C 
HETATM    4  O   UNL     1     -41.732  57.954 -52.938  1.00  0.00    -0.266 OA
HETATM    5  H   UNL     1     -44.835  58.197 -53.233  1.00  0.00     0.162 HD
BRANCH   3   6
HETATM    6  C   UNL     1     -43.325  59.169 -51.643  1.00  0.00     0.146 A 
HETATM    7  N   UNL     1     -42.428  59.710 -50.794  1.00  0.00    -0.169 NA
HETATM    8  N   UNL     1     -43.178  60.468 -49.970  1.00  0.00    -0.282 N 
HETATM    9  C   UNL     1     -44.513  60.437 -50.262  1.00  0.00     0.030 A 
HETATM   10  H   UNL     1     -42.714  60.986 -49.228  1.00  0.00     0.189 HD
HETATM   11  C   UNL     1     -44.639  59.595 -51.343  1.00  0.00     0.065 A 
BRANCH   9  12
HETATM   12  C   UNL     1     -45.523  61.206 -49.480  1.00  0.00     0.058 C 
BRANCH  12  13
HETATM   13  C   UNL     1     -45.264  61.099 -47.977  1.00  0.00     0.002 C 
HETATM   14  C   UNL     1     -45.053  62.467 -47.349  1.00  0.00     0.005 C 
ENDBRANCH  12  13
ENDBRANCH   9  12
ENDBRANCH   3   6
ENDBRANCH   1   2
BRANCH   1  15
HETATM   15  C   UNL     1     -43.618  55.596 -54.760  1.00  0.00     0.254 C 
BRANCH  15  16
HETATM   16  N   UNL     1     -42.251  55.195 -54.271  1.00  0.00    -0.069 N 
HETATM   17  H   UNL     1     -42.004  55.926 -53.586  1.00  0.00     0.280 HD
HETATM   18  C   UNL     1     -42.151  53.871 -53.558  1.00  0.00     0.244 C 
HETATM   19  C   UNL     1     -40.652  53.584 -53.614  1.00  0.00     0.046 C 
HETATM   20  C   UNL     1     -40.291  54.011 -55.035  1.00  0.00     0.039 C 
HETATM   21  C   UNL     1     -41.160  55.231 -55.315  1.00  0.00     0.235 C 
BRANCH  19  22
HETATM   22  C   UNL     1     -40.238  52.167 -53.282  1.00  0.00    -0.046 A 
HETATM   23  C   UNL     1     -39.890  51.790 -51.964  1.00  0.00    -0.055 A 
HETATM   24  C   UNL     1     -39.911  52.758 -50.809  1.00  0.00     0.049 C 
HETATM   25  C   UNL     1     -39.515  50.461 -51.700  1.00  0.00     0.007 A 
HETATM   26  C   UNL     1     -39.461  49.514 -52.719  1.00  0.00     0.001 A 
HETATM   27  C   UNL     1     -39.777  49.882 -54.019  1.00  0.00     0.001 A 
HETATM   28  C   UNL     1     -40.157  51.194 -54.299  1.00  0.00     0.008 A 
ENDBRANCH  19  22
ENDBRANCH  15  16
ENDBRANCH   1  15
TORSDOF 7
ENDMDL
MODEL 5
REMARK VINA RESULT:      -7.2      1.974      2.152
REMARK  7 active torsions:
REMARK  status: ('A' for Active; 'I' for Inactive)
REMARK    1  A    between atoms: C_2  and  C_3 
REMARK    2  A    between atoms: C_3  and  C_4 
REMARK    3  A    between atoms: C_8  and  C_9 
REMARK       I    between atoms: C_9  and  N_10 
REMARK    4  A    between atoms: N_10  and  C_11 
REMARK    5  A    between atoms: C_11  and  C_12 
REMARK    6  A    between atoms: C_12  and  N_13 
REMARK    7  A    between atoms: C_16  and  C_17 
ROOT
HETATM    1  C   UNL     1     -43.754  59.026 -53.172  1.00  0.00     0.150 C 
ENDROOT
BRANCH   1   2
HETATM    2  N   UNL     1     -43.466  59.211 -54.588  1.00  0.00    -0.354 N 
HETATM    3  C   UNL     1     -42.180  59.292 -55.092  1.00  0.00     0.272 C 
HETATM    4  O   UNL     1     -41.226  59.590 -54.379  1.00  0.00    -0.266 OA
HETATM    5  H   UNL     1     -44.125  58.841 -55.279  1.00  0.00     0.162 HD
BRANCH   3   6
HETATM    6  C   UNL     1     -42.100  59.087 -56.541  1.00  0.00     0.146 A 
HETATM    7  N   UNL     1     -41.574  60.032 -57.347  1.00  0.00    -0.169 NA
HETATM    8  N   UNL     1     -41.655  59.488 -58.578  1.00  0.00    -0.282 N 
HETATM    9  C   UNL     1     -42.202  58.235 -58.589  1.00  0.00     0.030 A 
HETATM   10  H   UNL     1     -41.312  60.025 -59.370  1.00  0.00     0.189 HD
HETATM   11  C   UNL     1     -42.507  57.951 -57.277  1.00  0.00     0.065 A 
BRANCH   9  12
HETATM   12  C   UNL     1     -42.380  57.449 -59.842  1.00  0.00     0.058 C 
BRANCH  12  13
HETATM   13  C   UNL     1     -42.692  55.982 -59.541  1.00  0.00     0.002 C 
HETATM   14  C   UNL     1     -44.027  55.564 -60.136  1.00  0.00     0.005 C 
ENDBRANCH  12  13
ENDBRANCH   9  12
ENDBRANCH   3   6
ENDBRANCH   1   2
BRANCH   1  15
HETATM   15  C   UNL     1     -44.433  57.689 -52.808  1.00  0.00     0.254 C 
BRANCH  15  16
HETATM   16  N   UNL     1     -43.487  56.800 -52.043  1.00  0.00    -0.069 N 
HETATM   17  H   UNL     1     -43.973  56.625 -51.150  1.00  0.00     0.280 HD
HETATM   18  C   UNL     1     -43.186  55.454 -52.652  1.00  0.00     0.244 C 
HETATM   19  C   UNL     1     -41.918  55.038 -51.908  1.00  0.00     0.046 C 
HETATM   20  C   UNL     1     -41.124  56.342 -51.863  1.00  0.00     0.039 C 
HETATM   21  C   UNL     1     -42.168  57.435 -51.673  1.00  0.00     0.235 C 
BRANCH  19  22
HETATM   22  C   UNL     1     -41.151  53.880 -52.509  1.00  0.00    -0.046 A 
HETATM   23  C   UNL     1     -40.450  52.959 -51.695  1.00  0.00    -0.055 A 
HETATM   24  C   UNL     1     -40.422  53.060 -50.191  1.00  0.00     0.049 C 
HETATM   25  C   UNL     1     -39.753  51.895 -52.294  1.00  0.00     0.007 A 
HETATM   26  C   UNL     1     -39.724  51.745 -53.677  1.00  0.00     0.001 A 
HETATM   27  C   UNL     1     -40.389  52.658 -54.485  1.00  0.00     0.001 A 
HETATM   28  C   UNL     1     -41.090  53.717 -53.907  1.00  0.00     0.008 A 
ENDBRANCH  19  22
ENDBRANCH  15  16
ENDBRANCH   1  15
TORSDOF 7
ENDMDL
MODEL 6
REMARK VINA RESULT:      -7.0      3.582      4.599
REMARK  7 active torsions:
REMARK  status: ('A' for Active; 'I' for Inactive)
REMARK    1  A    between atoms: C_2  and  C_3 
REMARK    2  A    between atoms: C_3  and  C_4 
REMARK    3  A    between atoms: C_8  and  C_9 
REMARK       I    between atoms: C_9  and  N_10 
REMARK    4  A    between atoms: N_10  and  C_11 
REMARK    5  A    between atoms: C_11  and  C_12 
REMARK    6  A    between atoms: C_12  and  N_13 
REMARK    7  A    between atoms: C_16  and  C_17 
ROOT
HETATM    1  C   UNL     1     -42.951  55.935 -56.726  1.00  0.00     0.150 C 
ENDROOT
BRANCH   1   2
HETATM    2  N   UNL     1     -42.391  57.003 -57.543  1.00  0.00    -0.354 N 
HETATM    3  C   UNL     1     -42.604  57.100 -58.907  1.00  0.00     0.272 C 
HETATM    4  O   UNL     1     -42.944  56.130 -59.577  1.00  0.00    -0.266 OA
HETATM    5  H   UNL     1     -42.227  57.918 -57.115  1.00  0.00     0.162 HD
BRANCH   3   6
HETATM    6  C   UNL     1     -42.294  58.422 -59.459  1.00  0.00     0.146 A 
HETATM    7  N   UNL     1     -42.112  58.594 -60.784  1.00  0.00    -0.169 NA
HETATM    8  N   UNL     1     -41.869  59.915 -60.909  1.00  0.00    -0.282 N 
HETATM    9  C   UNL     1     -41.895  60.590 -59.721  1.00  0.00     0.030 A 
HETATM   10  H   UNL     1     -41.697  60.292 -61.837  1.00  0.00     0.189 HD
HETATM   11  C   UNL     1     -42.164  59.643 -58.759  1.00  0.00     0.065 A 
BRANCH   9  12
HETATM   12  C   UNL     1     -41.658  62.059 -59.628  1.00  0.00     0.058 C 
BRANCH  12  13
HETATM   13  C   UNL     1     -40.385  62.467 -60.371  1.00  0.00     0.002 C 
HETATM   14  C   UNL     1     -39.446  63.257 -59.475  1.00  0.00     0.005 C 
ENDBRANCH  12  13
ENDBRANCH   9  12
ENDBRANCH   3   6
ENDBRANCH   1   2
BRANCH   1  15
HETATM   15  C   UNL     1     -43.568  56.386 -55.386  1.00  0.00     0.254 C 
BRANCH  15  16
HETATM   16  N   UNL     1     -42.787  55.830 -54.224  1.00  0.00    -0.069 N 
HETATM   17  H   UNL     1     -43.349  56.086 -53.398  1.00  0.00     0.280 HD
HETATM   18  C   UNL     1     -42.605  54.334 -54.187  1.00  0.00     0.244 C 
HETATM   19  C   UNL     1     -41.449  54.171 -53.203  1.00  0.00     0.046 C 
HETATM   20  C   UNL     1     -40.512  55.306 -53.611  1.00  0.00     0.039 C 
HETATM   21  C   UNL     1     -41.430  56.457 -54.004  1.00  0.00     0.235 C 
BRANCH  19  22
HETATM   22  C   UNL     1     -40.783  52.812 -53.185  1.00  0.00    -0.046 A 
HETATM   23  C   UNL     1     -40.090  52.346 -52.044  1.00  0.00    -0.055 A 
HETATM   24  C   UNL     1     -39.969  53.157 -50.779  1.00  0.00     0.049 C 
HETATM   25  C   UNL     1     -39.490  51.075 -52.069  1.00  0.00     0.007 A 
HETATM   26  C   UNL     1     -39.549  50.275 -53.207  1.00  0.00     0.001 A 
HETATM   27  C   UNL     1     -40.207  50.735 -54.339  1.00  0.00     0.001 A 
HETATM   28  C   UNL     1     -40.814  51.991 -54.331  1.00  0.00     0.008 A 
ENDBRANCH  19  22
ENDBRANCH  15  16
ENDBRANCH   1  15
TORSDOF 7
ENDMDL
MODEL 7
REMARK VINA RESULT:      -6.9      2.530      6.129
REMARK  7 active torsions:
REMARK  status: ('A' for Active; 'I' for Inactive)
REMARK    1  A    between atoms: C_2  and  C_3 
REMARK    2  A    between atoms: C_3  and  C_4 
REMARK    3  A    between atoms: C_8  and  C_9 
REMARK       I    between atoms: C_9  and  N_10 
REMARK    4  A    between atoms: N_10  and  C_11 
REMARK    5  A    between atoms: C_11  and  C_12 
REMARK    6  A    between atoms: C_12  and  N_13 
REMARK    7  A    between atoms: C_16  and  C_17 
ROOT
HETATM    1  C   UNL     1     -41.767  58.192 -54.464  1.00  0.00     0.150 C 
ENDROOT
BRANCH   1   2
HETATM    2  N   UNL     1     -42.853  58.655 -53.612  1.00  0.00    -0.354 N 
HETATM    3  C   UNL     1     -43.538  57.823 -52.743  1.00  0.00     0.272 C 
HETATM    4  O   UNL     1     -43.549  56.606 -52.892  1.00  0.00    -0.266 OA
HETATM    5  H   UNL     1     -42.846  59.626 -53.286  1.00  0.00     0.162 HD
BRANCH   3   6
HETATM    6  C   UNL     1     -44.303  58.541 -51.719  1.00  0.00     0.146 A 
HETATM    7  N   UNL     1     -45.113  57.879 -50.868  1.00  0.00    -0.169 NA
HETATM    8  N   UNL     1     -45.619  58.850 -50.082  1.00  0.00    -0.282 N 
HETATM    9  C   UNL     1     -45.159  60.100 -50.391  1.00  0.00     0.030 A 
HETATM   10  H   UNL     1     -46.271  58.591 -49.346  1.00  0.00     0.189 HD
HETATM   11  C   UNL     1     -44.305  59.930 -51.457  1.00  0.00     0.065 A 
BRANCH   9  12
HETATM   12  C   UNL     1     -45.584  61.318 -49.644  1.00  0.00     0.058 C 
BRANCH  12  13
HETATM   13  C   UNL     1     -44.542  61.725 -48.602  1.00  0.00     0.002 C 
HETATM   14  C   UNL     1     -45.018  61.423 -47.190  1.00  0.00     0.005 C 
ENDBRANCH  12  13
ENDBRANCH   9  12
ENDBRANCH   3   6
ENDBRANCH   1   2
BRANCH   1  15
HETATM   15  C   UNL     1     -42.204  57.411 -55.721  1.00  0.00     0.254 C 
BRANCH  15  16
HETATM   16  N   UNL     1     -41.720  55.986 -55.661  1.00  0.00    -0.069 N 
HETATM   17  H   UNL     1     -41.092  55.899 -56.475  1.00  0.00     0.280 HD
HETATM   18  C   UNL     1     -40.923  55.595 -54.443  1.00  0.00     0.244 C 
HETATM   19  C   UNL     1     -40.993  54.070 -54.485  1.00  0.00     0.046 C 
HETATM   20  C   UNL     1     -42.448  53.822 -54.879  1.00  0.00     0.039 C 
HETATM   21  C   UNL     1     -42.789  54.937 -55.859  1.00  0.00     0.235 C 
BRANCH  19  22
HETATM   22  C   UNL     1     -40.577  53.354 -53.218  1.00  0.00    -0.046 A 
HETATM   23  C   UNL     1     -40.063  52.037 -53.250  1.00  0.00    -0.055 A 
HETATM   24  C   UNL     1     -39.891  51.262 -54.532  1.00  0.00     0.049 C 
HETATM   25  C   UNL     1     -39.685  51.411 -52.049  1.00  0.00     0.007 A 
HETATM   26  C   UNL     1     -39.827  52.060 -50.826  1.00  0.00     0.001 A 
HETATM   27  C   UNL     1     -40.354  53.344 -50.783  1.00  0.00     0.001 A 
HETATM   28  C   UNL     1     -40.729  53.983 -51.965  1.00  0.00     0.008 A 
ENDBRANCH  19  22
ENDBRANCH  15  16
ENDBRANCH   1  15
TORSDOF 7
ENDMDL
MODEL 8
REMARK VINA RESULT:      -6.8      2.242      2.426
REMARK  7 active torsions:
REMARK  status: ('A' for Active; 'I' for Inactive)
REMARK    1  A    between atoms: C_2  and  C_3 
REMARK    2  A    between atoms: C_3  and  C_4 
REMARK    3  A    between atoms: C_8  and  C_9 
REMARK       I    between atoms: C_9  and  N_10 
REMARK    4  A    between atoms: N_10  and  C_11 
REMARK    5  A    between atoms: C_11  and  C_12 
REMARK    6  A    between atoms: C_12  and  N_13 
REMARK    7  A    between atoms: C_16  and  C_17 
ROOT
HETATM    1  C   UNL     1     -44.310  58.412 -53.424  1.00  0.00     0.150 C 
ENDROOT
BRANCH   1   2
HETATM    2  N   UNL     1     -45.034  58.057 -54.637  1.00  0.00    -0.354 N 
HETATM    3  C   UNL     1     -45.207  58.932 -55.695  1.00  0.00     0.272 C 
HETATM    4  O   UNL     1     -45.106  60.146 -55.551  1.00  0.00    -0.266 OA
HETATM    5  H   UNL     1     -45.036  57.081 -54.944  1.00  0.00     0.162 HD
BRANCH   3   6
HETATM    6  C   UNL     1     -45.608  58.276 -56.943  1.00  0.00     0.146 A 
HETATM    7  N   UNL     1     -46.898  57.961 -57.178  1.00  0.00    -0.169 NA
HETATM    8  N   UNL     1     -46.876  57.402 -58.404  1.00  0.00    -0.282 N 
HETATM    9  C   UNL     1     -45.629  57.353 -58.962  1.00  0.00     0.030 A 
HETATM   10  H   UNL     1     -47.752  57.077 -58.806  1.00  0.00     0.189 HD
HETATM   11  C   UNL     1     -44.782  57.909 -58.031  1.00  0.00     0.065 A 
BRANCH   9  12
HETATM   12  C   UNL     1     -45.378  56.779 -60.315  1.00  0.00     0.058 C 
BRANCH  12  13
HETATM   13  C   UNL     1     -45.593  55.265 -60.328  1.00  0.00     0.002 C 
HETATM   14  C   UNL     1     -44.414  54.530 -59.711  1.00  0.00     0.005 C 
ENDBRANCH  12  13
ENDBRANCH   9  12
ENDBRANCH   3   6
ENDBRANCH   1   2
BRANCH   1  15
HETATM   15  C   UNL     1     -44.732  57.642 -52.156  1.00  0.00     0.254 C 
BRANCH  15  16
HETATM   16  N   UNL     1     -43.559  56.907 -51.561  1.00  0.00    -0.069 N 
HETATM   17  H   UNL     1     -43.794  56.826 -50.560  1.00  0.00     0.280 HD
HETATM   18  C   UNL     1     -43.309  55.510 -52.070  1.00  0.00     0.244 C 
HETATM   19  C   UNL     1     -41.869  55.257 -51.631  1.00  0.00     0.046 C 
HETATM   20  C   UNL     1     -41.195  56.593 -51.937  1.00  0.00     0.039 C 
HETATM   21  C   UNL     1     -42.245  57.650 -51.612  1.00  0.00     0.235 C 
BRANCH  19  22
HETATM   22  C   UNL     1     -41.182  54.070 -52.272  1.00  0.00    -0.046 A 
HETATM   23  C   UNL     1     -40.335  53.217 -51.525  1.00  0.00    -0.055 A 
HETATM   24  C   UNL     1     -40.063  53.423 -50.057  1.00  0.00     0.049 C 
HETATM   25  C   UNL     1     -39.720  52.124 -52.159  1.00  0.00     0.007 A 
HETATM   26  C   UNL     1     -39.915  51.878 -53.516  1.00  0.00     0.001 A 
HETATM   27  C   UNL     1     -40.724  52.724 -54.261  1.00  0.00     0.001 A 
HETATM   28  C   UNL     1     -41.348  53.811 -53.647  1.00  0.00     0.008 A 
ENDBRANCH  19  22
ENDBRANCH  15  16
ENDBRANCH   1  15
TORSDOF 7
ENDMDL
MODEL 9
REMARK VINA RESULT:      -6.7      2.020      6.579
REMARK  7 active torsions:
REMARK  status: ('A' for Active; 'I' for Inactive)
REMARK    1  A    between atoms: C_2  and  C_3 
REMARK    2  A    between atoms: C_3  and  C_4 
REMARK    3  A    between atoms: C_8  and  C_9 
REMARK       I    between atoms: C_9  and  N_10 
REMARK    4  A    between atoms: N_10  and  C_11 
REMARK    5  A    between atoms: C_11  and  C_12 
REMARK    6  A    between atoms: C_12  and  N_13 
REMARK    7  A    between atoms: C_16  and  C_17 
ROOT
HETATM    1  C   UNL     1     -43.760  57.042 -52.330  1.00  0.00     0.150 C 
ENDROOT
BRANCH   1   2
HETATM    2  N   UNL     1     -42.915  55.894 -52.631  1.00  0.00    -0.354 N 
HETATM    3  C   UNL     1     -43.069  55.121 -53.768  1.00  0.00     0.272 C 
HETATM    4  O   UNL     1     -44.123  55.100 -54.395  1.00  0.00    -0.266 OA
HETATM    5  H   UNL     1     -41.948  55.891 -52.294  1.00  0.00     0.162 HD
BRANCH   3   6
HETATM    6  C   UNL     1     -41.906  54.283 -54.074  1.00  0.00     0.146 A 
HETATM    7  N   UNL     1     -41.174  54.492 -55.187  1.00  0.00    -0.169 NA
HETATM    8  N   UNL     1     -40.203  53.560 -55.115  1.00  0.00    -0.282 N 
HETATM    9  C   UNL     1     -40.281  52.772 -54.001  1.00  0.00     0.030 A 
HETATM   10  H   UNL     1     -39.512  53.519 -55.860  1.00  0.00     0.189 HD
HETATM   11  C   UNL     1     -41.384  53.216 -53.307  1.00  0.00     0.065 A 
BRANCH   9  12
HETATM   12  C   UNL     1     -39.304  51.682 -53.720  1.00  0.00     0.058 C 
BRANCH  12  13
HETATM   13  C   UNL     1     -39.944  50.302 -53.887  1.00  0.00     0.002 C 
HETATM   14  C   UNL     1     -39.638  49.400 -52.703  1.00  0.00     0.005 C 
ENDBRANCH  12  13
ENDBRANCH   9  12
ENDBRANCH   3   6
ENDBRANCH   1   2
BRANCH   1  15
HETATM   15  C   UNL     1     -43.147  58.416 -52.667  1.00  0.00     0.254 C 
BRANCH  15  16
HETATM   16  N   UNL     1     -43.517  58.839 -54.065  1.00  0.00    -0.069 N 
HETATM   17  H   UNL     1     -43.437  59.868 -54.046  1.00  0.00     0.280 HD
HETATM   18  C   UNL     1     -42.626  58.348 -55.177  1.00  0.00     0.244 C 
HETATM   19  C   UNL     1     -43.501  58.556 -56.411  1.00  0.00     0.046 C 
HETATM   20  C   UNL     1     -44.872  58.097 -55.919  1.00  0.00     0.039 C 
HETATM   21  C   UNL     1     -44.944  58.549 -54.466  1.00  0.00     0.235 C 
BRANCH  19  22
HETATM   22  C   UNL     1     -43.042  57.856 -57.672  1.00  0.00    -0.046 A 
HETATM   23  C   UNL     1     -42.288  58.533 -58.658  1.00  0.00    -0.055 A 
HETATM   24  C   UNL     1     -41.889  59.981 -58.525  1.00  0.00     0.049 C 
HETATM   25  C   UNL     1     -41.879  57.843 -59.813  1.00  0.00     0.007 A 
HETATM   26  C   UNL     1     -42.222  56.509 -60.010  1.00  0.00     0.001 A 
HETATM   27  C   UNL     1     -42.982  55.843 -59.059  1.00  0.00     0.001 A 
HETATM   28  C   UNL     1     -43.392  56.510 -57.904  1.00  0.00     0.008 A 
ENDBRANCH  19  22
ENDBRANCH  15  16
ENDBRANCH   1  15
TORSDOF 7
ENDMDL
MODEL 10
REMARK VINA RESULT:      -6.6      2.172      4.671
REMARK  7 active torsions:
REMARK  status: ('A' for Active; 'I' for Inactive)
REMARK    1  A    between atoms: C_2  and  C_3 
REMARK    2  A    between atoms: C_3  and  C_4 
REMARK    3  A    between atoms: C_8  and  C_9 
REMARK       I    between atoms: C_9  and  N_10 
REMARK    4  A    between atoms: N_10  and  C_11 
REMARK    5  A    between atoms: C_11  and  C_12 
REMARK    6  A    between atoms: C_12  and  N_13 
REMARK    7  A    between atoms: C_16  and  C_17 
ROOT
HETATM    1  C   UNL     1     -44.638  58.220 -56.311  1.00  0.00     0.150 C 
ENDROOT
BRANCH   1   2
HETATM    2  N   UNL     1     -44.118  56.882 -56.061  1.00  0.00    -0.354 N 
HETATM    3  C   UNL     1     -42.816  56.513 -56.350  1.00  0.00     0.272 C 
HETATM    4  O   UNL     1     -42.134  57.135 -57.159  1.00  0.00    -0.266 OA
HETATM    5  H   UNL     1     -44.508  56.337 -55.287  1.00  0.00     0.162 HD
BRANCH   3   6
HETATM    6  C   UNL     1     -42.390  55.281 -55.680  1.00  0.00     0.146 A 
HETATM    7  N   UNL     1     -43.234  54.238 -55.544  1.00  0.00    -0.169 NA
HETATM    8  N   UNL     1     -42.496  53.305 -54.909  1.00  0.00    -0.282 N 
HETATM    9  C   UNL     1     -41.218  53.708 -54.642  1.00  0.00     0.030 A 
HETATM   10  H   UNL     1     -42.927  52.410 -54.691  1.00  0.00     0.189 HD
HETATM   11  C   UNL     1     -41.122  54.992 -55.127  1.00  0.00     0.065 A 
BRANCH   9  12
HETATM   12  C   UNL     1     -40.230  52.831 -53.951  1.00  0.00     0.058 C 
BRANCH  12  13
HETATM   13  C   UNL     1     -40.436  51.361 -54.317  1.00  0.00     0.002 C 
HETATM   14  C   UNL     1     -39.545  50.450 -53.489  1.00  0.00     0.005 C 
ENDBRANCH  12  13
ENDBRANCH   9  12
ENDBRANCH   3   6
ENDBRANCH   1   2
BRANCH   1  15
HETATM   15  C   UNL     1     -45.340  58.887 -55.110  1.00  0.00     0.254 C 
BRANCH  15  16
HETATM   16  N   UNL     1     -44.433  58.913 -53.907  1.00  0.00    -0.069 N 
HETATM   17  H   UNL     1     -44.833  59.650 -53.306  1.00  0.00     0.280 HD
HETATM   18  C   UNL     1     -44.374  57.654 -53.080  1.00  0.00     0.244 C 
HETATM   19  C   UNL     1     -43.093  57.856 -52.273  1.00  0.00     0.046 C 
HETATM   20  C   UNL     1     -42.142  58.443 -53.313  1.00  0.00     0.039 C 
HETATM   21  C   UNL     1     -43.012  59.340 -54.185  1.00  0.00     0.235 C 
BRANCH  19  22
HETATM   22  C   UNL     1     -42.550  56.626 -51.578  1.00  0.00    -0.046 A 
HETATM   23  C   UNL     1     -41.491  56.714 -50.645  1.00  0.00    -0.055 A 
HETATM   24  C   UNL     1     -40.839  58.022 -50.276  1.00  0.00     0.049 C 
HETATM   25  C   UNL     1     -41.019  55.547 -50.020  1.00  0.00     0.007 A 
HETATM   26  C   UNL     1     -41.564  54.302 -50.320  1.00  0.00     0.001 A 
HETATM   27  C   UNL     1     -42.587  54.203 -51.253  1.00  0.00     0.001 A 
HETATM   28  C   UNL     1     -43.072  55.352 -51.879  1.00  0.00     0.008 A 
ENDBRANCH  19  22
ENDBRANCH  15  16
ENDBRANCH   1  15
TORSDOF 7
ENDMDL
