MODEL 1
REMARK VINA RESULT:      -8.1      0.000      0.000
REMARK  3 active torsions:
REMARK  status: ('A' for Active; 'I' for Inactive)
REMARK    1  A    between atoms: C_6  and  N_7 
REMARK    2  A    between atoms: N_7  and  C_8 
REMARK    3  A    between atoms: C_8  and  C_9 
ROOT
HETATM    1  C   UNL     1     -40.160  52.477 -52.436  1.00  0.00     0.024 A 
HETATM    2  C   UNL     1     -40.167  51.983 -53.741  1.00  0.00     0.046 A 
HETATM    3  C   UNL     1     -39.848  50.608 -53.998  1.00  0.00     0.099 C 
HETATM    4  N   UNL     1     -39.611  49.503 -54.257  1.00  0.00    -0.191 NA
HETATM    5  C   UNL     1     -40.507  52.824 -54.815  1.00  0.00     0.047 A 
HETATM    6  C   UNL     1     -40.813  54.176 -54.609  1.00  0.00     0.032 A 
HETATM    7  C   UNL     1     -40.835  54.640 -53.273  1.00  0.00     0.055 A 
HETATM    8 CL   UNL     1     -41.271  56.279 -52.929  1.00  0.00    -0.082 Cl
HETATM    9  C   UNL     1     -40.500  53.808 -52.201  1.00  0.00     0.027 A 
ENDROOT
BRANCH   6  10
HETATM   10  N   UNL     1     -41.246  55.027 -55.651  1.00  0.00    -0.286 NA
HETATM   11  H   UNL     1     -40.602  54.913 -56.445  1.00  0.00     0.128 HD
BRANCH  10  12
HETATM   12  C   UNL     1     -42.650  55.024 -56.086  1.00  0.00     0.149 C 
BRANCH  12  13
HETATM   13  C   UNL     1     -42.753  55.872 -57.343  1.00  0.00     0.029 A 
HETATM   14  N   UNL     1     -42.301  57.174 -57.220  1.00  0.00    -0.338 N 
HETATM   15  H   UNL     1     -41.949  57.479 -56.310  1.00  0.00     0.168 HD
HETATM   16  C   UNL     1     -42.341  57.997 -58.235  1.00  0.00     0.158 A 
HETATM   17  N   UNL     1     -42.808  57.622 -59.406  1.00  0.00    -0.269 N 
HETATM   18  S   UNL     1     -41.804  59.646 -58.178  1.00  0.00    -0.064 SA
HETATM   19  C   UNL     1     -43.301  56.327 -59.670  1.00  0.00     0.255 A 
HETATM   20  C   UNL     1     -42.764  58.632 -60.347  1.00  0.00     0.109 A 
HETATM   21  O   UNL     1     -43.723  56.012 -60.766  1.00  0.00    -0.268 OA
HETATM   22  C   UNL     1     -43.250  55.426 -58.505  1.00  0.00     0.101 A 
HETATM   23  C   UNL     1     -42.258  59.777 -59.864  1.00  0.00     0.071 A 
ENDBRANCH  12  13
ENDBRANCH  10  12
ENDBRANCH   6  10
TORSDOF 3
ENDMDL
MODEL 2
REMARK VINA RESULT:      -7.9      1.947      2.324
REMARK  3 active torsions:
REMARK  status: ('A' for Active; 'I' for Inactive)
REMARK    1  A    between atoms: C_6  and  N_7 
REMARK    2  A    between atoms: N_7  and  C_8 
REMARK    3  A    between atoms: C_8  and  C_9 
ROOT
HETATM    1  C   UNL     1     -39.607  51.811 -51.953  1.00  0.00     0.024 A 
HETATM    2  C   UNL     1     -39.981  51.638 -53.287  1.00  0.00     0.046 A 
HETATM    3  C   UNL     1     -39.666  50.421 -53.977  1.00  0.00     0.099 C 
HETATM    4  N   UNL     1     -39.448  49.452 -54.574  1.00  0.00    -0.191 NA
HETATM    5  C   UNL     1     -40.686  52.650 -53.961  1.00  0.00     0.047 A 
HETATM    6  C   UNL     1     -41.003  53.860 -53.328  1.00  0.00     0.032 A 
HETATM    7  C   UNL     1     -40.646  53.992 -51.965  1.00  0.00     0.055 A 
HETATM    8 CL   UNL     1     -41.062  55.427 -51.092  1.00  0.00    -0.082 Cl
HETATM    9  C   UNL     1     -39.946  52.988 -51.289  1.00  0.00     0.027 A 
ENDROOT
BRANCH   6  10
HETATM   10  N   UNL     1     -41.788  54.860 -53.944  1.00  0.00    -0.286 NA
HETATM   11  H   UNL     1     -41.153  55.563 -54.346  1.00  0.00     0.128 HD
BRANCH  10  12
HETATM   12  C   UNL     1     -42.861  54.499 -54.881  1.00  0.00     0.149 C 
BRANCH  12  13
HETATM   13  C   UNL     1     -42.870  55.526 -56.002  1.00  0.00     0.029 A 
HETATM   14  N   UNL     1     -43.355  55.075 -57.217  1.00  0.00    -0.338 N 
HETATM   15  H   UNL     1     -43.655  54.100 -57.285  1.00  0.00     0.168 HD
HETATM   16  C   UNL     1     -43.411  55.868 -58.254  1.00  0.00     0.158 A 
HETATM   17  N   UNL     1     -43.011  57.120 -58.184  1.00  0.00    -0.269 N 
HETATM   18  S   UNL     1     -43.996  55.395 -59.818  1.00  0.00    -0.064 SA
HETATM   19  C   UNL     1     -42.495  57.708 -57.010  1.00  0.00     0.255 A 
HETATM   20  C   UNL     1     -43.151  57.793 -59.382  1.00  0.00     0.109 A 
HETATM   21  O   UNL     1     -42.137  58.870 -56.979  1.00  0.00    -0.268 OA
HETATM   22  C   UNL     1     -42.438  56.787 -55.862  1.00  0.00     0.101 A 
HETATM   23  C   UNL     1     -43.660  57.027 -60.358  1.00  0.00     0.071 A 
ENDBRANCH  12  13
ENDBRANCH  10  12
ENDBRANCH   6  10
TORSDOF 3
ENDMDL
MODEL 3
REMARK VINA RESULT:      -7.5      5.123      5.945
REMARK  3 active torsions:
REMARK  status: ('A' for Active; 'I' for Inactive)
REMARK    1  A    between atoms: C_6  and  N_7 
REMARK    2  A    between atoms: N_7  and  C_8 
REMARK    3  A    between atoms: C_8  and  C_9 
ROOT
HETATM    1  C   UNL     1     -40.076  52.186 -54.563  1.00  0.00     0.024 A 
HETATM    2  C   UNL     1     -39.999  51.615 -53.292  1.00  0.00     0.046 A 
HETATM    3  C   UNL     1     -39.684  50.223 -53.139  1.00  0.00     0.099 C 
HETATM    4  N   UNL     1     -39.421  49.109 -52.962  1.00  0.00    -0.191 NA
HETATM    5  C   UNL     1     -40.210  52.403 -52.147  1.00  0.00     0.047 A 
HETATM    6  C   UNL     1     -40.531  53.763 -52.252  1.00  0.00     0.032 A 
HETATM    7  C   UNL     1     -40.565  54.324 -53.551  1.00  0.00     0.055 A 
HETATM    8 CL   UNL     1     -40.886  56.011 -53.762  1.00  0.00    -0.082 Cl
HETATM    9  C   UNL     1     -40.354  53.545 -54.692  1.00  0.00     0.027 A 
ENDROOT
BRANCH   6  10
HETATM   10  N   UNL     1     -40.660  54.606 -51.125  1.00  0.00    -0.286 NA
HETATM   11  H   UNL     1     -40.300  55.535 -51.377  1.00  0.00     0.128 HD
BRANCH  10  12
HETATM   12  C   UNL     1     -41.936  54.696 -50.401  1.00  0.00     0.149 C 
BRANCH  12  13
HETATM   13  C   UNL     1     -42.534  56.066 -50.673  1.00  0.00     0.029 A 
HETATM   14  N   UNL     1     -41.665  57.134 -50.526  1.00  0.00    -0.338 N 
HETATM   15  H   UNL     1     -40.704  56.937 -50.237  1.00  0.00     0.168 HD
HETATM   16  C   UNL     1     -42.066  58.360 -50.734  1.00  0.00     0.158 A 
HETATM   17  N   UNL     1     -43.305  58.627 -51.089  1.00  0.00    -0.269 N 
HETATM   18  S   UNL     1     -41.055  59.761 -50.570  1.00  0.00    -0.064 SA
HETATM   19  C   UNL     1     -44.293  57.637 -51.273  1.00  0.00     0.255 A 
HETATM   20  C   UNL     1     -43.531  59.978 -51.261  1.00  0.00     0.109 A 
HETATM   21  O   UNL     1     -45.428  57.919 -51.605  1.00  0.00    -0.268 OA
HETATM   22  C   UNL     1     -43.811  56.267 -51.025  1.00  0.00     0.101 A 
HETATM   23  C   UNL     1     -42.443  60.727 -51.027  1.00  0.00     0.071 A 
ENDBRANCH  12  13
ENDBRANCH  10  12
ENDBRANCH   6  10
TORSDOF 3
ENDMDL
MODEL 4
REMARK VINA RESULT:      -7.4      2.702      3.585
REMARK  3 active torsions:
REMARK  status: ('A' for Active; 'I' for Inactive)
REMARK    1  A    between atoms: C_6  and  N_7 
REMARK    2  A    between atoms: N_7  and  C_8 
REMARK    3  A    between atoms: C_8  and  C_9 
ROOT
HETATM    1  C   UNL     1     -40.100  53.091 -50.855  1.00  0.00     0.024 A 
HETATM    2  C   UNL     1     -40.749  54.297 -51.129  1.00  0.00     0.046 A 
HETATM    3  C   UNL     1     -40.949  55.265 -50.091  1.00  0.00     0.099 C 
HETATM    4  N   UNL     1     -41.124  56.085 -49.290  1.00  0.00    -0.191 NA
HETATM    5  C   UNL     1     -41.195  54.580 -52.432  1.00  0.00     0.047 A 
HETATM    6  C   UNL     1     -41.029  53.657 -53.473  1.00  0.00     0.032 A 
HETATM    7  C   UNL     1     -40.335  52.460 -53.175  1.00  0.00     0.055 A 
HETATM    8 CL   UNL     1     -40.030  51.299 -54.421  1.00  0.00    -0.082 Cl
HETATM    9  C   UNL     1     -39.888  52.174 -51.882  1.00  0.00     0.027 A 
ENDROOT
BRANCH   6  10
HETATM   10  N   UNL     1     -41.383  53.944 -54.811  1.00  0.00    -0.286 NA
HETATM   11  H   UNL     1     -40.921  53.255 -55.419  1.00  0.00     0.128 HD
BRANCH  10  12
HETATM   12  C   UNL     1     -42.790  54.143 -55.187  1.00  0.00     0.149 C 
BRANCH  12  13
HETATM   13  C   UNL     1     -42.848  55.277 -56.198  1.00  0.00     0.029 A 
HETATM   14  N   UNL     1     -43.369  54.943 -57.436  1.00  0.00    -0.338 N 
HETATM   15  H   UNL     1     -43.661  53.976 -57.591  1.00  0.00     0.168 HD
HETATM   16  C   UNL     1     -43.469  55.836 -58.385  1.00  0.00     0.158 A 
HETATM   17  N   UNL     1     -43.081  57.080 -58.203  1.00  0.00    -0.269 N 
HETATM   18  S   UNL     1     -44.102  55.513 -59.968  1.00  0.00    -0.064 SA
HETATM   19  C   UNL     1     -42.531  57.554 -56.994  1.00  0.00     0.255 A 
HETATM   20  C   UNL     1     -43.269  57.867 -59.322  1.00  0.00     0.109 A 
HETATM   21  O   UNL     1     -42.185  58.713 -56.858  1.00  0.00    -0.268 OA
HETATM   22  C   UNL     1     -42.425  56.524 -55.946  1.00  0.00     0.101 A 
HETATM   23  C   UNL     1     -43.803  57.195 -60.352  1.00  0.00     0.071 A 
ENDBRANCH  12  13
ENDBRANCH  10  12
ENDBRANCH   6  10
TORSDOF 3
ENDMDL
MODEL 5
REMARK VINA RESULT:      -7.2      3.423      7.511
REMARK  3 active torsions:
REMARK  status: ('A' for Active; 'I' for Inactive)
REMARK    1  A    between atoms: C_6  and  N_7 
REMARK    2  A    between atoms: N_7  and  C_8 
REMARK    3  A    between atoms: C_8  and  C_9 
ROOT
HETATM    1  C   UNL     1     -44.116  57.559 -59.470  1.00  0.00     0.024 A 
HETATM    2  C   UNL     1     -44.060  56.167 -59.556  1.00  0.00     0.046 A 
HETATM    3  C   UNL     1     -44.588  55.489 -60.705  1.00  0.00     0.099 C 
HETATM    4  N   UNL     1     -44.988  54.896 -61.617  1.00  0.00    -0.191 NA
HETATM    5  C   UNL     1     -43.467  55.417 -58.525  1.00  0.00     0.047 A 
HETATM    6  C   UNL     1     -42.950  56.039 -57.381  1.00  0.00     0.032 A 
HETATM    7  C   UNL     1     -42.986  57.452 -57.338  1.00  0.00     0.055 A 
HETATM    8 CL   UNL     1     -42.306  58.299 -55.990  1.00  0.00    -0.082 Cl
HETATM    9  C   UNL     1     -43.572  58.203 -58.361  1.00  0.00     0.027 A 
ENDROOT
BRANCH   6  10
HETATM   10  N   UNL     1     -42.268  55.327 -56.368  1.00  0.00    -0.286 NA
HETATM   11  H   UNL     1     -41.746  56.004 -55.797  1.00  0.00     0.128 HD
BRANCH  10  12
HETATM   12  C   UNL     1     -42.979  54.347 -55.534  1.00  0.00     0.149 C 
BRANCH  12  13
HETATM   13  C   UNL     1     -42.055  53.943 -54.396  1.00  0.00     0.029 A 
HETATM   14  N   UNL     1     -42.127  54.735 -53.263  1.00  0.00    -0.338 N 
HETATM   15  H   UNL     1     -42.771  55.528 -53.269  1.00  0.00     0.168 HD
HETATM   16  C   UNL     1     -41.380  54.485 -52.220  1.00  0.00     0.158 A 
HETATM   17  N   UNL     1     -40.534  53.476 -52.207  1.00  0.00    -0.269 N 
HETATM   18  S   UNL     1     -41.395  55.420 -50.759  1.00  0.00    -0.064 SA
HETATM   19  C   UNL     1     -40.359  52.593 -53.293  1.00  0.00     0.255 A 
HETATM   20  C   UNL     1     -39.839  53.378 -51.018  1.00  0.00     0.109 A 
HETATM   21  O   UNL     1     -39.570  51.668 -53.245  1.00  0.00    -0.268 OA
HETATM   22  C   UNL     1     -41.210  52.905 -54.454  1.00  0.00     0.101 A 
HETATM   23  C   UNL     1     -40.173  54.331 -50.135  1.00  0.00     0.071 A 
ENDBRANCH  12  13
ENDBRANCH  10  12
ENDBRANCH   6  10
TORSDOF 3
ENDMDL
MODEL 6
REMARK VINA RESULT:      -7.2      4.572      6.479
REMARK  3 active torsions:
REMARK  status: ('A' for Active; 'I' for Inactive)
REMARK    1  A    between atoms: C_6  and  N_7 
REMARK    2  A    between atoms: N_7  and  C_8 
REMARK    3  A    between atoms: C_8  and  C_9 
ROOT
HETATM    1  C   UNL     1     -40.690  53.693 -55.033  1.00  0.00     0.024 A 
HETATM    2  C   UNL     1     -41.892  54.395 -54.941  1.00  0.00     0.046 A 
HETATM    3  C   UNL     1     -42.459  55.018 -56.102  1.00  0.00     0.099 C 
HETATM    4  N   UNL     1     -42.964  55.528 -57.012  1.00  0.00    -0.191 NA
HETATM    5  C   UNL     1     -42.570  54.481 -53.713  1.00  0.00     0.047 A 
HETATM    6  C   UNL     1     -42.046  53.896 -52.552  1.00  0.00     0.032 A 
HETATM    7  C   UNL     1     -40.845  53.159 -52.682  1.00  0.00     0.055 A 
HETATM    8 CL   UNL     1     -40.169  52.349 -51.311  1.00  0.00    -0.082 Cl
HETATM    9  C   UNL     1     -40.168  53.068 -53.902  1.00  0.00     0.027 A 
ENDROOT
BRANCH   6  10
HETATM   10  N   UNL     1     -42.742  53.884 -51.322  1.00  0.00    -0.286 NA
HETATM   11  H   UNL     1     -42.956  52.907 -51.085  1.00  0.00     0.128 HD
BRANCH  10  12
HETATM   12  C   UNL     1     -42.225  54.623 -50.162  1.00  0.00     0.149 C 
BRANCH  12  13
HETATM   13  C   UNL     1     -42.167  56.097 -50.532  1.00  0.00     0.029 A 
HETATM   14  N   UNL     1     -43.383  56.677 -50.849  1.00  0.00    -0.338 N 
HETATM   15  H   UNL     1     -44.219  56.089 -50.827  1.00  0.00     0.168 HD
HETATM   16  C   UNL     1     -43.458  57.938 -51.183  1.00  0.00     0.158 A 
HETATM   17  N   UNL     1     -42.387  58.701 -51.231  1.00  0.00    -0.269 N 
HETATM   18  S   UNL     1     -44.932  58.753 -51.601  1.00  0.00    -0.064 SA
HETATM   19  C   UNL     1     -41.087  58.239 -50.935  1.00  0.00     0.255 A 
HETATM   20  C   UNL     1     -42.673  60.000 -51.603  1.00  0.00     0.109 A 
HETATM   21  O   UNL     1     -40.119  58.973 -50.987  1.00  0.00    -0.268 OA
HETATM   22  C   UNL     1     -41.035  56.813 -50.569  1.00  0.00     0.101 A 
HETATM   23  C   UNL     1     -43.978  60.203 -51.837  1.00  0.00     0.071 A 
ENDBRANCH  12  13
ENDBRANCH  10  12
ENDBRANCH   6  10
TORSDOF 3
ENDMDL
MODEL 7
REMARK VINA RESULT:      -7.1      4.719      5.742
REMARK  3 active torsions:
REMARK  status: ('A' for Active; 'I' for Inactive)
REMARK    1  A    between atoms: C_6  and  N_7 
REMARK    2  A    between atoms: N_7  and  C_8 
REMARK    3  A    between atoms: C_8  and  C_9 
ROOT
HETATM    1  C   UNL     1     -40.205  53.332 -51.165  1.00  0.00     0.024 A 
HETATM    2  C   UNL     1     -41.169  54.033 -50.439  1.00  0.00     0.046 A 
HETATM    3  C   UNL     1     -40.953  54.342 -49.055  1.00  0.00     0.099 C 
HETATM    4  N   UNL     1     -40.821  54.627 -47.939  1.00  0.00    -0.191 NA
HETATM    5  C   UNL     1     -42.354  54.460 -51.063  1.00  0.00     0.047 A 
HETATM    6  C   UNL     1     -42.610  54.169 -52.410  1.00  0.00     0.032 A 
HETATM    7  C   UNL     1     -41.599  53.490 -53.131  1.00  0.00     0.055 A 
HETATM    8 CL   UNL     1     -41.808  53.155 -54.816  1.00  0.00    -0.082 Cl
HETATM    9  C   UNL     1     -40.418  53.066 -52.516  1.00  0.00     0.027 A 
ENDROOT
BRANCH   6  10
HETATM   10  N   UNL     1     -43.745  54.658 -53.094  1.00  0.00    -0.286 NA
HETATM   11  H   UNL     1     -44.430  54.972 -52.393  1.00  0.00     0.128 HD
BRANCH  10  12
HETATM   12  C   UNL     1     -43.600  55.633 -54.185  1.00  0.00     0.149 C 
BRANCH  12  13
HETATM   13  C   UNL     1     -43.090  56.934 -53.588  1.00  0.00     0.029 A 
HETATM   14  N   UNL     1     -43.956  57.564 -52.711  1.00  0.00    -0.338 N 
HETATM   15  H   UNL     1     -44.865  57.132 -52.536  1.00  0.00     0.168 HD
HETATM   16  C   UNL     1     -43.626  58.690 -52.135  1.00  0.00     0.158 A 
HETATM   17  N   UNL     1     -42.464  59.265 -52.365  1.00  0.00    -0.269 N 
HETATM   18  S   UNL     1     -44.642  59.557 -51.028  1.00  0.00    -0.064 SA
HETATM   19  C   UNL     1     -41.491  58.733 -53.235  1.00  0.00     0.255 A 
HETATM   20  C   UNL     1     -42.304  60.443 -51.663  1.00  0.00     0.109 A 
HETATM   21  O   UNL     1     -40.425  59.289 -53.423  1.00  0.00    -0.268 OA
HETATM   22  C   UNL     1     -41.895  57.468 -53.874  1.00  0.00     0.101 A 
HETATM   23  C   UNL     1     -43.365  60.749 -50.902  1.00  0.00     0.071 A 
ENDBRANCH  12  13
ENDBRANCH  10  12
ENDBRANCH   6  10
TORSDOF 3
ENDMDL
MODEL 8
REMARK VINA RESULT:      -7.1      4.236      5.002
REMARK  3 active torsions:
REMARK  status: ('A' for Active; 'I' for Inactive)
REMARK    1  A    between atoms: C_6  and  N_7 
REMARK    2  A    between atoms: N_7  and  C_8 
REMARK    3  A    between atoms: C_8  and  C_9 
ROOT
HETATM    1  C   UNL     1     -39.556  51.470 -51.776  1.00  0.00     0.024 A 
HETATM    2  C   UNL     1     -39.936  51.532 -53.118  1.00  0.00     0.046 A 
HETATM    3  C   UNL     1     -39.702  50.418 -53.991  1.00  0.00     0.099 C 
HETATM    4  N   UNL     1     -39.547  49.542 -54.733  1.00  0.00    -0.191 NA
HETATM    5  C   UNL     1     -40.570  52.681 -53.621  1.00  0.00     0.047 A 
HETATM    6  C   UNL     1     -40.807  53.796 -52.805  1.00  0.00     0.032 A 
HETATM    7  C   UNL     1     -40.446  53.690 -51.441  1.00  0.00     0.055 A 
HETATM    8 CL   UNL     1     -40.768  54.996 -50.353  1.00  0.00    -0.082 Cl
HETATM    9  C   UNL     1     -39.817  52.549 -50.935  1.00  0.00     0.027 A 
ENDROOT
BRANCH   6  10
HETATM   10  N   UNL     1     -41.522  54.930 -53.252  1.00  0.00    -0.286 NA
HETATM   11  H   UNL     1     -42.074  55.292 -52.463  1.00  0.00     0.128 HD
BRANCH  10  12
HETATM   12  C   UNL     1     -40.835  56.011 -53.975  1.00  0.00     0.149 C 
BRANCH  12  13
HETATM   13  C   UNL     1     -41.463  57.329 -53.554  1.00  0.00     0.029 A 
HETATM   14  N   UNL     1     -41.051  57.818 -52.326  1.00  0.00    -0.338 N 
HETATM   15  H   UNL     1     -40.377  57.268 -51.789  1.00  0.00     0.168 HD
HETATM   16  C   UNL     1     -41.522  58.944 -51.859  1.00  0.00     0.158 A 
HETATM   17  N   UNL     1     -42.403  59.653 -52.533  1.00  0.00    -0.269 N 
HETATM   18  S   UNL     1     -41.072  59.635 -50.332  1.00  0.00    -0.064 SA
HETATM   19  C   UNL     1     -42.909  59.271 -53.793  1.00  0.00     0.255 A 
HETATM   20  C   UNL     1     -42.776  60.807 -51.874  1.00  0.00     0.109 A 
HETATM   21  O   UNL     1     -43.720  59.952 -54.391  1.00  0.00    -0.268 OA
HETATM   22  C   UNL     1     -42.363  57.995 -54.289  1.00  0.00     0.101 A 
HETATM   23  C   UNL     1     -42.164  60.956 -50.689  1.00  0.00     0.071 A 
ENDBRANCH  12  13
ENDBRANCH  10  12
ENDBRANCH   6  10
TORSDOF 3
ENDMDL
MODEL 9
REMARK VINA RESULT:      -6.9      2.777      3.425
REMARK  3 active torsions:
REMARK  status: ('A' for Active; 'I' for Inactive)
REMARK    1  A    between atoms: C_6  and  N_7 
REMARK    2  A    between atoms: N_7  and  C_8 
REMARK    3  A    between atoms: C_8  and  C_9 
ROOT
HETATM    1  C   UNL     1     -41.590  53.792 -51.611  1.00  0.00     0.024 A 
HETATM    2  C   UNL     1     -42.874  54.294 -51.830  1.00  0.00     0.046 A 
HETATM    3  C   UNL     1     -43.781  54.470 -50.732  1.00  0.00     0.099 C 
HETATM    4  N   UNL     1     -44.546  54.643 -49.879  1.00  0.00    -0.191 NA
HETATM    5  C   UNL     1     -43.284  54.649 -53.127  1.00  0.00     0.047 A 
HETATM    6  C   UNL     1     -42.433  54.481 -54.228  1.00  0.00     0.032 A 
HETATM    7  C   UNL     1     -41.125  54.007 -53.971  1.00  0.00     0.055 A 
HETATM    8 CL   UNL     1     -39.992  53.838 -55.268  1.00  0.00    -0.082 Cl
HETATM    9  C   UNL     1     -40.711  53.655 -52.683  1.00  0.00     0.027 A 
ENDROOT
BRANCH   6  10
HETATM   10  N   UNL     1     -42.777  54.910 -55.529  1.00  0.00    -0.286 NA
HETATM   11  H   UNL     1     -43.723  54.565 -55.740  1.00  0.00     0.128 HD
BRANCH  10  12
HETATM   12  C   UNL     1     -42.613  56.317 -55.922  1.00  0.00     0.149 C 
BRANCH  12  13
HETATM   13  C   UNL     1     -43.405  56.543 -57.199  1.00  0.00     0.029 A 
HETATM   14  N   UNL     1     -44.506  57.374 -57.077  1.00  0.00    -0.338 N 
HETATM   15  H   UNL     1     -44.718  57.761 -56.155  1.00  0.00     0.168 HD
HETATM   16  C   UNL     1     -45.263  57.641 -58.108  1.00  0.00     0.158 A 
HETATM   17  N   UNL     1     -45.011  57.134 -59.296  1.00  0.00    -0.269 N 
HETATM   18  S   UNL     1     -46.664  58.664 -58.053  1.00  0.00    -0.064 SA
HETATM   19  C   UNL     1     -43.926  56.273 -59.561  1.00  0.00     0.255 A 
HETATM   20  C   UNL     1     -45.923  57.536 -60.252  1.00  0.00     0.109 A 
HETATM   21  O   UNL     1     -43.720  55.825 -60.673  1.00  0.00    -0.268 OA
HETATM   22  C   UNL     1     -43.095  55.986 -58.378  1.00  0.00     0.101 A 
HETATM   23  C   UNL     1     -46.869  58.352 -59.764  1.00  0.00     0.071 A 
ENDBRANCH  12  13
ENDBRANCH  10  12
ENDBRANCH   6  10
TORSDOF 3
ENDMDL
MODEL 10
REMARK VINA RESULT:      -6.9      5.484      8.315
REMARK  3 active torsions:
REMARK  status: ('A' for Active; 'I' for Inactive)
REMARK    1  A    between atoms: C_6  and  N_7 
REMARK    2  A    between atoms: N_7  and  C_8 
REMARK    3  A    between atoms: C_8  and  C_9 
ROOT
HETATM    1  C   UNL     1     -41.750  59.904 -50.811  1.00  0.00     0.024 A 
HETATM    2  C   UNL     1     -40.626  59.095 -50.983  1.00  0.00     0.046 A 
HETATM    3  C   UNL     1     -39.341  59.530 -50.517  1.00  0.00     0.099 C 
HETATM    4  N   UNL     1     -38.284  59.829 -50.148  1.00  0.00    -0.191 NA
HETATM    5  C   UNL     1     -40.747  57.836 -51.598  1.00  0.00     0.047 A 
HETATM    6  C   UNL     1     -41.982  57.379 -52.078  1.00  0.00     0.032 A 
HETATM    7  C   UNL     1     -43.110  58.203 -51.856  1.00  0.00     0.055 A 
HETATM    8 CL   UNL     1     -44.681  57.680 -52.357  1.00  0.00    -0.082 Cl
HETATM    9  C   UNL     1     -42.996  59.455 -51.243  1.00  0.00     0.027 A 
ENDROOT
BRANCH   6  10
HETATM   10  N   UNL     1     -42.158  56.085 -52.618  1.00  0.00    -0.286 NA
HETATM   11  H   UNL     1     -43.051  56.070 -53.128  1.00  0.00     0.128 HD
BRANCH  10  12
HETATM   12  C   UNL     1     -41.083  55.443 -53.388  1.00  0.00     0.149 C 
BRANCH  12  13
HETATM   13  C   UNL     1     -40.723  54.139 -52.693  1.00  0.00     0.029 A 
HETATM   14  N   UNL     1     -40.418  53.083 -53.534  1.00  0.00    -0.338 N 
HETATM   15  H   UNL     1     -40.467  53.239 -54.543  1.00  0.00     0.168 HD
HETATM   16  C   UNL     1     -40.094  51.912 -53.051  1.00  0.00     0.158 A 
HETATM   17  N   UNL     1     -40.045  51.694 -51.754  1.00  0.00    -0.269 N 
HETATM   18  S   UNL     1     -39.702  50.528 -54.021  1.00  0.00    -0.064 SA
HETATM   19  C   UNL     1     -40.334  52.679 -50.787  1.00  0.00     0.255 A 
HETATM   20  C   UNL     1     -39.683  50.398 -51.445  1.00  0.00     0.109 A 
HETATM   21  O   UNL     1     -40.276  52.444 -49.595  1.00  0.00    -0.268 OA
HETATM   22  C   UNL     1     -40.702  53.984 -51.363  1.00  0.00     0.101 A 
HETATM   23  C   UNL     1     -39.462  49.641 -52.530  1.00  0.00     0.071 A 
ENDBRANCH  12  13
ENDBRANCH  10  12
ENDBRANCH   6  10
TORSDOF 3
ENDMDL
