MODEL 1
REMARK VINA RESULT:      -8.9      0.000      0.000
REMARK  10 active torsions:
REMARK  status: ('A' for Active; 'I' for Inactive)
REMARK    1  A    between atoms: C_2  and  O_3 
REMARK    2  A    between atoms: O_3  and  C_4 
REMARK    3  A    between atoms: C_4  and  C_5 
REMARK    4  A    between atoms: C_7  and  N_8 
REMARK    5  A    between atoms: N_8  and  C_9 
REMARK    6  A    between atoms: C_9  and  N_10 
REMARK       I    between atoms: N_10  and  C_11 
REMARK    7  A    between atoms: C_11  and  C_12 
REMARK    8  A    between atoms: C_21  and  N_22 
REMARK    9  A    between atoms: N_25  and  C_27 
REMARK   10  A    between atoms: C_27  and  C_28 
ROOT
HETATM    1  C   UNL     1     -43.065  56.737 -58.029  1.00  0.00     0.041 A 
HETATM    2  C   UNL     1     -42.594  56.163 -56.840  1.00  0.00     0.049 A 
HETATM    3  C   UNL     1     -42.506  56.926 -55.666  1.00  0.00     0.062 A 
HETATM    4  C   UNL     1     -42.949  58.272 -55.657  1.00  0.00     0.057 A 
HETATM    5  C   UNL     1     -43.416  58.824 -56.862  1.00  0.00     0.033 A 
HETATM    6  C   UNL     1     -43.471  58.071 -58.037  1.00  0.00     0.020 A 
ENDROOT
BRANCH   3   7
HETATM    7  N   UNL     1     -41.812  56.444 -54.525  1.00  0.00    -0.331 N 
HETATM    8  H   UNL     1     -40.811  56.413 -54.670  1.00  0.00     0.168 HD
BRANCH   7   9
HETATM    9  C   UNL     1     -42.270  55.603 -53.566  1.00  0.00     0.179 C 
HETATM   10  S   UNL     1     -43.759  55.894 -52.868  1.00  0.00    -0.040 SA
BRANCH   9  11
HETATM   11  N   UNL     1     -41.570  54.492 -53.205  1.00  0.00    -0.299 N 
HETATM   12  C   UNL     1     -40.564  53.883 -53.954  1.00  0.00     0.258 C 
HETATM   13  O   UNL     1     -39.959  54.404 -54.885  1.00  0.00    -0.267 OA
HETATM   14  H   UNL     1     -42.085  53.890 -52.578  1.00  0.00     0.171 HD
BRANCH  12  15
HETATM   15  C   UNL     1     -40.260  52.469 -53.562  1.00  0.00     0.038 A 
HETATM   16  C   UNL     1     -39.857  52.144 -52.251  1.00  0.00    -0.046 A 
HETATM   17  C   UNL     1     -39.699  53.179 -51.172  1.00  0.00     0.049 C 
HETATM   18  C   UNL     1     -39.565  50.803 -51.945  1.00  0.00     0.007 A 
HETATM   19  C   UNL     1     -39.676  49.803 -52.912  1.00  0.00     0.001 A 
HETATM   20  C   UNL     1     -40.062  50.129 -54.208  1.00  0.00     0.001 A 
HETATM   21  C   UNL     1     -40.341  51.456 -54.536  1.00  0.00     0.017 A 
ENDBRANCH  12  15
ENDBRANCH   9  11
ENDBRANCH   7   9
ENDBRANCH   3   7
BRANCH   4  22
HETATM   22  N   UNL     1     -43.008  59.063 -54.513  1.00  0.00    -0.376 N 
HETATM   23  C   UNL     1     -41.789  59.705 -53.999  1.00  0.00     0.150 C 
HETATM   24  C   UNL     1     -41.833  59.732 -52.457  1.00  0.00     0.255 C 
HETATM   25  N   UNL     1     -43.143  60.362 -51.961  1.00  0.00    -0.064 N 
HETATM   26  H   UNL     1     -43.154  61.325 -52.316  1.00  0.00     0.280 HD
HETATM   27  C   UNL     1     -44.357  59.640 -52.544  1.00  0.00     0.255 C 
HETATM   28  C   UNL     1     -44.297  59.605 -54.085  1.00  0.00     0.150 C 
BRANCH  25  29
HETATM   29  C   UNL     1     -43.217  60.439 -50.458  1.00  0.00     0.273 C 
BRANCH  29  30
HETATM   30  C   UNL     1     -43.441  61.838 -49.956  1.00  0.00    -0.033 A 
HETATM   31  C   UNL     1     -44.419  62.094 -48.981  1.00  0.00     0.009 A 
HETATM   32  C   UNL     1     -44.644  63.395 -48.531  1.00  0.00     0.001 A 
HETATM   33  C   UNL     1     -43.898  64.451 -49.048  1.00  0.00     0.000 A 
HETATM   34  C   UNL     1     -42.922  64.209 -50.012  1.00  0.00     0.001 A 
HETATM   35  C   UNL     1     -42.692  62.910 -50.465  1.00  0.00     0.009 A 
ENDBRANCH  29  30
ENDBRANCH  25  29
ENDBRANCH   4  22
BRANCH   1  36
HETATM   36  C   UNL     1     -43.072  55.901 -59.259  1.00  0.00     0.293 C 
HETATM   37  O   UNL     1     -42.289  56.060 -60.181  1.00  0.00    -0.259 OA
BRANCH  36  38
HETATM   38  O   UNL     1     -44.090  55.010 -59.206  1.00  0.00    -0.318 OA
BRANCH  38  39
HETATM   39  C   UNL     1     -44.903  54.909 -60.387  1.00  0.00     0.174 C 
HETATM   40  C   UNL     1     -46.082  55.856 -60.281  1.00  0.00     0.034 C 
ENDBRANCH  38  39
ENDBRANCH  36  38
ENDBRANCH   1  36
TORSDOF 10
ENDMDL
MODEL 2
REMARK VINA RESULT:      -8.6      1.877      6.542
REMARK  10 active torsions:
REMARK  status: ('A' for Active; 'I' for Inactive)
REMARK    1  A    between atoms: C_2  and  O_3 
REMARK    2  A    between atoms: O_3  and  C_4 
REMARK    3  A    between atoms: C_4  and  C_5 
REMARK    4  A    between atoms: C_7  and  N_8 
REMARK    5  A    between atoms: N_8  and  C_9 
REMARK    6  A    between atoms: C_9  and  N_10 
REMARK       I    between atoms: N_10  and  C_11 
REMARK    7  A    between atoms: C_11  and  C_12 
REMARK    8  A    between atoms: C_21  and  N_22 
REMARK    9  A    between atoms: N_25  and  C_27 
REMARK   10  A    between atoms: C_27  and  C_28 
ROOT
HETATM    1  C   UNL     1     -40.699  53.087 -52.910  1.00  0.00     0.041 A 
HETATM    2  C   UNL     1     -41.546  53.802 -53.768  1.00  0.00     0.049 A 
HETATM    3  C   UNL     1     -42.258  54.916 -53.300  1.00  0.00     0.062 A 
HETATM    4  C   UNL     1     -42.083  55.366 -51.967  1.00  0.00     0.057 A 
HETATM    5  C   UNL     1     -41.228  54.631 -51.128  1.00  0.00     0.033 A 
HETATM    6  C   UNL     1     -40.545  53.503 -51.587  1.00  0.00     0.020 A 
ENDROOT
BRANCH   3   7
HETATM    7  N   UNL     1     -43.298  55.502 -54.071  1.00  0.00    -0.331 N 
HETATM    8  H   UNL     1     -44.139  54.940 -54.069  1.00  0.00     0.168 HD
BRANCH   7   9
HETATM    9  C   UNL     1     -43.178  56.336 -55.131  1.00  0.00     0.179 C 
HETATM   10  S   UNL     1     -42.418  57.810 -54.928  1.00  0.00    -0.040 SA
BRANCH   9  11
HETATM   11  N   UNL     1     -43.607  55.973 -56.371  1.00  0.00    -0.299 N 
HETATM   12  C   UNL     1     -43.244  56.584 -57.571  1.00  0.00     0.258 C 
HETATM   13  O   UNL     1     -42.280  57.326 -57.725  1.00  0.00    -0.267 OA
HETATM   14  H   UNL     1     -44.510  55.520 -56.357  1.00  0.00     0.171 HD
BRANCH  12  15
HETATM   15  C   UNL     1     -44.159  56.296 -58.722  1.00  0.00     0.038 A 
HETATM   16  C   UNL     1     -45.291  57.097 -58.976  1.00  0.00    -0.046 A 
HETATM   17  C   UNL     1     -45.657  58.276 -58.116  1.00  0.00     0.049 C 
HETATM   18  C   UNL     1     -46.126  56.767 -60.058  1.00  0.00     0.007 A 
HETATM   19  C   UNL     1     -45.844  55.673 -60.877  1.00  0.00     0.001 A 
HETATM   20  C   UNL     1     -44.734  54.877 -60.616  1.00  0.00     0.001 A 
HETATM   21  C   UNL     1     -43.901  55.178 -59.538  1.00  0.00     0.017 A 
ENDBRANCH  12  15
ENDBRANCH   9  11
ENDBRANCH   7   9
ENDBRANCH   3   7
BRANCH   4  22
HETATM   22  N   UNL     1     -42.656  56.527 -51.458  1.00  0.00    -0.376 N 
HETATM   23  C   UNL     1     -44.039  56.506 -50.961  1.00  0.00     0.150 C 
HETATM   24  C   UNL     1     -44.723  57.852 -51.285  1.00  0.00     0.255 C 
HETATM   25  N   UNL     1     -43.878  59.028 -50.772  1.00  0.00    -0.064 N 
HETATM   26  H   UNL     1     -43.816  58.918 -49.753  1.00  0.00     0.280 HD
HETATM   27  C   UNL     1     -42.456  58.971 -51.330  1.00  0.00     0.255 C 
HETATM   28  C   UNL     1     -41.789  57.618 -51.015  1.00  0.00     0.150 C 
BRANCH  25  29
HETATM   29  C   UNL     1     -44.522  60.364 -51.038  1.00  0.00     0.273 C 
BRANCH  29  30
HETATM   30  C   UNL     1     -44.685  61.191 -49.794  1.00  0.00    -0.033 A 
HETATM   31  C   UNL     1     -45.334  60.660 -48.668  1.00  0.00     0.009 A 
HETATM   32  C   UNL     1     -45.507  61.435 -47.521  1.00  0.00     0.001 A 
HETATM   33  C   UNL     1     -45.035  62.745 -47.487  1.00  0.00     0.000 A 
HETATM   34  C   UNL     1     -44.385  63.282 -48.595  1.00  0.00     0.001 A 
HETATM   35  C   UNL     1     -44.209  62.510 -49.745  1.00  0.00     0.009 A 
ENDBRANCH  29  30
ENDBRANCH  25  29
ENDBRANCH   4  22
BRANCH   1  36
HETATM   36  C   UNL     1     -40.022  51.873 -53.440  1.00  0.00     0.293 C 
HETATM   37  O   UNL     1     -40.225  51.427 -54.556  1.00  0.00    -0.259 OA
BRANCH  36  38
HETATM   38  O   UNL     1     -39.219  51.340 -52.488  1.00  0.00    -0.318 OA
BRANCH  38  39
HETATM   39  C   UNL     1     -39.490  49.976 -52.126  1.00  0.00     0.174 C 
HETATM   40  C   UNL     1     -39.839  49.896 -50.652  1.00  0.00     0.034 C 
ENDBRANCH  38  39
ENDBRANCH  36  38
ENDBRANCH   1  36
TORSDOF 10
ENDMDL
MODEL 3
REMARK VINA RESULT:      -8.6      3.318      8.050
REMARK  10 active torsions:
REMARK  status: ('A' for Active; 'I' for Inactive)
REMARK    1  A    between atoms: C_2  and  O_3 
REMARK    2  A    between atoms: O_3  and  C_4 
REMARK    3  A    between atoms: C_4  and  C_5 
REMARK    4  A    between atoms: C_7  and  N_8 
REMARK    5  A    between atoms: N_8  and  C_9 
REMARK    6  A    between atoms: C_9  and  N_10 
REMARK       I    between atoms: N_10  and  C_11 
REMARK    7  A    between atoms: C_11  and  C_12 
REMARK    8  A    between atoms: C_21  and  N_22 
REMARK    9  A    between atoms: N_25  and  C_27 
REMARK   10  A    between atoms: C_27  and  C_28 
ROOT
HETATM    1  C   UNL     1     -45.437  60.655 -50.100  1.00  0.00     0.041 A 
HETATM    2  C   UNL     1     -44.575  59.553 -50.196  1.00  0.00     0.049 A 
HETATM    3  C   UNL     1     -44.213  59.039 -51.449  1.00  0.00     0.062 A 
HETATM    4  C   UNL     1     -44.670  59.665 -52.636  1.00  0.00     0.057 A 
HETATM    5  C   UNL     1     -45.533  60.767 -52.513  1.00  0.00     0.033 A 
HETATM    6  C   UNL     1     -45.918  61.257 -51.264  1.00  0.00     0.020 A 
ENDROOT
BRANCH   3   7
HETATM    7  N   UNL     1     -43.548  57.789 -51.567  1.00  0.00    -0.331 N 
HETATM    8  H   UNL     1     -43.987  57.067 -51.011  1.00  0.00     0.168 HD
BRANCH   7   9
HETATM    9  C   UNL     1     -42.243  57.566 -51.856  1.00  0.00     0.179 C 
HETATM   10  S   UNL     1     -41.102  58.701 -51.407  1.00  0.00    -0.040 SA
BRANCH   9  11
HETATM   11  N   UNL     1     -41.836  56.408 -52.446  1.00  0.00    -0.299 N 
HETATM   12  C   UNL     1     -42.382  55.144 -52.225  1.00  0.00     0.258 C 
HETATM   13  O   UNL     1     -43.474  54.924 -51.712  1.00  0.00    -0.267 OA
HETATM   14  H   UNL     1     -40.866  56.431 -52.729  1.00  0.00     0.171 HD
BRANCH  12  15
HETATM   15  C   UNL     1     -41.507  54.003 -52.643  1.00  0.00     0.038 A 
HETATM   16  C   UNL     1     -41.571  53.468 -53.946  1.00  0.00    -0.046 A 
HETATM   17  C   UNL     1     -42.516  53.996 -54.990  1.00  0.00     0.049 C 
HETATM   18  C   UNL     1     -40.740  52.383 -54.275  1.00  0.00     0.007 A 
HETATM   19  C   UNL     1     -39.858  51.842 -53.340  1.00  0.00     0.001 A 
HETATM   20  C   UNL     1     -39.806  52.362 -52.051  1.00  0.00     0.001 A 
HETATM   21  C   UNL     1     -40.633  53.429 -51.699  1.00  0.00     0.017 A 
ENDBRANCH  12  15
ENDBRANCH   9  11
ENDBRANCH   7   9
ENDBRANCH   3   7
BRANCH   4  22
HETATM   22  N   UNL     1     -44.265  59.294 -53.915  1.00  0.00    -0.376 N 
HETATM   23  C   UNL     1     -45.170  58.518 -54.776  1.00  0.00     0.150 C 
HETATM   24  C   UNL     1     -44.347  57.528 -55.627  1.00  0.00     0.255 C 
HETATM   25  N   UNL     1     -43.224  58.260 -56.377  1.00  0.00    -0.064 N 
HETATM   26  H   UNL     1     -43.682  58.937 -56.997  1.00  0.00     0.280 HD
HETATM   27  C   UNL     1     -42.335  59.044 -55.412  1.00  0.00     0.255 C 
HETATM   28  C   UNL     1     -43.168  60.018 -54.556  1.00  0.00     0.150 C 
BRANCH  25  29
HETATM   29  C   UNL     1     -42.411  57.336 -57.248  1.00  0.00     0.273 C 
BRANCH  29  30
HETATM   30  C   UNL     1     -43.194  56.793 -58.411  1.00  0.00    -0.033 A 
HETATM   31  C   UNL     1     -43.775  57.665 -59.345  1.00  0.00     0.009 A 
HETATM   32  C   UNL     1     -44.521  57.162 -60.411  1.00  0.00     0.001 A 
HETATM   33  C   UNL     1     -44.695  55.788 -60.555  1.00  0.00     0.000 A 
HETATM   34  C   UNL     1     -44.119  54.912 -59.637  1.00  0.00     0.001 A 
HETATM   35  C   UNL     1     -43.371  55.410 -58.569  1.00  0.00     0.009 A 
ENDBRANCH  29  30
ENDBRANCH  25  29
ENDBRANCH   4  22
BRANCH   1  36
HETATM   36  C   UNL     1     -45.843  61.116 -48.746  1.00  0.00     0.293 C 
HETATM   37  O   UNL     1     -45.919  62.293 -48.435  1.00  0.00    -0.259 OA
BRANCH  36  38
HETATM   38  O   UNL     1     -46.047  60.049 -47.937  1.00  0.00    -0.318 OA
BRANCH  38  39
HETATM   39  C   UNL     1     -46.043  60.318 -46.525  1.00  0.00     0.174 C 
HETATM   40  C   UNL     1     -46.745  59.196 -45.786  1.00  0.00     0.034 C 
ENDBRANCH  38  39
ENDBRANCH  36  38
ENDBRANCH   1  36
TORSDOF 10
ENDMDL
MODEL 4
REMARK VINA RESULT:      -8.5      2.137      6.584
REMARK  10 active torsions:
REMARK  status: ('A' for Active; 'I' for Inactive)
REMARK    1  A    between atoms: C_2  and  O_3 
REMARK    2  A    between atoms: O_3  and  C_4 
REMARK    3  A    between atoms: C_4  and  C_5 
REMARK    4  A    between atoms: C_7  and  N_8 
REMARK    5  A    between atoms: N_8  and  C_9 
REMARK    6  A    between atoms: C_9  and  N_10 
REMARK       I    between atoms: N_10  and  C_11 
REMARK    7  A    between atoms: C_11  and  C_12 
REMARK    8  A    between atoms: C_21  and  N_22 
REMARK    9  A    between atoms: N_25  and  C_27 
REMARK   10  A    between atoms: C_27  and  C_28 
ROOT
HETATM    1  C   UNL     1     -40.238  52.675 -51.870  1.00  0.00     0.041 A 
HETATM    2  C   UNL     1     -40.239  53.642 -52.885  1.00  0.00     0.049 A 
HETATM    3  C   UNL     1     -40.928  54.852 -52.716  1.00  0.00     0.062 A 
HETATM    4  C   UNL     1     -41.584  55.133 -51.491  1.00  0.00     0.057 A 
HETATM    5  C   UNL     1     -41.569  54.147 -50.490  1.00  0.00     0.033 A 
HETATM    6  C   UNL     1     -40.909  52.930 -50.674  1.00  0.00     0.020 A 
ENDROOT
BRANCH   3   7
HETATM    7  N   UNL     1     -41.147  55.733 -53.808  1.00  0.00    -0.331 N 
HETATM    8  H   UNL     1     -41.067  56.705 -53.538  1.00  0.00     0.168 HD
BRANCH   7   9
HETATM    9  C   UNL     1     -41.895  55.514 -54.916  1.00  0.00     0.179 C 
HETATM   10  S   UNL     1     -43.024  54.283 -54.910  1.00  0.00    -0.040 SA
BRANCH   9  11
HETATM   11  N   UNL     1     -41.789  56.316 -56.012  1.00  0.00    -0.299 N 
HETATM   12  C   UNL     1     -42.728  57.261 -56.424  1.00  0.00     0.258 C 
HETATM   13  O   UNL     1     -43.625  57.720 -55.726  1.00  0.00    -0.267 OA
HETATM   14  H   UNL     1     -41.213  55.914 -56.739  1.00  0.00     0.171 HD
BRANCH  12  15
HETATM   15  C   UNL     1     -42.597  57.691 -57.853  1.00  0.00     0.038 A 
HETATM   16  C   UNL     1     -42.951  56.831 -58.913  1.00  0.00    -0.046 A 
HETATM   17  C   UNL     1     -43.470  55.438 -58.685  1.00  0.00     0.049 C 
HETATM   18  C   UNL     1     -42.787  57.281 -60.235  1.00  0.00     0.007 A 
HETATM   19  C   UNL     1     -42.291  58.557 -60.504  1.00  0.00     0.001 A 
HETATM   20  C   UNL     1     -41.931  59.399 -59.458  1.00  0.00     0.001 A 
HETATM   21  C   UNL     1     -42.071  58.966 -58.139  1.00  0.00     0.017 A 
ENDBRANCH  12  15
ENDBRANCH   9  11
ENDBRANCH   7   9
ENDBRANCH   3   7
BRANCH   4  22
HETATM   22  N   UNL     1     -42.189  56.352 -51.196  1.00  0.00    -0.376 N 
HETATM   23  C   UNL     1     -43.649  56.429 -51.040  1.00  0.00     0.150 C 
HETATM   24  C   UNL     1     -44.155  57.779 -51.590  1.00  0.00     0.255 C 
HETATM   25  N   UNL     1     -43.383  58.947 -50.957  1.00  0.00    -0.064 N 
HETATM   26  H   UNL     1     -43.567  58.904 -49.948  1.00  0.00     0.280 HD
HETATM   27  C   UNL     1     -41.877  58.787 -51.161  1.00  0.00     0.255 C 
HETATM   28  C   UNL     1     -41.384  57.429 -50.622  1.00  0.00     0.150 C 
BRANCH  25  29
HETATM   29  C   UNL     1     -43.865  60.290 -51.442  1.00  0.00     0.273 C 
BRANCH  29  30
HETATM   30  C   UNL     1     -44.619  61.053 -50.389  1.00  0.00    -0.033 A 
HETATM   31  C   UNL     1     -45.879  61.603 -50.677  1.00  0.00     0.009 A 
HETATM   32  C   UNL     1     -46.569  62.332 -49.708  1.00  0.00     0.001 A 
HETATM   33  C   UNL     1     -46.011  62.519 -48.446  1.00  0.00     0.000 A 
HETATM   34  C   UNL     1     -44.764  61.974 -48.147  1.00  0.00     0.001 A 
HETATM   35  C   UNL     1     -44.070  61.244 -49.113  1.00  0.00     0.009 A 
ENDBRANCH  29  30
ENDBRANCH  25  29
ENDBRANCH   4  22
BRANCH   1  36
HETATM   36  C   UNL     1     -39.549  51.383 -52.129  1.00  0.00     0.293 C 
HETATM   37  O   UNL     1     -39.372  50.535 -51.271  1.00  0.00    -0.259 OA
BRANCH  36  38
HETATM   38  O   UNL     1     -39.119  51.339 -53.413  1.00  0.00    -0.318 OA
BRANCH  38  39
HETATM   39  C   UNL     1     -39.361  50.110 -54.117  1.00  0.00     0.174 C 
HETATM   40  C   UNL     1     -40.822  50.024 -54.513  1.00  0.00     0.034 C 
ENDBRANCH  38  39
ENDBRANCH  36  38
ENDBRANCH   1  36
TORSDOF 10
ENDMDL
MODEL 5
REMARK VINA RESULT:      -8.4      2.115      3.133
REMARK  10 active torsions:
REMARK  status: ('A' for Active; 'I' for Inactive)
REMARK    1  A    between atoms: C_2  and  O_3 
REMARK    2  A    between atoms: O_3  and  C_4 
REMARK    3  A    between atoms: C_4  and  C_5 
REMARK    4  A    between atoms: C_7  and  N_8 
REMARK    5  A    between atoms: N_8  and  C_9 
REMARK    6  A    between atoms: C_9  and  N_10 
REMARK       I    between atoms: N_10  and  C_11 
REMARK    7  A    between atoms: C_11  and  C_12 
REMARK    8  A    between atoms: C_21  and  N_22 
REMARK    9  A    between atoms: N_25  and  C_27 
REMARK   10  A    between atoms: C_27  and  C_28 
ROOT
HETATM    1  C   UNL     1     -42.622  58.975 -55.933  1.00  0.00     0.041 A 
HETATM    2  C   UNL     1     -42.725  58.009 -54.923  1.00  0.00     0.049 A 
HETATM    3  C   UNL     1     -43.073  58.378 -53.616  1.00  0.00     0.062 A 
HETATM    4  C   UNL     1     -43.380  59.729 -53.315  1.00  0.00     0.057 A 
HETATM    5  C   UNL     1     -43.268  60.678 -54.345  1.00  0.00     0.033 A 
HETATM    6  C   UNL     1     -42.890  60.312 -55.638  1.00  0.00     0.020 A 
ENDROOT
BRANCH   3   7
HETATM    7  N   UNL     1     -42.947  57.466 -52.535  1.00  0.00    -0.331 N 
HETATM    8  H   UNL     1     -43.672  57.591 -51.841  1.00  0.00     0.168 HD
BRANCH   7   9
HETATM    9  C   UNL     1     -41.818  56.875 -52.072  1.00  0.00     0.179 C 
HETATM   10  S   UNL     1     -41.018  57.549 -50.771  1.00  0.00    -0.040 SA
BRANCH   9  11
HETATM   11  N   UNL     1     -41.359  55.709 -52.607  1.00  0.00    -0.299 N 
HETATM   12  C   UNL     1     -42.002  54.473 -52.541  1.00  0.00     0.258 C 
HETATM   13  O   UNL     1     -43.185  54.304 -52.267  1.00  0.00    -0.267 OA
HETATM   14  H   UNL     1     -40.352  55.684 -52.687  1.00  0.00     0.171 HD
BRANCH  12  15
HETATM   15  C   UNL     1     -41.120  53.294 -52.811  1.00  0.00     0.038 A 
HETATM   16  C   UNL     1     -40.265  52.776 -51.817  1.00  0.00    -0.046 A 
HETATM   17  C   UNL     1     -40.177  53.368 -50.438  1.00  0.00     0.049 C 
HETATM   18  C   UNL     1     -39.443  51.680 -52.134  1.00  0.00     0.007 A 
HETATM   19  C   UNL     1     -39.471  51.103 -53.404  1.00  0.00     0.001 A 
HETATM   20  C   UNL     1     -40.305  51.624 -54.387  1.00  0.00     0.001 A 
HETATM   21  C   UNL     1     -41.117  52.721 -54.098  1.00  0.00     0.017 A 
ENDBRANCH  12  15
ENDBRANCH   9  11
ENDBRANCH   7   9
ENDBRANCH   3   7
BRANCH   4  22
HETATM   22  N   UNL     1     -43.847  60.162 -52.077  1.00  0.00    -0.376 N 
HETATM   23  C   UNL     1     -45.130  59.666 -51.561  1.00  0.00     0.150 C 
HETATM   24  C   UNL     1     -45.839  60.790 -50.776  1.00  0.00     0.255 C 
HETATM   25  N   UNL     1     -44.905  61.377 -49.706  1.00  0.00    -0.064 N 
HETATM   26  H   UNL     1     -44.680  60.608 -49.065  1.00  0.00     0.280 HD
HETATM   27  C   UNL     1     -43.595  61.863 -50.324  1.00  0.00     0.255 C 
HETATM   28  C   UNL     1     -42.903  60.738 -51.119  1.00  0.00     0.150 C 
BRANCH  25  29
HETATM   29  C   UNL     1     -45.566  62.459 -48.892  1.00  0.00     0.273 C 
BRANCH  29  30
HETATM   30  C   UNL     1     -45.255  62.357 -47.425  1.00  0.00    -0.033 A 
HETATM   31  C   UNL     1     -44.959  61.111 -46.847  1.00  0.00     0.009 A 
HETATM   32  C   UNL     1     -44.693  61.012 -45.481  1.00  0.00     0.001 A 
HETATM   33  C   UNL     1     -44.721  62.151 -44.680  1.00  0.00     0.000 A 
HETATM   34  C   UNL     1     -45.008  63.392 -45.242  1.00  0.00     0.001 A 
HETATM   35  C   UNL     1     -45.274  63.497 -46.608  1.00  0.00     0.009 A 
ENDBRANCH  29  30
ENDBRANCH  25  29
ENDBRANCH   4  22
BRANCH   1  36
HETATM   36  C   UNL     1     -42.183  58.537 -57.285  1.00  0.00     0.293 C 
HETATM   37  O   UNL     1     -41.682  59.290 -58.103  1.00  0.00    -0.259 OA
BRANCH  36  38
HETATM   38  O   UNL     1     -42.476  57.227 -57.463  1.00  0.00    -0.318 OA
BRANCH  38  39
HETATM   39  C   UNL     1     -43.504  56.936 -58.424  1.00  0.00     0.174 C 
HETATM   40  C   UNL     1     -43.061  55.798 -59.323  1.00  0.00     0.034 C 
ENDBRANCH  38  39
ENDBRANCH  36  38
ENDBRANCH   1  36
TORSDOF 10
ENDMDL
MODEL 6
REMARK VINA RESULT:      -8.4      2.986      7.767
REMARK  10 active torsions:
REMARK  status: ('A' for Active; 'I' for Inactive)
REMARK    1  A    between atoms: C_2  and  O_3 
REMARK    2  A    between atoms: O_3  and  C_4 
REMARK    3  A    between atoms: C_4  and  C_5 
REMARK    4  A    between atoms: C_7  and  N_8 
REMARK    5  A    between atoms: N_8  and  C_9 
REMARK    6  A    between atoms: C_9  and  N_10 
REMARK       I    between atoms: N_10  and  C_11 
REMARK    7  A    between atoms: C_11  and  C_12 
REMARK    8  A    between atoms: C_21  and  N_22 
REMARK    9  A    between atoms: N_25  and  C_27 
REMARK   10  A    between atoms: C_27  and  C_28 
ROOT
HETATM    1  C   UNL     1     -44.796  60.702 -50.974  1.00  0.00     0.041 A 
HETATM    2  C   UNL     1     -44.075  59.505 -50.872  1.00  0.00     0.049 A 
HETATM    3  C   UNL     1     -43.691  58.804 -52.025  1.00  0.00     0.062 A 
HETATM    4  C   UNL     1     -43.979  59.331 -53.309  1.00  0.00     0.057 A 
HETATM    5  C   UNL     1     -44.703  60.533 -53.383  1.00  0.00     0.033 A 
HETATM    6  C   UNL     1     -45.112  61.212 -52.234  1.00  0.00     0.020 A 
ENDROOT
BRANCH   3   7
HETATM    7  N   UNL     1     -43.182  57.480 -51.946  1.00  0.00    -0.331 N 
HETATM    8  H   UNL     1     -43.840  56.841 -51.521  1.00  0.00     0.168 HD
BRANCH   7   9
HETATM    9  C   UNL     1     -41.886  57.091 -51.869  1.00  0.00     0.179 C 
HETATM   10  S   UNL     1     -40.808  58.011 -50.985  1.00  0.00    -0.040 SA
BRANCH   9  11
HETATM   11  N   UNL     1     -41.459  55.933 -52.445  1.00  0.00    -0.299 N 
HETATM   12  C   UNL     1     -42.074  54.687 -52.324  1.00  0.00     0.258 C 
HETATM   13  O   UNL     1     -43.224  54.499 -51.944  1.00  0.00    -0.267 OA
HETATM   14  H   UNL     1     -40.463  55.924 -52.616  1.00  0.00     0.171 HD
BRANCH  12  15
HETATM   15  C   UNL     1     -41.201  53.522 -52.675  1.00  0.00     0.038 A 
HETATM   16  C   UNL     1     -40.370  52.913 -51.713  1.00  0.00    -0.046 A 
HETATM   17  C   UNL     1     -40.298  53.390 -50.288  1.00  0.00     0.049 C 
HETATM   18  C   UNL     1     -39.555  51.836 -52.104  1.00  0.00     0.007 A 
HETATM   19  C   UNL     1     -39.568  51.364 -53.417  1.00  0.00     0.001 A 
HETATM   20  C   UNL     1     -40.379  51.974 -54.367  1.00  0.00     0.001 A 
HETATM   21  C   UNL     1     -41.182  53.055 -54.004  1.00  0.00     0.017 A 
ENDBRANCH  12  15
ENDBRANCH   9  11
ENDBRANCH   7   9
ENDBRANCH   3   7
BRANCH   4  22
HETATM   22  N   UNL     1     -43.534  58.764 -54.499  1.00  0.00    -0.376 N 
HETATM   23  C   UNL     1     -42.167  59.026 -54.972  1.00  0.00     0.150 C 
HETATM   24  C   UNL     1     -42.162  59.109 -56.513  1.00  0.00     0.255 C 
HETATM   25  N   UNL     1     -42.822  57.864 -57.126  1.00  0.00    -0.064 N 
HETATM   26  H   UNL     1     -42.256  57.061 -56.831  1.00  0.00     0.280 HD
HETATM   27  C   UNL     1     -44.234  57.662 -56.579  1.00  0.00     0.255 C 
HETATM   28  C   UNL     1     -44.230  57.596 -55.039  1.00  0.00     0.150 C 
BRANCH  25  29
HETATM   29  C   UNL     1     -42.812  57.887 -58.633  1.00  0.00     0.273 C 
BRANCH  29  30
HETATM   30  C   UNL     1     -43.736  56.867 -59.238  1.00  0.00    -0.033 A 
HETATM   31  C   UNL     1     -43.443  55.497 -59.141  1.00  0.00     0.009 A 
HETATM   32  C   UNL     1     -44.288  54.552 -59.722  1.00  0.00     0.001 A 
HETATM   33  C   UNL     1     -45.431  54.962 -60.404  1.00  0.00     0.000 A 
HETATM   34  C   UNL     1     -45.735  56.318 -60.503  1.00  0.00     0.001 A 
HETATM   35  C   UNL     1     -44.893  57.268 -59.923  1.00  0.00     0.009 A 
ENDBRANCH  29  30
ENDBRANCH  25  29
ENDBRANCH   4  22
BRANCH   1  36
HETATM   36  C   UNL     1     -45.236  61.368 -49.719  1.00  0.00     0.293 C 
HETATM   37  O   UNL     1     -46.401  61.418 -49.362  1.00  0.00    -0.259 OA
BRANCH  36  38
HETATM   38  O   UNL     1     -44.173  61.934 -49.099  1.00  0.00    -0.318 OA
BRANCH  38  39
HETATM   39  C   UNL     1     -44.036  63.356 -49.255  1.00  0.00     0.174 C 
HETATM   40  C   UNL     1     -42.798  63.666 -50.074  1.00  0.00     0.034 C 
ENDBRANCH  38  39
ENDBRANCH  36  38
ENDBRANCH   1  36
TORSDOF 10
ENDMDL
MODEL 7
REMARK VINA RESULT:      -8.4      2.092      3.186
REMARK  10 active torsions:
REMARK  status: ('A' for Active; 'I' for Inactive)
REMARK    1  A    between atoms: C_2  and  O_3 
REMARK    2  A    between atoms: O_3  and  C_4 
REMARK    3  A    between atoms: C_4  and  C_5 
REMARK    4  A    between atoms: C_7  and  N_8 
REMARK    5  A    between atoms: N_8  and  C_9 
REMARK    6  A    between atoms: C_9  and  N_10 
REMARK       I    between atoms: N_10  and  C_11 
REMARK    7  A    between atoms: C_11  and  C_12 
REMARK    8  A    between atoms: C_21  and  N_22 
REMARK    9  A    between atoms: N_25  and  C_27 
REMARK   10  A    between atoms: C_27  and  C_28 
ROOT
HETATM    1  C   UNL     1     -43.289  55.733 -54.953  1.00  0.00     0.041 A 
HETATM    2  C   UNL     1     -43.313  55.217 -53.650  1.00  0.00     0.049 A 
HETATM    3  C   UNL     1     -43.409  56.076 -52.545  1.00  0.00     0.062 A 
HETATM    4  C   UNL     1     -43.541  57.474 -52.738  1.00  0.00     0.057 A 
HETATM    5  C   UNL     1     -43.514  57.965 -54.055  1.00  0.00     0.033 A 
HETATM    6  C   UNL     1     -43.386  57.111 -55.151  1.00  0.00     0.020 A 
ENDROOT
BRANCH   3   7
HETATM    7  N   UNL     1     -43.190  55.602 -51.224  1.00  0.00    -0.331 N 
HETATM    8  H   UNL     1     -43.696  56.143 -50.535  1.00  0.00     0.168 HD
BRANCH   7   9
HETATM    9  C   UNL     1     -42.105  54.948 -50.744  1.00  0.00     0.179 C 
HETATM   10  S   UNL     1     -41.269  55.592 -49.449  1.00  0.00    -0.040 SA
BRANCH   9  11
HETATM   11  N   UNL     1     -41.721  53.745 -51.254  1.00  0.00    -0.299 N 
HETATM   12  C   UNL     1     -40.414  53.260 -51.301  1.00  0.00     0.258 C 
HETATM   13  O   UNL     1     -39.474  53.691 -50.642  1.00  0.00    -0.267 OA
HETATM   14  H   UNL     1     -42.350  53.401 -51.966  1.00  0.00     0.171 HD
BRANCH  12  15
HETATM   15  C   UNL     1     -40.196  52.142 -52.274  1.00  0.00     0.038 A 
HETATM   16  C   UNL     1     -39.959  50.824 -51.835  1.00  0.00    -0.046 A 
HETATM   17  C   UNL     1     -39.902  50.455 -50.378  1.00  0.00     0.049 C 
HETATM   18  C   UNL     1     -39.741  49.819 -52.793  1.00  0.00     0.007 A 
HETATM   19  C   UNL     1     -39.764  50.108 -54.157  1.00  0.00     0.001 A 
HETATM   20  C   UNL     1     -39.985  51.411 -54.589  1.00  0.00     0.001 A 
HETATM   21  C   UNL     1     -40.188  52.427 -53.654  1.00  0.00     0.017 A 
ENDBRANCH  12  15
ENDBRANCH   9  11
ENDBRANCH   7   9
ENDBRANCH   3   7
BRANCH   4  22
HETATM   22  N   UNL     1     -43.760  58.383 -51.707  1.00  0.00    -0.376 N 
HETATM   23  C   UNL     1     -45.029  58.362 -50.966  1.00  0.00     0.150 C 
HETATM   24  C   UNL     1     -45.427  59.805 -50.587  1.00  0.00     0.255 C 
HETATM   25  N   UNL     1     -44.274  60.512 -49.859  1.00  0.00    -0.064 N 
HETATM   26  H   UNL     1     -44.099  59.975 -49.002  1.00  0.00     0.280 HD
HETATM   27  C   UNL     1     -42.995  60.484 -50.693  1.00  0.00     0.255 C 
HETATM   28  C   UNL     1     -42.614  59.041 -51.080  1.00  0.00     0.150 C 
BRANCH  25  29
HETATM   29  C   UNL     1     -44.629  61.916 -49.440  1.00  0.00     0.273 C 
BRANCH  29  30
HETATM   30  C   UNL     1     -44.811  62.053 -47.954  1.00  0.00    -0.033 A 
HETATM   31  C   UNL     1     -45.071  63.310 -47.384  1.00  0.00     0.009 A 
HETATM   32  C   UNL     1     -45.217  63.442 -46.003  1.00  0.00     0.001 A 
HETATM   33  C   UNL     1     -45.105  62.324 -45.179  1.00  0.00     0.000 A 
HETATM   34  C   UNL     1     -44.852  61.072 -45.733  1.00  0.00     0.001 A 
HETATM   35  C   UNL     1     -44.706  60.934 -47.114  1.00  0.00     0.009 A 
ENDBRANCH  29  30
ENDBRANCH  25  29
ENDBRANCH   4  22
BRANCH   1  36
HETATM   36  C   UNL     1     -43.117  54.783 -56.084  1.00  0.00     0.293 C 
HETATM   37  O   UNL     1     -43.348  53.589 -55.996  1.00  0.00    -0.259 OA
BRANCH  36  38
HETATM   38  O   UNL     1     -42.624  55.435 -57.164  1.00  0.00    -0.318 OA
BRANCH  38  39
HETATM   39  C   UNL     1     -43.399  55.333 -58.370  1.00  0.00     0.174 C 
HETATM   40  C   UNL     1     -42.828  56.257 -59.427  1.00  0.00     0.034 C 
ENDBRANCH  38  39
ENDBRANCH  36  38
ENDBRANCH   1  36
TORSDOF 10
ENDMDL
MODEL 8
REMARK VINA RESULT:      -8.3      2.933      8.978
REMARK  10 active torsions:
REMARK  status: ('A' for Active; 'I' for Inactive)
REMARK    1  A    between atoms: C_2  and  O_3 
REMARK    2  A    between atoms: O_3  and  C_4 
REMARK    3  A    between atoms: C_4  and  C_5 
REMARK    4  A    between atoms: C_7  and  N_8 
REMARK    5  A    between atoms: N_8  and  C_9 
REMARK    6  A    between atoms: C_9  and  N_10 
REMARK       I    between atoms: N_10  and  C_11 
REMARK    7  A    between atoms: C_11  and  C_12 
REMARK    8  A    between atoms: C_21  and  N_22 
REMARK    9  A    between atoms: N_25  and  C_27 
REMARK   10  A    between atoms: C_27  and  C_28 
ROOT
HETATM    1  C   UNL     1     -45.648  59.862 -52.036  1.00  0.00     0.041 A 
HETATM    2  C   UNL     1     -44.958  59.776 -53.253  1.00  0.00     0.049 A 
HETATM    3  C   UNL     1     -44.115  58.687 -53.518  1.00  0.00     0.062 A 
HETATM    4  C   UNL     1     -43.998  57.630 -52.580  1.00  0.00     0.057 A 
HETATM    5  C   UNL     1     -44.701  57.742 -51.368  1.00  0.00     0.033 A 
HETATM    6  C   UNL     1     -45.514  58.843 -51.093  1.00  0.00     0.020 A 
ENDROOT
BRANCH   3   7
HETATM    7  N   UNL     1     -43.225  58.697 -54.625  1.00  0.00    -0.331 N 
HETATM    8  H   UNL     1     -42.291  58.981 -54.363  1.00  0.00     0.168 HD
BRANCH   7   9
HETATM    9  C   UNL     1     -43.527  58.883 -55.933  1.00  0.00     0.179 C 
HETATM   10  S   UNL     1     -43.500  60.429 -56.566  1.00  0.00    -0.040 SA
BRANCH   9  11
HETATM   11  N   UNL     1     -43.790  57.830 -56.756  1.00  0.00    -0.299 N 
HETATM   12  C   UNL     1     -43.058  57.480 -57.891  1.00  0.00     0.258 C 
HETATM   13  O   UNL     1     -41.924  57.868 -58.151  1.00  0.00    -0.267 OA
HETATM   14  H   UNL     1     -44.765  57.564 -56.755  1.00  0.00     0.171 HD
BRANCH  12  15
HETATM   15  C   UNL     1     -43.778  56.579 -58.846  1.00  0.00     0.038 A 
HETATM   16  C   UNL     1     -44.587  57.099 -59.877  1.00  0.00    -0.046 A 
HETATM   17  C   UNL     1     -44.784  58.576 -60.083  1.00  0.00     0.049 C 
HETATM   18  C   UNL     1     -45.256  56.205 -60.731  1.00  0.00     0.007 A 
HETATM   19  C   UNL     1     -45.123  54.825 -60.575  1.00  0.00     0.001 A 
HETATM   20  C   UNL     1     -44.336  54.314 -59.549  1.00  0.00     0.001 A 
HETATM   21  C   UNL     1     -43.676  55.184 -58.681  1.00  0.00     0.017 A 
ENDBRANCH  12  15
ENDBRANCH   9  11
ENDBRANCH   7   9
ENDBRANCH   3   7
BRANCH   4  22
HETATM   22  N   UNL     1     -43.281  56.461 -52.812  1.00  0.00    -0.376 N 
HETATM   23  C   UNL     1     -42.302  55.990 -51.821  1.00  0.00     0.150 C 
HETATM   24  C   UNL     1     -41.106  55.339 -52.548  1.00  0.00     0.255 C 
HETATM   25  N   UNL     1     -41.590  54.260 -53.530  1.00  0.00    -0.064 N 
HETATM   26  H   UNL     1     -42.070  53.549 -52.966  1.00  0.00     0.280 HD
HETATM   27  C   UNL     1     -42.606  54.830 -54.519  1.00  0.00     0.255 C 
HETATM   28  C   UNL     1     -43.788  55.492 -53.783  1.00  0.00     0.150 C 
BRANCH  25  29
HETATM   29  C   UNL     1     -40.453  53.573 -54.241  1.00  0.00     0.273 C 
BRANCH  29  30
HETATM   30  C   UNL     1     -40.137  52.220 -53.666  1.00  0.00    -0.033 A 
HETATM   31  C   UNL     1     -40.173  51.077 -54.480  1.00  0.00     0.009 A 
HETATM   32  C   UNL     1     -39.903  49.818 -53.942  1.00  0.00     0.001 A 
HETATM   33  C   UNL     1     -39.597  49.688 -52.590  1.00  0.00     0.000 A 
HETATM   34  C   UNL     1     -39.553  50.816 -51.773  1.00  0.00     0.001 A 
HETATM   35  C   UNL     1     -39.821  52.077 -52.306  1.00  0.00     0.009 A 
ENDBRANCH  29  30
ENDBRANCH  25  29
ENDBRANCH   4  22
BRANCH   1  36
HETATM   36  C   UNL     1     -46.474  61.072 -51.780  1.00  0.00     0.293 C 
HETATM   37  O   UNL     1     -47.532  61.293 -52.345  1.00  0.00    -0.259 OA
BRANCH  36  38
HETATM   38  O   UNL     1     -45.846  61.880 -50.892  1.00  0.00    -0.318 OA
BRANCH  38  39
HETATM   39  C   UNL     1     -46.685  62.517 -49.916  1.00  0.00     0.174 C 
HETATM   40  C   UNL     1     -45.845  62.992 -48.746  1.00  0.00     0.034 C 
ENDBRANCH  38  39
ENDBRANCH  36  38
ENDBRANCH   1  36
TORSDOF 10
ENDMDL
MODEL 9
REMARK VINA RESULT:      -8.1      2.942      8.500
REMARK  10 active torsions:
REMARK  status: ('A' for Active; 'I' for Inactive)
REMARK    1  A    between atoms: C_2  and  O_3 
REMARK    2  A    between atoms: O_3  and  C_4 
REMARK    3  A    between atoms: C_4  and  C_5 
REMARK    4  A    between atoms: C_7  and  N_8 
REMARK    5  A    between atoms: N_8  and  C_9 
REMARK    6  A    between atoms: C_9  and  N_10 
REMARK       I    between atoms: N_10  and  C_11 
REMARK    7  A    between atoms: C_11  and  C_12 
REMARK    8  A    between atoms: C_21  and  N_22 
REMARK    9  A    between atoms: N_25  and  C_27 
REMARK   10  A    between atoms: C_27  and  C_28 
ROOT
HETATM    1  C   UNL     1     -40.670  53.260 -52.712  1.00  0.00     0.041 A 
HETATM    2  C   UNL     1     -41.565  53.995 -51.923  1.00  0.00     0.049 A 
HETATM    3  C   UNL     1     -42.204  55.131 -52.440  1.00  0.00     0.062 A 
HETATM    4  C   UNL     1     -41.994  55.515 -53.789  1.00  0.00     0.057 A 
HETATM    5  C   UNL     1     -41.092  54.761 -54.558  1.00  0.00     0.033 A 
HETATM    6  C   UNL     1     -40.432  53.649 -54.031  1.00  0.00     0.020 A 
ENDROOT
BRANCH   3   7
HETATM    7  N   UNL     1     -42.917  56.024 -51.596  1.00  0.00    -0.331 N 
HETATM    8  H   UNL     1     -43.917  55.962 -51.731  1.00  0.00     0.168 HD
BRANCH   7   9
HETATM    9  C   UNL     1     -42.488  57.200 -51.079  1.00  0.00     0.179 C 
HETATM   10  S   UNL     1     -40.953  57.294 -50.425  1.00  0.00    -0.040 SA
BRANCH   9  11
HETATM   11  N   UNL     1     -43.257  58.322 -51.137  1.00  0.00    -0.299 N 
HETATM   12  C   UNL     1     -44.651  58.356 -51.140  1.00  0.00     0.258 C 
HETATM   13  O   UNL     1     -45.383  57.433 -50.797  1.00  0.00    -0.267 OA
HETATM   14  H   UNL     1     -42.792  59.094 -51.595  1.00  0.00     0.171 HD
BRANCH  12  15
HETATM   15  C   UNL     1     -45.245  59.637 -51.638  1.00  0.00     0.038 A 
HETATM   16  C   UNL     1     -45.645  60.654 -50.748  1.00  0.00    -0.046 A 
HETATM   17  C   UNL     1     -45.511  60.522 -49.256  1.00  0.00     0.049 C 
HETATM   18  C   UNL     1     -46.216  61.828 -51.271  1.00  0.00     0.007 A 
HETATM   19  C   UNL     1     -46.381  61.996 -52.646  1.00  0.00     0.001 A 
HETATM   20  C   UNL     1     -45.998  60.986 -53.522  1.00  0.00     0.001 A 
HETATM   21  C   UNL     1     -45.444  59.807 -53.022  1.00  0.00     0.017 A 
ENDBRANCH  12  15
ENDBRANCH   9  11
ENDBRANCH   7   9
ENDBRANCH   3   7
BRANCH   4  22
HETATM   22  N   UNL     1     -42.675  56.554 -54.415  1.00  0.00    -0.376 N 
HETATM   23  C   UNL     1     -44.144  56.595 -54.384  1.00  0.00     0.150 C 
HETATM   24  C   UNL     1     -44.672  57.167 -55.717  1.00  0.00     0.255 C 
HETATM   25  N   UNL     1     -44.003  58.513 -56.033  1.00  0.00    -0.064 N 
HETATM   26  H   UNL     1     -44.258  59.149 -55.269  1.00  0.00     0.280 HD
HETATM   27  C   UNL     1     -42.481  58.384 -56.041  1.00  0.00     0.255 C 
HETATM   28  C   UNL     1     -41.965  57.798 -54.711  1.00  0.00     0.150 C 
BRANCH  25  29
HETATM   29  C   UNL     1     -44.512  59.126 -57.312  1.00  0.00     0.273 C 
BRANCH  29  30
HETATM   30  C   UNL     1     -44.976  58.099 -58.307  1.00  0.00    -0.033 A 
HETATM   31  C   UNL     1     -44.043  57.353 -59.045  1.00  0.00     0.009 A 
HETATM   32  C   UNL     1     -44.473  56.416 -59.985  1.00  0.00     0.001 A 
HETATM   33  C   UNL     1     -45.834  56.215 -60.198  1.00  0.00     0.000 A 
HETATM   34  C   UNL     1     -46.770  56.946 -59.469  1.00  0.00     0.001 A 
HETATM   35  C   UNL     1     -46.345  57.884 -58.527  1.00  0.00     0.009 A 
ENDBRANCH  29  30
ENDBRANCH  25  29
ENDBRANCH   4  22
BRANCH   1  36
HETATM   36  C   UNL     1     -39.969  52.104 -52.091  1.00  0.00     0.293 C 
HETATM   37  O   UNL     1     -40.014  51.857 -50.898  1.00  0.00    -0.259 OA
BRANCH  36  38
HETATM   38  O   UNL     1     -39.256  51.438 -53.030  1.00  0.00    -0.318 OA
BRANCH  38  39
HETATM   39  C   UNL     1     -39.672  50.089 -53.298  1.00  0.00     0.174 C 
HETATM   40  C   UNL     1     -40.053  49.949 -54.759  1.00  0.00     0.034 C 
ENDBRANCH  38  39
ENDBRANCH  36  38
ENDBRANCH   1  36
TORSDOF 10
ENDMDL
MODEL 10
REMARK VINA RESULT:      -7.9      3.160      7.660
REMARK  10 active torsions:
REMARK  status: ('A' for Active; 'I' for Inactive)
REMARK    1  A    between atoms: C_2  and  O_3 
REMARK    2  A    between atoms: O_3  and  C_4 
REMARK    3  A    between atoms: C_4  and  C_5 
REMARK    4  A    between atoms: C_7  and  N_8 
REMARK    5  A    between atoms: N_8  and  C_9 
REMARK    6  A    between atoms: C_9  and  N_10 
REMARK       I    between atoms: N_10  and  C_11 
REMARK    7  A    between atoms: C_11  and  C_12 
REMARK    8  A    between atoms: C_21  and  N_22 
REMARK    9  A    between atoms: N_25  and  C_27 
REMARK   10  A    between atoms: C_27  and  C_28 
ROOT
HETATM    1  C   UNL     1     -40.648  53.470 -52.934  1.00  0.00     0.041 A 
HETATM    2  C   UNL     1     -41.560  54.166 -52.129  1.00  0.00     0.049 A 
HETATM    3  C   UNL     1     -42.180  55.333 -52.598  1.00  0.00     0.062 A 
HETATM    4  C   UNL     1     -41.933  55.790 -53.917  1.00  0.00     0.057 A 
HETATM    5  C   UNL     1     -41.015  55.074 -54.704  1.00  0.00     0.033 A 
HETATM    6  C   UNL     1     -40.374  53.931 -54.222  1.00  0.00     0.020 A 
ENDROOT
BRANCH   3   7
HETATM    7  N   UNL     1     -42.910  56.181 -51.724  1.00  0.00    -0.331 N 
HETATM    8  H   UNL     1     -43.909  56.112 -51.869  1.00  0.00     0.168 HD
BRANCH   7   9
HETATM    9  C   UNL     1     -42.501  57.341 -51.156  1.00  0.00     0.179 C 
HETATM   10  S   UNL     1     -40.967  57.433 -50.500  1.00  0.00    -0.040 SA
BRANCH   9  11
HETATM   11  N   UNL     1     -43.289  58.451 -51.165  1.00  0.00    -0.299 N 
HETATM   12  C   UNL     1     -44.684  58.461 -51.166  1.00  0.00     0.258 C 
HETATM   13  O   UNL     1     -45.399  57.512 -50.864  1.00  0.00    -0.267 OA
HETATM   14  H   UNL     1     -42.838  59.250 -51.588  1.00  0.00     0.171 HD
BRANCH  12  15
HETATM   15  C   UNL     1     -45.301  59.752 -51.607  1.00  0.00     0.038 A 
HETATM   16  C   UNL     1     -45.654  60.751 -50.676  1.00  0.00    -0.046 A 
HETATM   17  C   UNL     1     -45.445  60.587 -49.196  1.00  0.00     0.049 C 
HETATM   18  C   UNL     1     -46.249  61.935 -51.146  1.00  0.00     0.007 A 
HETATM   19  C   UNL     1     -46.483  62.132 -52.507  1.00  0.00     0.001 A 
HETATM   20  C   UNL     1     -46.145  61.141 -53.421  1.00  0.00     0.001 A 
HETATM   21  C   UNL     1     -45.569  59.952 -52.975  1.00  0.00     0.017 A 
ENDBRANCH  12  15
ENDBRANCH   9  11
ENDBRANCH   7   9
ENDBRANCH   3   7
BRANCH   4  22
HETATM   22  N   UNL     1     -42.593  56.866 -54.502  1.00  0.00    -0.376 N 
HETATM   23  C   UNL     1     -44.051  56.825 -54.683  1.00  0.00     0.150 C 
HETATM   24  C   UNL     1     -44.428  57.542 -55.997  1.00  0.00     0.255 C 
HETATM   25  N   UNL     1     -43.819  58.952 -56.039  1.00  0.00    -0.064 N 
HETATM   26  H   UNL     1     -44.223  59.466 -55.247  1.00  0.00     0.280 HD
HETATM   27  C   UNL     1     -42.305  58.906 -55.839  1.00  0.00     0.255 C 
HETATM   28  C   UNL     1     -41.939  58.174 -54.532  1.00  0.00     0.150 C 
BRANCH  25  29
HETATM   29  C   UNL     1     -44.187  59.704 -57.293  1.00  0.00     0.273 C 
BRANCH  29  30
HETATM   30  C   UNL     1     -44.993  60.942 -57.015  1.00  0.00    -0.033 A 
HETATM   31  C   UNL     1     -44.359  62.122 -56.594  1.00  0.00     0.009 A 
HETATM   32  C   UNL     1     -45.108  63.265 -56.313  1.00  0.00     0.001 A 
HETATM   33  C   UNL     1     -46.494  63.241 -56.450  1.00  0.00     0.000 A 
HETATM   34  C   UNL     1     -47.134  62.079 -56.872  1.00  0.00     0.001 A 
HETATM   35  C   UNL     1     -46.389  60.933 -57.154  1.00  0.00     0.009 A 
ENDBRANCH  29  30
ENDBRANCH  25  29
ENDBRANCH   4  22
BRANCH   1  36
HETATM   36  C   UNL     1     -39.969  52.278 -52.361  1.00  0.00     0.293 C 
HETATM   37  O   UNL     1     -39.994  51.999 -51.174  1.00  0.00    -0.259 OA
BRANCH  36  38
HETATM   38  O   UNL     1     -39.297  51.616 -53.334  1.00  0.00    -0.318 OA
BRANCH  38  39
HETATM   39  C   UNL     1     -39.529  50.200 -53.409  1.00  0.00     0.174 C 
HETATM   40  C   UNL     1     -40.278  49.869 -54.685  1.00  0.00     0.034 C 
ENDBRANCH  38  39
ENDBRANCH  36  38
ENDBRANCH   1  36
TORSDOF 10
ENDMDL
