MODEL 1
REMARK VINA RESULT:      -7.7      0.000      0.000
REMARK  5 active torsions:
REMARK  status: ('A' for Active; 'I' for Inactive)
REMARK    1  A    between atoms: C_7  and  O_8 
REMARK    2  A    between atoms: O_8  and  C_9 
REMARK    3  A    between atoms: C_12  and  N_13 
REMARK    4  A    between atoms: N_13  and  C_16 
REMARK    5  A    between atoms: C_16  and  C_17 
ROOT
HETATM    1  C   UNL     1     -45.774  57.178 -59.665  1.00  0.00     0.028 A 
HETATM    2  C   UNL     1     -46.044  56.180 -60.596  1.00  0.00     0.062 A 
HETATM    3  C   UNL     1     -47.127  56.296 -61.520  1.00  0.00     0.101 C 
HETATM    4  N   UNL     1     -47.999  56.368 -62.281  1.00  0.00    -0.191 NA
HETATM    5  C   UNL     1     -45.225  55.056 -60.607  1.00  0.00     0.142 A 
HETATM    6  N   UNL     1     -44.171  54.862 -59.768  1.00  0.00    -0.236 NA
HETATM    7  C   UNL     1     -43.939  55.855 -58.878  1.00  0.00     0.164 A 
HETATM    8  C   UNL     1     -44.703  57.012 -58.790  1.00  0.00     0.059 A 
ENDROOT
BRANCH   7   9
HETATM    9  O   UNL     1     -42.899  55.771 -57.985  1.00  0.00    -0.329 OA
BRANCH   9  10
HETATM   10  C   UNL     1     -43.119  56.018 -56.600  1.00  0.00     0.130 C 
HETATM   11  C   UNL     1     -42.215  57.109 -56.009  1.00  0.00     0.034 C 
HETATM   12  C   UNL     1     -42.585  57.408 -54.556  1.00  0.00     0.035 C 
HETATM   13  C   UNL     1     -42.649  56.155 -53.675  1.00  0.00     0.186 C 
HETATM   14  C   UNL     1     -43.544  55.074 -54.294  1.00  0.00     0.035 C 
HETATM   15  C   UNL     1     -43.181  54.747 -55.743  1.00  0.00     0.034 C 
BRANCH  13  16
HETATM   16  N   UNL     1     -41.280  55.582 -53.456  1.00  0.00    -0.067 N 
HETATM   17  H   UNL     1     -41.109  54.854 -54.164  1.00  0.00     0.278 HD
HETATM   18  H   UNL     1     -40.544  56.285 -53.621  1.00  0.00     0.278 HD
BRANCH  16  19
HETATM   19  C   UNL     1     -41.043  54.953 -52.117  1.00  0.00     0.278 C 
BRANCH  19  20
HETATM   20  C   UNL     1     -40.504  53.566 -52.243  1.00  0.00     0.009 A 
HETATM   21  S   UNL     1     -39.748  52.809 -50.904  1.00  0.00    -0.103 SA
HETATM   22  C   UNL     1     -39.458  51.373 -51.791  1.00  0.00     0.072 A 
HETATM   23  C   UNL     1     -39.923  51.462 -53.085  1.00  0.00     0.052 A 
HETATM   24  C   UNL     1     -39.807  50.396 -54.037  1.00  0.00     0.100 C 
HETATM   25  C   UNL     1     -40.526  52.732 -53.347  1.00  0.00     0.039 A 
HETATM   26  N   UNL     1     -39.714  49.551 -54.824  1.00  0.00    -0.191 NA
ENDBRANCH  19  20
ENDBRANCH  16  19
ENDBRANCH  13  16
ENDBRANCH   9  10
ENDBRANCH   7   9
TORSDOF 5
ENDMDL
MODEL 2
REMARK VINA RESULT:      -7.2      2.710      8.479
REMARK  5 active torsions:
REMARK  status: ('A' for Active; 'I' for Inactive)
REMARK    1  A    between atoms: C_7  and  O_8 
REMARK    2  A    between atoms: O_8  and  C_9 
REMARK    3  A    between atoms: C_12  and  N_13 
REMARK    4  A    between atoms: N_13  and  C_16 
REMARK    5  A    between atoms: C_16  and  C_17 
ROOT
HETATM    1  C   UNL     1     -40.626  52.682 -52.597  1.00  0.00     0.028 A 
HETATM    2  C   UNL     1     -40.297  52.292 -53.893  1.00  0.00     0.062 A 
HETATM    3  C   UNL     1     -40.026  50.928 -54.215  1.00  0.00     0.101 C 
HETATM    4  N   UNL     1     -39.804  49.826 -54.501  1.00  0.00    -0.191 NA
HETATM    5  C   UNL     1     -40.241  53.274 -54.876  1.00  0.00     0.142 A 
HETATM    6  N   UNL     1     -40.487  54.595 -54.662  1.00  0.00    -0.236 NA
HETATM    7  C   UNL     1     -40.804  54.934 -53.391  1.00  0.00     0.164 A 
HETATM    8  C   UNL     1     -40.883  54.026 -52.342  1.00  0.00     0.059 A 
ENDROOT
BRANCH   7   9
HETATM    9  O   UNL     1     -41.078  56.238 -53.057  1.00  0.00    -0.329 OA
BRANCH   9  10
HETATM   10  C   UNL     1     -42.222  56.894 -53.595  1.00  0.00     0.130 C 
HETATM   11  C   UNL     1     -43.430  55.971 -53.804  1.00  0.00     0.034 C 
HETATM   12  C   UNL     1     -44.655  56.760 -54.266  1.00  0.00     0.035 C 
HETATM   13  C   UNL     1     -44.380  57.654 -55.480  1.00  0.00     0.186 C 
HETATM   14  C   UNL     1     -43.159  58.554 -55.255  1.00  0.00     0.035 C 
HETATM   15  C   UNL     1     -41.916  57.784 -54.807  1.00  0.00     0.034 C 
BRANCH  13  16
HETATM   16  N   UNL     1     -44.151  56.830 -56.714  1.00  0.00    -0.067 N 
HETATM   17  H   UNL     1     -43.267  56.315 -56.608  1.00  0.00     0.278 HD
HETATM   18  H   UNL     1     -44.869  56.097 -56.819  1.00  0.00     0.278 HD
BRANCH  16  19
HETATM   19  C   UNL     1     -44.062  57.593 -58.000  1.00  0.00     0.278 C 
BRANCH  19  20
HETATM   20  C   UNL     1     -44.819  56.919 -59.098  1.00  0.00     0.009 A 
HETATM   21  S   UNL     1     -44.223  55.469 -59.792  1.00  0.00    -0.103 SA
HETATM   22  C   UNL     1     -45.556  55.351 -60.860  1.00  0.00     0.072 A 
HETATM   23  C   UNL     1     -46.442  56.395 -60.698  1.00  0.00     0.052 A 
HETATM   24  C   UNL     1     -47.643  56.532 -61.469  1.00  0.00     0.100 C 
HETATM   25  C   UNL     1     -46.013  57.303 -59.681  1.00  0.00     0.039 A 
HETATM   26  N   UNL     1     -48.613  56.667 -62.088  1.00  0.00    -0.191 NA
ENDBRANCH  19  20
ENDBRANCH  16  19
ENDBRANCH  13  16
ENDBRANCH   9  10
ENDBRANCH   7   9
TORSDOF 5
ENDMDL
MODEL 3
REMARK VINA RESULT:      -7.1      6.175      9.549
REMARK  5 active torsions:
REMARK  status: ('A' for Active; 'I' for Inactive)
REMARK    1  A    between atoms: C_7  and  O_8 
REMARK    2  A    between atoms: O_8  and  C_9 
REMARK    3  A    between atoms: C_12  and  N_13 
REMARK    4  A    between atoms: N_13  and  C_16 
REMARK    5  A    between atoms: C_16  and  C_17 
ROOT
HETATM    1  C   UNL     1     -40.880  52.559 -53.867  1.00  0.00     0.028 A 
HETATM    2  C   UNL     1     -40.066  51.553 -53.356  1.00  0.00     0.062 A 
HETATM    3  C   UNL     1     -39.768  50.379 -54.112  1.00  0.00     0.101 C 
HETATM    4  N   UNL     1     -39.512  49.418 -54.708  1.00  0.00    -0.191 NA
HETATM    5  C   UNL     1     -39.542  51.721 -52.079  1.00  0.00     0.142 A 
HETATM    6  N   UNL     1     -39.768  52.806 -51.289  1.00  0.00    -0.236 NA
HETATM    7  C   UNL     1     -40.563  53.763 -51.821  1.00  0.00     0.164 A 
HETATM    8  C   UNL     1     -41.134  53.684 -53.085  1.00  0.00     0.059 A 
ENDROOT
BRANCH   7   9
HETATM    9  O   UNL     1     -40.858  54.906 -51.117  1.00  0.00    -0.329 OA
BRANCH   9  10
HETATM   10  C   UNL     1     -41.696  55.906 -51.687  1.00  0.00     0.130 C 
HETATM   11  C   UNL     1     -40.963  57.208 -52.040  1.00  0.00     0.034 C 
HETATM   12  C   UNL     1     -41.891  58.188 -52.756  1.00  0.00     0.035 C 
HETATM   13  C   UNL     1     -43.206  58.437 -52.009  1.00  0.00     0.186 C 
HETATM   14  C   UNL     1     -43.912  57.122 -51.653  1.00  0.00     0.035 C 
HETATM   15  C   UNL     1     -43.006  56.131 -50.921  1.00  0.00     0.034 C 
BRANCH  13  16
HETATM   16  N   UNL     1     -42.970  59.215 -50.748  1.00  0.00    -0.067 N 
HETATM   17  H   UNL     1     -43.797  59.122 -50.143  1.00  0.00     0.278 HD
HETATM   18  H   UNL     1     -42.196  58.816 -50.196  1.00  0.00     0.278 HD
BRANCH  16  19
HETATM   19  C   UNL     1     -42.719  60.681 -50.924  1.00  0.00     0.278 C 
BRANCH  19  20
HETATM   20  C   UNL     1     -43.615  61.505 -50.057  1.00  0.00     0.009 A 
HETATM   21  S   UNL     1     -43.461  63.212 -50.033  1.00  0.00    -0.103 SA
HETATM   22  C   UNL     1     -44.742  63.381 -48.910  1.00  0.00     0.072 A 
HETATM   23  C   UNL     1     -45.281  62.164 -48.554  1.00  0.00     0.052 A 
HETATM   24  C   UNL     1     -46.368  62.026 -47.629  1.00  0.00     0.100 C 
HETATM   25  C   UNL     1     -44.627  61.079 -49.215  1.00  0.00     0.039 A 
HETATM   26  N   UNL     1     -47.239  61.893 -46.876  1.00  0.00    -0.191 NA
ENDBRANCH  19  20
ENDBRANCH  16  19
ENDBRANCH  13  16
ENDBRANCH   9  10
ENDBRANCH   7   9
TORSDOF 5
ENDMDL
MODEL 4
REMARK VINA RESULT:      -7.0      4.218      8.451
REMARK  5 active torsions:
REMARK  status: ('A' for Active; 'I' for Inactive)
REMARK    1  A    between atoms: C_7  and  O_8 
REMARK    2  A    between atoms: O_8  and  C_9 
REMARK    3  A    between atoms: C_12  and  N_13 
REMARK    4  A    between atoms: N_13  and  C_16 
REMARK    5  A    between atoms: C_16  and  C_17 
ROOT
HETATM    1  C   UNL     1     -39.855  51.299 -51.389  1.00  0.00     0.028 A 
HETATM    2  C   UNL     1     -39.892  51.431 -52.774  1.00  0.00     0.062 A 
HETATM    3  C   UNL     1     -39.702  50.308 -53.636  1.00  0.00     0.101 C 
HETATM    4  N   UNL     1     -39.552  49.410 -54.354  1.00  0.00    -0.191 NA
HETATM    5  C   UNL     1     -40.123  52.695 -53.305  1.00  0.00     0.142 A 
HETATM    6  N   UNL     1     -40.319  53.819 -52.563  1.00  0.00    -0.236 NA
HETATM    7  C   UNL     1     -40.277  53.650 -51.221  1.00  0.00     0.164 A 
HETATM    8  C   UNL     1     -40.051  52.429 -50.599  1.00  0.00     0.059 A 
ENDROOT
BRANCH   7   9
HETATM    9  O   UNL     1     -40.466  54.713 -50.371  1.00  0.00    -0.329 OA
BRANCH   9  10
HETATM   10  C   UNL     1     -41.633  55.523 -50.480  1.00  0.00     0.130 C 
HETATM   11  C   UNL     1     -42.929  54.727 -50.684  1.00  0.00     0.034 C 
HETATM   12  C   UNL     1     -44.150  55.645 -50.669  1.00  0.00     0.035 C 
HETATM   13  C   UNL     1     -44.031  56.831 -51.632  1.00  0.00     0.186 C 
HETATM   14  C   UNL     1     -42.721  57.601 -51.421  1.00  0.00     0.035 C 
HETATM   15  C   UNL     1     -41.483  56.704 -51.447  1.00  0.00     0.034 C 
BRANCH  13  16
HETATM   16  N   UNL     1     -44.097  56.374 -53.060  1.00  0.00    -0.067 N 
HETATM   17  H   UNL     1     -43.139  56.212 -53.400  1.00  0.00     0.278 HD
HETATM   18  H   UNL     1     -44.562  55.458 -53.143  1.00  0.00     0.278 HD
BRANCH  16  19
HETATM   19  C   UNL     1     -44.747  57.324 -54.019  1.00  0.00     0.278 C 
BRANCH  19  20
HETATM   20  C   UNL     1     -43.831  57.693 -55.140  1.00  0.00     0.009 A 
HETATM   21  S   UNL     1     -43.293  56.498 -56.244  1.00  0.00    -0.103 SA
HETATM   22  C   UNL     1     -42.384  57.637 -57.142  1.00  0.00     0.072 A 
HETATM   23  C   UNL     1     -42.481  58.907 -56.615  1.00  0.00     0.052 A 
HETATM   24  C   UNL     1     -41.816  60.045 -57.179  1.00  0.00     0.100 C 
HETATM   25  C   UNL     1     -43.316  58.938 -55.455  1.00  0.00     0.039 A 
HETATM   26  N   UNL     1     -41.279  60.975 -57.614  1.00  0.00    -0.191 NA
ENDBRANCH  19  20
ENDBRANCH  16  19
ENDBRANCH  13  16
ENDBRANCH   9  10
ENDBRANCH   7   9
TORSDOF 5
ENDMDL
MODEL 5
REMARK VINA RESULT:      -7.0      1.787      2.058
REMARK  5 active torsions:
REMARK  status: ('A' for Active; 'I' for Inactive)
REMARK    1  A    between atoms: C_7  and  O_8 
REMARK    2  A    between atoms: O_8  and  C_9 
REMARK    3  A    between atoms: C_12  and  N_13 
REMARK    4  A    between atoms: N_13  and  C_16 
REMARK    5  A    between atoms: C_16  and  C_17 
ROOT
HETATM    1  C   UNL     1     -44.763  58.097 -59.680  1.00  0.00     0.028 A 
HETATM    2  C   UNL     1     -43.750  58.756 -60.370  1.00  0.00     0.062 A 
HETATM    3  C   UNL     1     -44.035  59.834 -61.262  1.00  0.00     0.101 C 
HETATM    4  N   UNL     1     -44.243  60.712 -61.990  1.00  0.00    -0.191 NA
HETATM    5  C   UNL     1     -42.440  58.337 -60.166  1.00  0.00     0.142 A 
HETATM    6  N   UNL     1     -42.074  57.324 -59.334  1.00  0.00    -0.236 NA
HETATM    7  C   UNL     1     -43.086  56.709 -58.680  1.00  0.00     0.164 A 
HETATM    8  C   UNL     1     -44.425  57.054 -58.821  1.00  0.00     0.059 A 
ENDROOT
BRANCH   7   9
HETATM    9  O   UNL     1     -42.837  55.675 -57.810  1.00  0.00    -0.329 OA
BRANCH   9  10
HETATM   10  C   UNL     1     -43.098  55.827 -56.419  1.00  0.00     0.130 C 
HETATM   11  C   UNL     1     -42.351  56.999 -55.767  1.00  0.00     0.034 C 
HETATM   12  C   UNL     1     -42.769  57.180 -54.308  1.00  0.00     0.035 C 
HETATM   13  C   UNL     1     -42.673  55.890 -53.485  1.00  0.00     0.186 C 
HETATM   14  C   UNL     1     -43.412  54.730 -54.163  1.00  0.00     0.035 C 
HETATM   15  C   UNL     1     -42.999  54.521 -55.620  1.00  0.00     0.034 C 
BRANCH  13  16
HETATM   16  N   UNL     1     -41.242  55.492 -53.273  1.00  0.00    -0.067 N 
HETATM   17  H   UNL     1     -40.991  54.778 -53.970  1.00  0.00     0.278 HD
HETATM   18  H   UNL     1     -40.599  56.277 -53.459  1.00  0.00     0.278 HD
BRANCH  16  19
HETATM   19  C   UNL     1     -40.916  54.924 -51.926  1.00  0.00     0.278 C 
BRANCH  19  20
HETATM   20  C   UNL     1     -40.484  53.497 -52.016  1.00  0.00     0.009 A 
HETATM   21  S   UNL     1     -40.117  52.614 -50.593  1.00  0.00    -0.103 SA
HETATM   22  C   UNL     1     -39.759  51.195 -51.482  1.00  0.00     0.072 A 
HETATM   23  C   UNL     1     -39.912  51.383 -52.839  1.00  0.00     0.052 A 
HETATM   24  C   UNL     1     -39.677  50.351 -53.806  1.00  0.00     0.100 C 
HETATM   25  C   UNL     1     -40.329  52.715 -53.147  1.00  0.00     0.039 A 
HETATM   26  N   UNL     1     -39.482  49.534 -54.604  1.00  0.00    -0.191 NA
ENDBRANCH  19  20
ENDBRANCH  16  19
ENDBRANCH  13  16
ENDBRANCH   9  10
ENDBRANCH   7   9
TORSDOF 5
ENDMDL
MODEL 6
REMARK VINA RESULT:      -6.9      3.456      7.949
REMARK  5 active torsions:
REMARK  status: ('A' for Active; 'I' for Inactive)
REMARK    1  A    between atoms: C_7  and  O_8 
REMARK    2  A    between atoms: O_8  and  C_9 
REMARK    3  A    between atoms: C_12  and  N_13 
REMARK    4  A    between atoms: N_13  and  C_16 
REMARK    5  A    between atoms: C_16  and  C_17 
ROOT
HETATM    1  C   UNL     1     -40.186  52.820 -54.809  1.00  0.00     0.028 A 
HETATM    2  C   UNL     1     -40.083  51.938 -53.737  1.00  0.00     0.062 A 
HETATM    3  C   UNL     1     -39.789  50.554 -53.935  1.00  0.00     0.101 C 
HETATM    4  N   UNL     1     -39.549  49.428 -54.071  1.00  0.00    -0.191 NA
HETATM    5  C   UNL     1     -40.274  52.442 -52.455  1.00  0.00     0.142 A 
HETATM    6  N   UNL     1     -40.553  53.743 -52.171  1.00  0.00    -0.236 NA
HETATM    7  C   UNL     1     -40.644  54.569 -53.239  1.00  0.00     0.164 A 
HETATM    8  C   UNL     1     -40.472  54.159 -54.555  1.00  0.00     0.059 A 
ENDROOT
BRANCH   7   9
HETATM    9  O   UNL     1     -40.917  55.906 -53.074  1.00  0.00    -0.329 OA
BRANCH   9  10
HETATM   10  C   UNL     1     -42.264  56.361 -53.005  1.00  0.00     0.130 C 
HETATM   11  C   UNL     1     -42.982  56.400 -54.361  1.00  0.00     0.034 C 
HETATM   12  C   UNL     1     -44.453  56.779 -54.198  1.00  0.00     0.035 C 
HETATM   13  C   UNL     1     -44.664  58.060 -53.385  1.00  0.00     0.186 C 
HETATM   14  C   UNL     1     -43.925  58.006 -52.042  1.00  0.00     0.035 C 
HETATM   15  C   UNL     1     -42.446  57.643 -52.182  1.00  0.00     0.034 C 
BRANCH  13  16
HETATM   16  N   UNL     1     -44.194  59.265 -54.146  1.00  0.00    -0.067 N 
HETATM   17  H   UNL     1     -44.414  60.108 -53.598  1.00  0.00     0.278 HD
HETATM   18  H   UNL     1     -43.167  59.276 -54.241  1.00  0.00     0.278 HD
BRANCH  16  19
HETATM   19  C   UNL     1     -44.797  59.455 -55.504  1.00  0.00     0.278 C 
BRANCH  19  20
HETATM   20  C   UNL     1     -43.788  59.268 -56.589  1.00  0.00     0.009 A 
HETATM   21  S   UNL     1     -42.476  60.360 -56.746  1.00  0.00    -0.103 SA
HETATM   22  C   UNL     1     -41.840  59.511 -58.089  1.00  0.00     0.072 A 
HETATM   23  C   UNL     1     -42.608  58.416 -58.421  1.00  0.00     0.052 A 
HETATM   24  C   UNL     1     -42.294  57.536 -59.507  1.00  0.00     0.100 C 
HETATM   25  C   UNL     1     -43.737  58.278 -57.554  1.00  0.00     0.039 A 
HETATM   26  N   UNL     1     -42.062  56.818 -60.387  1.00  0.00    -0.191 NA
ENDBRANCH  19  20
ENDBRANCH  16  19
ENDBRANCH  13  16
ENDBRANCH   9  10
ENDBRANCH   7   9
TORSDOF 5
ENDMDL
MODEL 7
REMARK VINA RESULT:      -6.8      3.431      8.408
REMARK  5 active torsions:
REMARK  status: ('A' for Active; 'I' for Inactive)
REMARK    1  A    between atoms: C_7  and  O_8 
REMARK    2  A    between atoms: O_8  and  C_9 
REMARK    3  A    between atoms: C_12  and  N_13 
REMARK    4  A    between atoms: N_13  and  C_16 
REMARK    5  A    between atoms: C_16  and  C_17 
ROOT
HETATM    1  C   UNL     1     -40.228  53.325 -55.086  1.00  0.00     0.028 A 
HETATM    2  C   UNL     1     -40.366  52.414 -54.043  1.00  0.00     0.062 A 
HETATM    3  C   UNL     1     -40.161  51.015 -54.244  1.00  0.00     0.101 C 
HETATM    4  N   UNL     1     -39.998  49.875 -54.382  1.00  0.00    -0.191 NA
HETATM    5  C   UNL     1     -40.711  52.904 -52.788  1.00  0.00     0.142 A 
HETATM    6  N   UNL     1     -40.921  54.217 -52.504  1.00  0.00    -0.236 NA
HETATM    7  C   UNL     1     -40.776  55.073 -53.542  1.00  0.00     0.164 A 
HETATM    8  C   UNL     1     -40.438  54.678 -54.831  1.00  0.00     0.059 A 
ENDROOT
BRANCH   7   9
HETATM    9  O   UNL     1     -40.960  56.423 -53.374  1.00  0.00    -0.329 OA
BRANCH   9  10
HETATM   10  C   UNL     1     -42.185  57.037 -53.761  1.00  0.00     0.130 C 
HETATM   11  C   UNL     1     -43.349  56.052 -53.936  1.00  0.00     0.034 C 
HETATM   12  C   UNL     1     -44.656  56.787 -54.231  1.00  0.00     0.035 C 
HETATM   13  C   UNL     1     -44.546  57.781 -55.393  1.00  0.00     0.186 C 
HETATM   14  C   UNL     1     -43.367  58.743 -55.205  1.00  0.00     0.035 C 
HETATM   15  C   UNL     1     -42.045  58.029 -54.923  1.00  0.00     0.034 C 
BRANCH  13  16
HETATM   16  N   UNL     1     -44.379  57.063 -56.701  1.00  0.00    -0.067 N 
HETATM   17  H   UNL     1     -43.376  56.903 -56.863  1.00  0.00     0.278 HD
HETATM   18  H   UNL     1     -44.793  56.119 -56.670  1.00  0.00     0.278 HD
BRANCH  16  19
HETATM   19  C   UNL     1     -44.911  57.775 -57.907  1.00  0.00     0.278 C 
BRANCH  19  20
HETATM   20  C   UNL     1     -43.820  58.142 -58.859  1.00  0.00     0.009 A 
HETATM   21  S   UNL     1     -42.743  56.942 -59.442  1.00  0.00    -0.103 SA
HETATM   22  C   UNL     1     -41.890  58.075 -60.401  1.00  0.00     0.072 A 
HETATM   23  C   UNL     1     -42.409  59.346 -60.283  1.00  0.00     0.052 A 
HETATM   24  C   UNL     1     -41.878  60.479 -60.984  1.00  0.00     0.100 C 
HETATM   25  C   UNL     1     -43.523  59.385 -59.388  1.00  0.00     0.039 A 
HETATM   26  N   UNL     1     -41.458  61.409 -61.533  1.00  0.00    -0.191 NA
ENDBRANCH  19  20
ENDBRANCH  16  19
ENDBRANCH  13  16
ENDBRANCH   9  10
ENDBRANCH   7   9
TORSDOF 5
ENDMDL
MODEL 8
REMARK VINA RESULT:      -6.7     14.769     17.276
REMARK  5 active torsions:
REMARK  status: ('A' for Active; 'I' for Inactive)
REMARK    1  A    between atoms: C_7  and  O_8 
REMARK    2  A    between atoms: O_8  and  C_9 
REMARK    3  A    between atoms: C_12  and  N_13 
REMARK    4  A    between atoms: N_13  and  C_16 
REMARK    5  A    between atoms: C_16  and  C_17 
ROOT
HETATM    1  C   UNL     1     -35.405  42.318 -56.759  1.00  0.00     0.028 A 
HETATM    2  C   UNL     1     -36.644  41.869 -57.206  1.00  0.00     0.062 A 
HETATM    3  C   UNL     1     -36.896  41.633 -58.592  1.00  0.00     0.101 C 
HETATM    4  N   UNL     1     -37.123  41.434 -59.712  1.00  0.00    -0.191 NA
HETATM    5  C   UNL     1     -37.641  41.651 -56.261  1.00  0.00     0.142 A 
HETATM    6  N   UNL     1     -37.490  41.845 -54.923  1.00  0.00    -0.236 NA
HETATM    7  C   UNL     1     -36.272  42.280 -54.527  1.00  0.00     0.164 A 
HETATM    8  C   UNL     1     -35.216  42.527 -55.395  1.00  0.00     0.059 A 
ENDROOT
BRANCH   7   9
HETATM    9  O   UNL     1     -36.002  42.506 -53.199  1.00  0.00    -0.329 OA
BRANCH   9  10
HETATM   10  C   UNL     1     -35.461  41.468 -52.388  1.00  0.00     0.130 C 
HETATM   11  C   UNL     1     -34.275  41.907 -51.519  1.00  0.00     0.034 C 
HETATM   12  C   UNL     1     -33.824  40.783 -50.587  1.00  0.00     0.035 C 
HETATM   13  C   UNL     1     -33.561  39.460 -51.315  1.00  0.00     0.186 C 
HETATM   14  C   UNL     1     -34.753  39.049 -52.190  1.00  0.00     0.035 C 
HETATM   15  C   UNL     1     -35.212  40.155 -53.141  1.00  0.00     0.034 C 
BRANCH  13  16
HETATM   16  N   UNL     1     -32.338  39.554 -52.180  1.00  0.00    -0.067 N 
HETATM   17  H   UNL     1     -32.447  40.353 -52.819  1.00  0.00     0.278 HD
HETATM   18  H   UNL     1     -31.498  39.777 -51.624  1.00  0.00     0.278 HD
BRANCH  16  19
HETATM   19  C   UNL     1     -32.043  38.354 -53.025  1.00  0.00     0.278 C 
BRANCH  19  20
HETATM   20  C   UNL     1     -31.536  38.739 -54.377  1.00  0.00     0.009 A 
HETATM   21  S   UNL     1     -32.263  40.033 -55.234  1.00  0.00    -0.103 SA
HETATM   22  C   UNL     1     -31.188  39.854 -56.554  1.00  0.00     0.072 A 
HETATM   23  C   UNL     1     -30.290  38.828 -56.354  1.00  0.00     0.052 A 
HETATM   24  C   UNL     1     -29.281  38.470 -57.307  1.00  0.00     0.100 C 
HETATM   25  C   UNL     1     -30.494  38.181 -55.095  1.00  0.00     0.039 A 
HETATM   26  N   UNL     1     -28.464  38.158 -58.069  1.00  0.00    -0.191 NA
ENDBRANCH  19  20
ENDBRANCH  16  19
ENDBRANCH  13  16
ENDBRANCH   9  10
ENDBRANCH   7   9
TORSDOF 5
ENDMDL
MODEL 9
REMARK VINA RESULT:      -6.7     14.856     16.479
REMARK  5 active torsions:
REMARK  status: ('A' for Active; 'I' for Inactive)
REMARK    1  A    between atoms: C_7  and  O_8 
REMARK    2  A    between atoms: O_8  and  C_9 
REMARK    3  A    between atoms: C_12  and  N_13 
REMARK    4  A    between atoms: N_13  and  C_16 
REMARK    5  A    between atoms: C_16  and  C_17 
ROOT
HETATM    1  C   UNL     1     -37.831  39.343 -61.490  1.00  0.00     0.028 A 
HETATM    2  C   UNL     1     -38.765  38.349 -61.211  1.00  0.00     0.062 A 
HETATM    3  C   UNL     1     -39.763  37.975 -62.162  1.00  0.00     0.101 C 
HETATM    4  N   UNL     1     -40.581  37.654 -62.918  1.00  0.00    -0.191 NA
HETATM    5  C   UNL     1     -38.700  37.721 -59.972  1.00  0.00     0.142 A 
HETATM    6  N   UNL     1     -37.783  38.008 -59.008  1.00  0.00    -0.236 NA
HETATM    7  C   UNL     1     -36.893  38.978 -59.317  1.00  0.00     0.164 A 
HETATM    8  C   UNL     1     -36.879  39.663 -60.526  1.00  0.00     0.059 A 
ENDROOT
BRANCH   7   9
HETATM    9  O   UNL     1     -35.918  39.350 -58.423  1.00  0.00    -0.329 OA
BRANCH   9  10
HETATM   10  C   UNL     1     -36.039  40.565 -57.690  1.00  0.00     0.130 C 
HETATM   11  C   UNL     1     -34.820  40.891 -56.816  1.00  0.00     0.034 C 
HETATM   12  C   UNL     1     -34.964  42.261 -56.155  1.00  0.00     0.035 C 
HETATM   13  C   UNL     1     -36.289  42.438 -55.405  1.00  0.00     0.186 C 
HETATM   14  C   UNL     1     -37.492  42.090 -56.292  1.00  0.00     0.035 C 
HETATM   15  C   UNL     1     -37.376  40.716 -56.953  1.00  0.00     0.034 C 
BRANCH  13  16
HETATM   16  N   UNL     1     -36.331  41.578 -54.176  1.00  0.00    -0.067 N 
HETATM   17  H   UNL     1     -37.314  41.367 -53.954  1.00  0.00     0.278 HD
HETATM   18  H   UNL     1     -35.898  40.657 -54.343  1.00  0.00     0.278 HD
BRANCH  16  19
HETATM   19  C   UNL     1     -35.721  42.171 -52.944  1.00  0.00     0.278 C 
BRANCH  19  20
HETATM   20  C   UNL     1     -34.732  41.246 -52.314  1.00  0.00     0.009 A 
HETATM   21  S   UNL     1     -34.239  39.823 -53.134  1.00  0.00    -0.103 SA
HETATM   22  C   UNL     1     -33.182  39.375 -51.864  1.00  0.00     0.072 A 
HETATM   23  C   UNL     1     -33.200  40.286 -50.830  1.00  0.00     0.052 A 
HETATM   24  C   UNL     1     -32.404  40.147 -49.646  1.00  0.00     0.100 C 
HETATM   25  C   UNL     1     -34.099  41.367 -51.090  1.00  0.00     0.039 A 
HETATM   26  N   UNL     1     -31.776  40.048 -48.677  1.00  0.00    -0.191 NA
ENDBRANCH  19  20
ENDBRANCH  16  19
ENDBRANCH  13  16
ENDBRANCH   9  10
ENDBRANCH   7   9
TORSDOF 5
ENDMDL
MODEL 10
REMARK VINA RESULT:      -6.7     15.093     16.402
REMARK  5 active torsions:
REMARK  status: ('A' for Active; 'I' for Inactive)
REMARK    1  A    between atoms: C_7  and  O_8 
REMARK    2  A    between atoms: O_8  and  C_9 
REMARK    3  A    between atoms: C_12  and  N_13 
REMARK    4  A    between atoms: N_13  and  C_16 
REMARK    5  A    between atoms: C_16  and  C_17 
ROOT
HETATM    1  C   UNL     1     -41.685  37.476 -61.061  1.00  0.00     0.028 A 
HETATM    2  C   UNL     1     -41.560  37.448 -62.447  1.00  0.00     0.062 A 
HETATM    3  C   UNL     1     -42.672  37.148 -63.290  1.00  0.00     0.101 C 
HETATM    4  N   UNL     1     -43.562  36.908 -63.995  1.00  0.00    -0.191 NA
HETATM    5  C   UNL     1     -40.313  37.724 -62.996  1.00  0.00     0.142 A 
HETATM    6  N   UNL     1     -39.200  38.023 -62.273  1.00  0.00    -0.236 NA
HETATM    7  C   UNL     1     -39.362  38.042 -60.929  1.00  0.00     0.164 A 
HETATM    8  C   UNL     1     -40.566  37.777 -60.289  1.00  0.00     0.059 A 
ENDROOT
BRANCH   7   9
HETATM    9  O   UNL     1     -38.309  38.336 -60.097  1.00  0.00    -0.329 OA
BRANCH   9  10
HETATM   10  C   UNL     1     -38.214  39.617 -59.483  1.00  0.00     0.130 C 
HETATM   11  C   UNL     1     -37.293  40.597 -60.222  1.00  0.00     0.034 C 
HETATM   12  C   UNL     1     -37.332  41.984 -59.581  1.00  0.00     0.035 C 
HETATM   13  C   UNL     1     -37.076  41.963 -58.070  1.00  0.00     0.186 C 
HETATM   14  C   UNL     1     -37.995  40.965 -57.355  1.00  0.00     0.035 C 
HETATM   15  C   UNL     1     -37.961  39.565 -57.970  1.00  0.00     0.034 C 
BRANCH  13  16
HETATM   16  N   UNL     1     -35.649  41.605 -57.771  1.00  0.00    -0.067 N 
HETATM   17  H   UNL     1     -35.612  40.621 -57.469  1.00  0.00     0.278 HD
HETATM   18  H   UNL     1     -35.064  41.640 -58.619  1.00  0.00     0.278 HD
BRANCH  16  19
HETATM   19  C   UNL     1     -34.984  42.417 -56.703  1.00  0.00     0.278 C 
BRANCH  19  20
HETATM   20  C   UNL     1     -34.840  41.647 -55.431  1.00  0.00     0.009 A 
HETATM   21  S   UNL     1     -33.493  40.613 -55.196  1.00  0.00    -0.103 SA
HETATM   22  C   UNL     1     -34.021  40.165 -53.630  1.00  0.00     0.072 A 
HETATM   23  C   UNL     1     -35.203  40.786 -53.286  1.00  0.00     0.052 A 
HETATM   24  C   UNL     1     -35.859  40.584 -52.028  1.00  0.00     0.100 C 
HETATM   25  C   UNL     1     -35.677  41.640 -54.330  1.00  0.00     0.039 A 
HETATM   26  N   UNL     1     -36.410  40.426 -51.021  1.00  0.00    -0.191 NA
ENDBRANCH  19  20
ENDBRANCH  16  19
ENDBRANCH  13  16
ENDBRANCH   9  10
ENDBRANCH   7   9
TORSDOF 5
ENDMDL
