MODEL 1
REMARK VINA RESULT:      -8.9      0.000      0.000
REMARK  5 active torsions:
REMARK  status: ('A' for Active; 'I' for Inactive)
REMARK    1  A    between atoms: C_3  and  N_4 
REMARK       I    between atoms: N_4  and  C_5 
REMARK    2  A    between atoms: C_5  and  C_6 
REMARK    3  A    between atoms: C_14  and  C_15 
REMARK    4  A    between atoms: C_21  and  O_22 
REMARK    5  A    between atoms: C_24  and  O_25 
ROOT
HETATM    1  N   UNL     1     -42.498  55.411 -54.626  1.00  0.00    -0.322 N 
HETATM    2  C   UNL     1     -41.307  55.612 -53.960  1.00  0.00     0.257 C 
HETATM    3  O   UNL     1     -40.615  56.616 -53.903  1.00  0.00    -0.267 OA
HETATM    4  H   UNL     1     -42.967  54.548 -54.371  1.00  0.00     0.169 HD
ENDROOT
BRANCH   2   5
HETATM    5  C   UNL     1     -40.848  54.436 -53.169  1.00  0.00     0.046 A 
HETATM    6  C   UNL     1     -40.890  54.398 -51.755  1.00  0.00     0.008 A 
HETATM    7  C   UNL     1     -40.368  53.235 -51.160  1.00  0.00     0.068 A 
HETATM    8  C   UNL     1     -41.432  55.406 -50.911  1.00  0.00     0.015 A 
HETATM    9  C   UNL     1     -40.344  53.141 -49.775  1.00  0.00     0.032 A 
HETATM   10  N   UNL     1     -39.904  52.194 -51.869  1.00  0.00    -0.252 NA
HETATM   11  C   UNL     1     -40.843  54.153 -48.953  1.00  0.00     0.002 A 
HETATM   12  C   UNL     1     -41.400  55.286 -49.523  1.00  0.00     0.001 A 
HETATM   13  C   UNL     1     -39.940  52.215 -53.224  1.00  0.00     0.040 A 
HETATM   14  C   UNL     1     -40.400  53.333 -53.899  1.00  0.00     0.045 A 
BRANCH  13  15
HETATM   15  C   UNL     1     -39.512  50.974 -53.968  1.00  0.00     0.038 A 
HETATM   16  C   UNL     1     -39.606  49.610 -53.326  1.00  0.00     0.011 A 
HETATM   17  C   UNL     1     -40.556  49.978 -54.425  1.00  0.00     0.011 A 
ENDBRANCH  13  15
ENDBRANCH   2   5
BRANCH   1  18
HETATM   18  C   UNL     1     -43.136  56.126 -55.672  1.00  0.00     0.043 A 
HETATM   19  C   UNL     1     -43.811  57.355 -55.605  1.00  0.00    -0.032 A 
HETATM   20  C   UNL     1     -44.093  58.129 -54.350  1.00  0.00     0.050 C 
HETATM   21  C   UNL     1     -44.286  57.941 -56.805  1.00  0.00     0.048 A 
HETATM   22  C   UNL     1     -44.100  57.342 -58.053  1.00  0.00     0.102 A 
HETATM   23  C   UNL     1     -43.451  56.107 -58.118  1.00  0.00     0.103 A 
HETATM   24  C   UNL     1     -42.995  55.509 -56.937  1.00  0.00     0.069 A 
BRANCH  22  25
HETATM   25  O   UNL     1     -44.521  57.880 -59.242  1.00  0.00    -0.353 OA
HETATM   26  C   UNL     1     -45.924  57.952 -59.457  1.00  0.00     0.210 C 
ENDBRANCH  22  25
BRANCH  23  27
HETATM   27  O   UNL     1     -43.316  55.550 -59.366  1.00  0.00    -0.353 OA
HETATM   28  C   UNL     1     -44.260  54.553 -59.732  1.00  0.00     0.210 C 
ENDBRANCH  23  27
ENDBRANCH   1  18
TORSDOF 5
ENDMDL
MODEL 2
REMARK VINA RESULT:      -8.5      1.591      3.651
REMARK  5 active torsions:
REMARK  status: ('A' for Active; 'I' for Inactive)
REMARK    1  A    between atoms: C_3  and  N_4 
REMARK       I    between atoms: N_4  and  C_5 
REMARK    2  A    between atoms: C_5  and  C_6 
REMARK    3  A    between atoms: C_14  and  C_15 
REMARK    4  A    between atoms: C_21  and  O_22 
REMARK    5  A    between atoms: C_24  and  O_25 
ROOT
HETATM    1  N   UNL     1     -41.613  55.397 -54.571  1.00  0.00    -0.322 N 
HETATM    2  C   UNL     1     -42.266  54.512 -53.739  1.00  0.00     0.257 C 
HETATM    3  O   UNL     1     -43.454  54.235 -53.688  1.00  0.00    -0.267 OA
HETATM    4  H   UNL     1     -40.603  55.316 -54.540  1.00  0.00     0.169 HD
ENDROOT
BRANCH   2   5
HETATM    5  C   UNL     1     -41.365  53.769 -52.814  1.00  0.00     0.046 A 
HETATM    6  C   UNL     1     -40.766  52.533 -53.154  1.00  0.00     0.008 A 
HETATM    7  C   UNL     1     -39.986  51.936 -52.148  1.00  0.00     0.068 A 
HETATM    8  C   UNL     1     -40.866  51.878 -54.412  1.00  0.00     0.015 A 
HETATM    9  C   UNL     1     -39.395  50.704 -52.397  1.00  0.00     0.032 A 
HETATM   10  N   UNL     1     -39.765  52.510 -50.954  1.00  0.00    -0.252 NA
HETATM   11  C   UNL     1     -39.531  50.049 -53.622  1.00  0.00     0.002 A 
HETATM   12  C   UNL     1     -40.261  50.644 -54.639  1.00  0.00     0.001 A 
HETATM   13  C   UNL     1     -40.284  53.730 -50.672  1.00  0.00     0.040 A 
HETATM   14  C   UNL     1     -41.098  54.377 -51.586  1.00  0.00     0.045 A 
BRANCH  13  15
HETATM   15  C   UNL     1     -39.910  54.377 -49.361  1.00  0.00     0.038 A 
HETATM   16  C   UNL     1     -40.946  55.080 -48.517  1.00  0.00     0.011 A 
HETATM   17  C   UNL     1     -40.387  53.766 -48.062  1.00  0.00     0.011 A 
ENDBRANCH  13  15
ENDBRANCH   2   5
BRANCH   1  18
HETATM   18  C   UNL     1     -42.080  56.467 -55.378  1.00  0.00     0.043 A 
HETATM   19  C   UNL     1     -41.989  57.847 -55.139  1.00  0.00    -0.032 A 
HETATM   20  C   UNL     1     -41.457  58.482 -53.887  1.00  0.00     0.050 C 
HETATM   21  C   UNL     1     -42.434  58.746 -56.140  1.00  0.00     0.048 A 
HETATM   22  C   UNL     1     -42.954  58.306 -57.360  1.00  0.00     0.102 A 
HETATM   23  C   UNL     1     -43.069  56.933 -57.589  1.00  0.00     0.103 A 
HETATM   24  C   UNL     1     -42.651  56.036 -56.599  1.00  0.00     0.069 A 
BRANCH  22  25
HETATM   25  O   UNL     1     -43.376  59.136 -58.367  1.00  0.00    -0.353 OA
HETATM   26  C   UNL     1     -42.371  59.758 -59.156  1.00  0.00     0.210 C 
ENDBRANCH  22  25
BRANCH  23  27
HETATM   27  O   UNL     1     -43.609  56.555 -58.793  1.00  0.00    -0.353 OA
HETATM   28  C   UNL     1     -42.734  55.934 -59.725  1.00  0.00     0.210 C 
ENDBRANCH  23  27
ENDBRANCH   1  18
TORSDOF 5
ENDMDL
MODEL 3
REMARK VINA RESULT:      -8.4      1.547      1.663
REMARK  5 active torsions:
REMARK  status: ('A' for Active; 'I' for Inactive)
REMARK    1  A    between atoms: C_3  and  N_4 
REMARK       I    between atoms: N_4  and  C_5 
REMARK    2  A    between atoms: C_5  and  C_6 
REMARK    3  A    between atoms: C_14  and  C_15 
REMARK    4  A    between atoms: C_21  and  O_22 
REMARK    5  A    between atoms: C_24  and  O_25 
ROOT
HETATM    1  N   UNL     1     -41.720  55.716 -54.854  1.00  0.00    -0.322 N 
HETATM    2  C   UNL     1     -42.383  54.783 -54.083  1.00  0.00     0.257 C 
HETATM    3  O   UNL     1     -43.573  54.513 -54.053  1.00  0.00    -0.267 OA
HETATM    4  H   UNL     1     -40.711  55.624 -54.827  1.00  0.00     0.169 HD
ENDROOT
BRANCH   2   5
HETATM    5  C   UNL     1     -41.490  53.974 -53.208  1.00  0.00     0.046 A 
HETATM    6  C   UNL     1     -41.313  54.245 -51.831  1.00  0.00     0.008 A 
HETATM    7  C   UNL     1     -40.394  53.420 -51.159  1.00  0.00     0.068 A 
HETATM    8  C   UNL     1     -41.998  55.244 -51.085  1.00  0.00     0.015 A 
HETATM    9  C   UNL     1     -40.142  53.649 -49.813  1.00  0.00     0.032 A 
HETATM   10  N   UNL     1     -39.754  52.400 -51.753  1.00  0.00    -0.252 NA
HETATM   11  C   UNL     1     -40.790  54.657 -49.097  1.00  0.00     0.002 A 
HETATM   12  C   UNL     1     -41.731  55.452 -49.733  1.00  0.00     0.001 A 
HETATM   13  C   UNL     1     -39.991  52.106 -53.055  1.00  0.00     0.040 A 
HETATM   14  C   UNL     1     -40.851  52.887 -53.808  1.00  0.00     0.045 A 
BRANCH  13  15
HETATM   15  C   UNL     1     -39.332  50.881 -53.640  1.00  0.00     0.038 A 
HETATM   16  C   UNL     1     -39.610  49.505 -53.082  1.00  0.00     0.011 A 
HETATM   17  C   UNL     1     -40.162  49.886 -54.423  1.00  0.00     0.011 A 
ENDBRANCH  13  15
ENDBRANCH   2   5
BRANCH   1  18
HETATM   18  C   UNL     1     -42.177  56.839 -55.591  1.00  0.00     0.043 A 
HETATM   19  C   UNL     1     -42.091  58.199 -55.253  1.00  0.00    -0.032 A 
HETATM   20  C   UNL     1     -41.579  58.744 -53.951  1.00  0.00     0.050 C 
HETATM   21  C   UNL     1     -42.523  59.167 -56.194  1.00  0.00     0.048 A 
HETATM   22  C   UNL     1     -43.023  58.815 -57.450  1.00  0.00     0.102 A 
HETATM   23  C   UNL     1     -43.133  57.462 -57.777  1.00  0.00     0.103 A 
HETATM   24  C   UNL     1     -42.728  56.497 -56.848  1.00  0.00     0.069 A 
BRANCH  22  25
HETATM   25  O   UNL     1     -43.432  59.714 -58.402  1.00  0.00    -0.353 OA
HETATM   26  C   UNL     1     -42.570  60.813 -58.663  1.00  0.00     0.210 C 
ENDBRANCH  22  25
BRANCH  23  27
HETATM   27  O   UNL     1     -43.654  57.170 -59.014  1.00  0.00    -0.353 OA
HETATM   28  C   UNL     1     -43.048  56.105 -59.733  1.00  0.00     0.210 C 
ENDBRANCH  23  27
ENDBRANCH   1  18
TORSDOF 5
ENDMDL
MODEL 4
REMARK VINA RESULT:      -8.3      1.842      2.912
REMARK  5 active torsions:
REMARK  status: ('A' for Active; 'I' for Inactive)
REMARK    1  A    between atoms: C_3  and  N_4 
REMARK       I    between atoms: N_4  and  C_5 
REMARK    2  A    between atoms: C_5  and  C_6 
REMARK    3  A    between atoms: C_14  and  C_15 
REMARK    4  A    between atoms: C_21  and  O_22 
REMARK    5  A    between atoms: C_24  and  O_25 
ROOT
HETATM    1  N   UNL     1     -41.769  55.777 -54.923  1.00  0.00    -0.322 N 
HETATM    2  C   UNL     1     -42.429  54.910 -54.078  1.00  0.00     0.257 C 
HETATM    3  O   UNL     1     -43.628  54.716 -53.955  1.00  0.00    -0.267 OA
HETATM    4  H   UNL     1     -40.767  55.623 -54.964  1.00  0.00     0.169 HD
ENDROOT
BRANCH   2   5
HETATM    5  C   UNL     1     -41.526  54.070 -53.243  1.00  0.00     0.046 A 
HETATM    6  C   UNL     1     -41.302  54.317 -51.868  1.00  0.00     0.008 A 
HETATM    7  C   UNL     1     -40.379  53.463 -51.237  1.00  0.00     0.068 A 
HETATM    8  C   UNL     1     -41.943  55.317 -51.086  1.00  0.00     0.015 A 
HETATM    9  C   UNL     1     -40.081  53.667 -49.896  1.00  0.00     0.032 A 
HETATM   10  N   UNL     1     -39.778  52.440 -51.866  1.00  0.00    -0.252 NA
HETATM   11  C   UNL     1     -40.686  54.677 -49.146  1.00  0.00     0.002 A 
HETATM   12  C   UNL     1     -41.630  55.500 -49.741  1.00  0.00     0.001 A 
HETATM   13  C   UNL     1     -40.062  52.170 -53.163  1.00  0.00     0.040 A 
HETATM   14  C   UNL     1     -40.928  52.980 -53.878  1.00  0.00     0.045 A 
BRANCH  13  15
HETATM   15  C   UNL     1     -39.446  50.941 -53.787  1.00  0.00     0.038 A 
HETATM   16  C   UNL     1     -39.634  49.576 -53.167  1.00  0.00     0.011 A 
HETATM   17  C   UNL     1     -40.336  49.912 -54.449  1.00  0.00     0.011 A 
ENDBRANCH  13  15
ENDBRANCH   2   5
BRANCH   1  18
HETATM   18  C   UNL     1     -42.208  56.907 -55.660  1.00  0.00     0.043 A 
HETATM   19  C   UNL     1     -42.855  56.940 -56.905  1.00  0.00    -0.032 A 
HETATM   20  C   UNL     1     -43.122  55.751 -57.782  1.00  0.00     0.050 C 
HETATM   21  C   UNL     1     -43.301  58.186 -57.412  1.00  0.00     0.048 A 
HETATM   22  C   UNL     1     -43.126  59.382 -56.712  1.00  0.00     0.102 A 
HETATM   23  C   UNL     1     -42.460  59.354 -55.485  1.00  0.00     0.103 A 
HETATM   24  C   UNL     1     -41.997  58.132 -54.984  1.00  0.00     0.069 A 
BRANCH  22  25
HETATM   25  O   UNL     1     -43.560  60.608 -57.149  1.00  0.00    -0.353 OA
HETATM   26  C   UNL     1     -44.008  60.691 -58.495  1.00  0.00     0.210 C 
ENDBRANCH  22  25
BRANCH  23  27
HETATM   27  O   UNL     1     -42.293  60.560 -54.849  1.00  0.00    -0.353 OA
HETATM   28  C   UNL     1     -42.612  60.609 -53.466  1.00  0.00     0.210 C 
ENDBRANCH  23  27
ENDBRANCH   1  18
TORSDOF 5
ENDMDL
MODEL 5
REMARK VINA RESULT:      -8.2      2.000      4.466
REMARK  5 active torsions:
REMARK  status: ('A' for Active; 'I' for Inactive)
REMARK    1  A    between atoms: C_3  and  N_4 
REMARK       I    between atoms: N_4  and  C_5 
REMARK    2  A    between atoms: C_5  and  C_6 
REMARK    3  A    between atoms: C_14  and  C_15 
REMARK    4  A    between atoms: C_21  and  O_22 
REMARK    5  A    between atoms: C_24  and  O_25 
ROOT
HETATM    1  N   UNL     1     -41.466  55.572 -54.472  1.00  0.00    -0.322 N 
HETATM    2  C   UNL     1     -42.127  54.545 -53.831  1.00  0.00     0.257 C 
HETATM    3  O   UNL     1     -43.278  54.164 -53.971  1.00  0.00    -0.267 OA
HETATM    4  H   UNL     1     -40.464  55.575 -54.312  1.00  0.00     0.169 HD
ENDROOT
BRANCH   2   5
HETATM    5  C   UNL     1     -41.280  53.782 -52.874  1.00  0.00     0.046 A 
HETATM    6  C   UNL     1     -40.712  52.523 -53.184  1.00  0.00     0.008 A 
HETATM    7  C   UNL     1     -39.983  51.910 -52.150  1.00  0.00     0.068 A 
HETATM    8  C   UNL     1     -40.795  51.861 -54.440  1.00  0.00     0.015 A 
HETATM    9  C   UNL     1     -39.426  50.657 -52.371  1.00  0.00     0.032 A 
HETATM   10  N   UNL     1     -39.780  52.487 -50.954  1.00  0.00    -0.252 NA
HETATM   11  C   UNL     1     -39.545  49.996 -53.594  1.00  0.00     0.002 A 
HETATM   12  C   UNL     1     -40.224  50.605 -54.638  1.00  0.00     0.001 A 
HETATM   13  C   UNL     1     -40.267  53.725 -50.699  1.00  0.00     0.040 A 
HETATM   14  C   UNL     1     -41.030  54.391 -51.642  1.00  0.00     0.045 A 
BRANCH  13  15
HETATM   15  C   UNL     1     -39.913  54.372 -49.381  1.00  0.00     0.038 A 
HETATM   16  C   UNL     1     -40.965  55.061 -48.544  1.00  0.00     0.011 A 
HETATM   17  C   UNL     1     -40.396  53.751 -48.089  1.00  0.00     0.011 A 
ENDBRANCH  13  15
ENDBRANCH   2   5
BRANCH   1  18
HETATM   18  C   UNL     1     -41.932  56.683 -55.222  1.00  0.00     0.043 A 
HETATM   19  C   UNL     1     -42.589  56.686 -56.462  1.00  0.00    -0.032 A 
HETATM   20  C   UNL     1     -42.842  55.479 -57.319  1.00  0.00     0.050 C 
HETATM   21  C   UNL     1     -43.063  57.916 -56.983  1.00  0.00     0.048 A 
HETATM   22  C   UNL     1     -42.904  59.125 -56.302  1.00  0.00     0.102 A 
HETATM   23  C   UNL     1     -42.227  59.128 -55.080  1.00  0.00     0.103 A 
HETATM   24  C   UNL     1     -41.738  57.921 -54.565  1.00  0.00     0.069 A 
BRANCH  22  25
HETATM   25  O   UNL     1     -43.364  60.336 -56.753  1.00  0.00    -0.353 OA
HETATM   26  C   UNL     1     -43.106  60.658 -58.114  1.00  0.00     0.210 C 
ENDBRANCH  22  25
BRANCH  23  27
HETATM   27  O   UNL     1     -42.077  60.345 -54.464  1.00  0.00    -0.353 OA
HETATM   28  C   UNL     1     -42.168  60.366 -53.046  1.00  0.00     0.210 C 
ENDBRANCH  23  27
ENDBRANCH   1  18
TORSDOF 5
ENDMDL
MODEL 6
REMARK VINA RESULT:      -7.5      2.973      8.314
REMARK  5 active torsions:
REMARK  status: ('A' for Active; 'I' for Inactive)
REMARK    1  A    between atoms: C_3  and  N_4 
REMARK       I    between atoms: N_4  and  C_5 
REMARK    2  A    between atoms: C_5  and  C_6 
REMARK    3  A    between atoms: C_14  and  C_15 
REMARK    4  A    between atoms: C_21  and  O_22 
REMARK    5  A    between atoms: C_24  and  O_25 
ROOT
HETATM    1  N   UNL     1     -41.375  55.853 -53.057  1.00  0.00    -0.322 N 
HETATM    2  C   UNL     1     -42.584  56.387 -53.449  1.00  0.00     0.257 C 
HETATM    3  O   UNL     1     -43.676  55.846 -53.530  1.00  0.00    -0.267 OA
HETATM    4  H   UNL     1     -40.654  56.549 -52.901  1.00  0.00     0.169 HD
ENDROOT
BRANCH   2   5
HETATM    5  C   UNL     1     -42.532  57.841 -53.767  1.00  0.00     0.046 A 
HETATM    6  C   UNL     1     -42.390  58.334 -55.086  1.00  0.00     0.008 A 
HETATM    7  C   UNL     1     -42.303  59.732 -55.208  1.00  0.00     0.068 A 
HETATM    8  C   UNL     1     -42.358  57.547 -56.270  1.00  0.00     0.015 A 
HETATM    9  C   UNL     1     -42.127  60.287 -56.469  1.00  0.00     0.032 A 
HETATM   10  N   UNL     1     -42.401  60.568 -54.161  1.00  0.00    -0.252 NA
HETATM   11  C   UNL     1     -42.057  59.504 -57.623  1.00  0.00     0.002 A 
HETATM   12  C   UNL     1     -42.184  58.128 -57.524  1.00  0.00     0.001 A 
HETATM   13  C   UNL     1     -42.613  60.083 -52.914  1.00  0.00     0.040 A 
HETATM   14  C   UNL     1     -42.673  58.718 -52.689  1.00  0.00     0.045 A 
BRANCH  13  15
HETATM   15  C   UNL     1     -42.829  61.070 -51.793  1.00  0.00     0.038 A 
HETATM   16  C   UNL     1     -43.652  60.704 -50.580  1.00  0.00     0.011 A 
HETATM   17  C   UNL     1     -42.164  60.839 -50.454  1.00  0.00     0.011 A 
ENDBRANCH  13  15
ENDBRANCH   2   5
BRANCH   1  18
HETATM   18  C   UNL     1     -40.920  54.514 -52.935  1.00  0.00     0.043 A 
HETATM   19  C   UNL     1     -40.448  53.656 -53.940  1.00  0.00    -0.032 A 
HETATM   20  C   UNL     1     -40.433  53.960 -55.410  1.00  0.00     0.050 C 
HETATM   21  C   UNL     1     -39.943  52.384 -53.573  1.00  0.00     0.048 A 
HETATM   22  C   UNL     1     -39.890  51.958 -52.243  1.00  0.00     0.102 A 
HETATM   23  C   UNL     1     -40.383  52.800 -51.244  1.00  0.00     0.103 A 
HETATM   24  C   UNL     1     -40.903  54.051 -51.598  1.00  0.00     0.069 A 
BRANCH  22  25
HETATM   25  O   UNL     1     -39.390  50.747 -51.836  1.00  0.00    -0.353 OA
HETATM   26  C   UNL     1     -39.686  49.620 -52.650  1.00  0.00     0.210 C 
ENDBRANCH  22  25
BRANCH  23  27
HETATM   27  O   UNL     1     -40.331  52.323 -49.958  1.00  0.00    -0.353 OA
HETATM   28  C   UNL     1     -40.511  53.268 -48.913  1.00  0.00     0.210 C 
ENDBRANCH  23  27
ENDBRANCH   1  18
TORSDOF 5
ENDMDL
MODEL 7
REMARK VINA RESULT:      -7.5      2.272      7.545
REMARK  5 active torsions:
REMARK  status: ('A' for Active; 'I' for Inactive)
REMARK    1  A    between atoms: C_3  and  N_4 
REMARK       I    between atoms: N_4  and  C_5 
REMARK    2  A    between atoms: C_5  and  C_6 
REMARK    3  A    between atoms: C_14  and  C_15 
REMARK    4  A    between atoms: C_21  and  O_22 
REMARK    5  A    between atoms: C_24  and  O_25 
ROOT
HETATM    1  N   UNL     1     -41.461  54.709 -54.342  1.00  0.00    -0.322 N 
HETATM    2  C   UNL     1     -41.357  56.073 -54.513  1.00  0.00     0.257 C 
HETATM    3  O   UNL     1     -40.512  56.842 -54.081  1.00  0.00    -0.267 OA
HETATM    4  H   UNL     1     -42.147  54.273 -54.949  1.00  0.00     0.169 HD
ENDROOT
BRANCH   2   5
HETATM    5  C   UNL     1     -42.409  56.658 -55.391  1.00  0.00     0.046 A 
HETATM    6  C   UNL     1     -43.341  57.620 -54.935  1.00  0.00     0.008 A 
HETATM    7  C   UNL     1     -44.303  58.030 -55.875  1.00  0.00     0.068 A 
HETATM    8  C   UNL     1     -43.363  58.210 -53.641  1.00  0.00     0.015 A 
HETATM    9  C   UNL     1     -45.274  58.946 -55.489  1.00  0.00     0.032 A 
HETATM   10  N   UNL     1     -44.322  57.592 -57.145  1.00  0.00    -0.252 NA
HETATM   11  C   UNL     1     -45.311  59.491 -54.205  1.00  0.00     0.002 A 
HETATM   12  C   UNL     1     -44.345  59.130 -53.279  1.00  0.00     0.001 A 
HETATM   13  C   UNL     1     -43.375  56.728 -57.586  1.00  0.00     0.040 A 
HETATM   14  C   UNL     1     -42.411  56.238 -56.722  1.00  0.00     0.045 A 
BRANCH  13  15
HETATM   15  C   UNL     1     -43.376  56.358 -59.049  1.00  0.00     0.038 A 
HETATM   16  C   UNL     1     -43.831  57.341 -60.101  1.00  0.00     0.011 A 
HETATM   17  C   UNL     1     -42.375  57.001 -59.985  1.00  0.00     0.011 A 
ENDBRANCH  13  15
ENDBRANCH   2   5
BRANCH   1  18
HETATM   18  C   UNL     1     -40.870  53.818 -53.410  1.00  0.00     0.043 A 
HETATM   19  C   UNL     1     -40.892  53.878 -52.008  1.00  0.00    -0.032 A 
HETATM   20  C   UNL     1     -41.476  54.996 -51.192  1.00  0.00     0.050 C 
HETATM   21  C   UNL     1     -40.318  52.815 -51.267  1.00  0.00     0.048 A 
HETATM   22  C   UNL     1     -39.738  51.705 -51.884  1.00  0.00     0.102 A 
HETATM   23  C   UNL     1     -39.691  51.655 -53.279  1.00  0.00     0.103 A 
HETATM   24  C   UNL     1     -40.237  52.709 -54.020  1.00  0.00     0.069 A 
BRANCH  22  25
HETATM   25  O   UNL     1     -39.190  50.642 -51.211  1.00  0.00    -0.353 OA
HETATM   26  C   UNL     1     -40.042  49.933 -50.322  1.00  0.00     0.210 C 
ENDBRANCH  22  25
BRANCH  23  27
HETATM   27  O   UNL     1     -39.087  50.554 -53.834  1.00  0.00    -0.353 OA
HETATM   28  C   UNL     1     -39.876  49.760 -54.709  1.00  0.00     0.210 C 
ENDBRANCH  23  27
ENDBRANCH   1  18
TORSDOF 5
ENDMDL
MODEL 8
REMARK VINA RESULT:      -7.4      2.637      3.110
REMARK  5 active torsions:
REMARK  status: ('A' for Active; 'I' for Inactive)
REMARK    1  A    between atoms: C_3  and  N_4 
REMARK       I    between atoms: N_4  and  C_5 
REMARK    2  A    between atoms: C_5  and  C_6 
REMARK    3  A    between atoms: C_14  and  C_15 
REMARK    4  A    between atoms: C_21  and  O_22 
REMARK    5  A    between atoms: C_24  and  O_25 
ROOT
HETATM    1  N   UNL     1     -41.658  56.630 -53.148  1.00  0.00    -0.322 N 
HETATM    2  C   UNL     1     -41.186  55.572 -53.896  1.00  0.00     0.257 C 
HETATM    3  O   UNL     1     -41.038  55.488 -55.105  1.00  0.00    -0.267 OA
HETATM    4  H   UNL     1     -41.515  56.519 -52.150  1.00  0.00     0.169 HD
ENDROOT
BRANCH   2   5
HETATM    5  C   UNL     1     -40.760  54.397 -53.086  1.00  0.00     0.046 A 
HETATM    6  C   UNL     1     -40.834  54.371 -51.673  1.00  0.00     0.008 A 
HETATM    7  C   UNL     1     -40.341  53.207 -51.058  1.00  0.00     0.068 A 
HETATM    8  C   UNL     1     -41.382  55.393 -50.850  1.00  0.00     0.015 A 
HETATM    9  C   UNL     1     -40.349  53.124 -49.672  1.00  0.00     0.032 A 
HETATM   10  N   UNL     1     -39.875  52.153 -51.749  1.00  0.00    -0.252 NA
HETATM   11  C   UNL     1     -40.853  54.148 -48.869  1.00  0.00     0.002 A 
HETATM   12  C   UNL     1     -41.382  55.285 -49.461  1.00  0.00     0.001 A 
HETATM   13  C   UNL     1     -39.881  52.164 -53.104  1.00  0.00     0.040 A 
HETATM   14  C   UNL     1     -40.311  53.282 -53.797  1.00  0.00     0.045 A 
BRANCH  13  15
HETATM   15  C   UNL     1     -39.453  50.911 -53.828  1.00  0.00     0.038 A 
HETATM   16  C   UNL     1     -39.663  49.547 -53.215  1.00  0.00     0.011 A 
HETATM   17  C   UNL     1     -40.503  49.972 -54.382  1.00  0.00     0.011 A 
ENDBRANCH  13  15
ENDBRANCH   2   5
BRANCH   1  18
HETATM   18  C   UNL     1     -42.396  57.790 -53.499  1.00  0.00     0.043 A 
HETATM   19  C   UNL     1     -43.546  58.313 -52.887  1.00  0.00    -0.032 A 
HETATM   20  C   UNL     1     -44.309  57.666 -51.767  1.00  0.00     0.050 C 
HETATM   21  C   UNL     1     -44.061  59.552 -53.343  1.00  0.00     0.048 A 
HETATM   22  C   UNL     1     -43.460  60.275 -54.376  1.00  0.00     0.102 A 
HETATM   23  C   UNL     1     -42.332  59.744 -55.004  1.00  0.00     0.103 A 
HETATM   24  C   UNL     1     -41.825  58.511 -54.575  1.00  0.00     0.069 A 
BRANCH  22  25
HETATM   25  O   UNL     1     -43.908  61.487 -54.837  1.00  0.00    -0.353 OA
HETATM   26  C   UNL     1     -45.189  61.914 -54.392  1.00  0.00     0.210 C 
ENDBRANCH  22  25
BRANCH  23  27
HETATM   27  O   UNL     1     -41.795  60.482 -56.029  1.00  0.00    -0.353 OA
HETATM   28  C   UNL     1     -42.064  60.038 -57.352  1.00  0.00     0.210 C 
ENDBRANCH  23  27
ENDBRANCH   1  18
TORSDOF 5
ENDMDL
MODEL 9
REMARK VINA RESULT:      -7.4      2.892      7.780
REMARK  5 active torsions:
REMARK  status: ('A' for Active; 'I' for Inactive)
REMARK    1  A    between atoms: C_3  and  N_4 
REMARK       I    between atoms: N_4  and  C_5 
REMARK    2  A    between atoms: C_5  and  C_6 
REMARK    3  A    between atoms: C_14  and  C_15 
REMARK    4  A    between atoms: C_21  and  O_22 
REMARK    5  A    between atoms: C_24  and  O_25 
ROOT
HETATM    1  N   UNL     1     -41.329  55.934 -53.184  1.00  0.00    -0.322 N 
HETATM    2  C   UNL     1     -42.570  56.474 -53.447  1.00  0.00     0.257 C 
HETATM    3  O   UNL     1     -43.674  55.965 -53.324  1.00  0.00    -0.267 OA
HETATM    4  H   UNL     1     -40.578  56.616 -53.194  1.00  0.00     0.169 HD
ENDROOT
BRANCH   2   5
HETATM    5  C   UNL     1     -42.533  57.893 -53.897  1.00  0.00     0.046 A 
HETATM    6  C   UNL     1     -42.670  58.985 -53.008  1.00  0.00     0.008 A 
HETATM    7  C   UNL     1     -42.666  60.260 -53.601  1.00  0.00     0.068 A 
HETATM    8  C   UNL     1     -42.778  58.897 -51.592  1.00  0.00     0.015 A 
HETATM    9  C   UNL     1     -42.831  61.378 -52.794  1.00  0.00     0.032 A 
HETATM   10  N   UNL     1     -42.492  60.455 -54.918  1.00  0.00    -0.252 NA
HETATM   11  C   UNL     1     -42.976  61.280 -51.409  1.00  0.00     0.002 A 
HETATM   12  C   UNL     1     -42.938  60.034 -50.803  1.00  0.00     0.001 A 
HETATM   13  C   UNL     1     -42.287  59.402 -55.746  1.00  0.00     0.040 A 
HETATM   14  C   UNL     1     -42.313  58.107 -55.259  1.00  0.00     0.045 A 
BRANCH  13  15
HETATM   15  C   UNL     1     -41.984  59.686 -57.198  1.00  0.00     0.038 A 
HETATM   16  C   UNL     1     -41.981  58.578 -58.224  1.00  0.00     0.011 A 
HETATM   17  C   UNL     1     -43.089  59.587 -58.226  1.00  0.00     0.011 A 
ENDBRANCH  13  15
ENDBRANCH   2   5
BRANCH   1  18
HETATM   18  C   UNL     1     -40.890  54.596 -53.009  1.00  0.00     0.043 A 
HETATM   19  C   UNL     1     -40.400  53.703 -53.974  1.00  0.00    -0.032 A 
HETATM   20  C   UNL     1     -40.344  53.961 -55.453  1.00  0.00     0.050 C 
HETATM   21  C   UNL     1     -39.917  52.438 -53.555  1.00  0.00     0.048 A 
HETATM   22  C   UNL     1     -39.903  52.053 -52.212  1.00  0.00     0.102 A 
HETATM   23  C   UNL     1     -40.413  52.930 -51.253  1.00  0.00     0.103 A 
HETATM   24  C   UNL     1     -40.912  54.174 -51.658  1.00  0.00     0.069 A 
BRANCH  22  25
HETATM   25  O   UNL     1     -39.425  50.851 -51.755  1.00  0.00    -0.353 OA
HETATM   26  C   UNL     1     -39.699  49.704 -52.548  1.00  0.00     0.210 C 
ENDBRANCH  22  25
BRANCH  23  27
HETATM   27  O   UNL     1     -40.399  52.493 -49.952  1.00  0.00    -0.353 OA
HETATM   28  C   UNL     1     -40.519  53.481 -48.938  1.00  0.00     0.210 C 
ENDBRANCH  23  27
ENDBRANCH   1  18
TORSDOF 5
ENDMDL
MODEL 10
REMARK VINA RESULT:      -7.4      2.734      8.041
REMARK  5 active torsions:
REMARK  status: ('A' for Active; 'I' for Inactive)
REMARK    1  A    between atoms: C_3  and  N_4 
REMARK       I    between atoms: N_4  and  C_5 
REMARK    2  A    between atoms: C_5  and  C_6 
REMARK    3  A    between atoms: C_14  and  C_15 
REMARK    4  A    between atoms: C_21  and  O_22 
REMARK    5  A    between atoms: C_24  and  O_25 
ROOT
HETATM    1  N   UNL     1     -41.744  56.342 -55.949  1.00  0.00    -0.322 N 
HETATM    2  C   UNL     1     -42.788  57.192 -56.246  1.00  0.00     0.257 C 
HETATM    3  O   UNL     1     -43.564  57.755 -55.489  1.00  0.00    -0.267 OA
HETATM    4  H   UNL     1     -41.138  56.150 -56.739  1.00  0.00     0.169 HD
ENDROOT
BRANCH   2   5
HETATM    5  C   UNL     1     -42.939  57.486 -57.699  1.00  0.00     0.046 A 
HETATM    6  C   UNL     1     -42.479  58.685 -58.292  1.00  0.00     0.008 A 
HETATM    7  C   UNL     1     -42.747  58.829 -59.664  1.00  0.00     0.068 A 
HETATM    8  C   UNL     1     -41.758  59.718 -57.630  1.00  0.00     0.015 A 
HETATM    9  C   UNL     1     -42.357  59.997 -60.307  1.00  0.00     0.032 A 
HETATM   10  N   UNL     1     -43.352  57.880 -60.397  1.00  0.00    -0.252 NA
HETATM   11  C   UNL     1     -41.684  61.022 -59.641  1.00  0.00     0.002 A 
HETATM   12  C   UNL     1     -41.373  60.878 -58.298  1.00  0.00     0.001 A 
HETATM   13  C   UNL     1     -43.718  56.705 -59.830  1.00  0.00     0.040 A 
HETATM   14  C   UNL     1     -43.530  56.487 -58.476  1.00  0.00     0.045 A 
BRANCH  13  15
HETATM   15  C   UNL     1     -44.289  55.630 -60.723  1.00  0.00     0.038 A 
HETATM   16  C   UNL     1     -45.034  54.451 -60.143  1.00  0.00     0.011 A 
HETATM   17  C   UNL     1     -45.789  55.512 -60.886  1.00  0.00     0.011 A 
ENDBRANCH  13  15
ENDBRANCH   2   5
BRANCH   1  18
HETATM   18  C   UNL     1     -41.420  55.604 -54.781  1.00  0.00     0.043 A 
HETATM   19  C   UNL     1     -41.156  56.085 -53.489  1.00  0.00    -0.032 A 
HETATM   20  C   UNL     1     -41.055  57.532 -53.100  1.00  0.00     0.050 C 
HETATM   21  C   UNL     1     -40.955  55.154 -52.439  1.00  0.00     0.048 A 
HETATM   22  C   UNL     1     -41.018  53.774 -52.645  1.00  0.00     0.102 A 
HETATM   23  C   UNL     1     -41.255  53.293 -53.935  1.00  0.00     0.103 A 
HETATM   24  C   UNL     1     -41.435  54.204 -54.982  1.00  0.00     0.069 A 
BRANCH  22  25
HETATM   25  O   UNL     1     -40.853  52.835 -51.659  1.00  0.00    -0.353 OA
HETATM   26  C   UNL     1     -39.959  53.158 -50.602  1.00  0.00     0.210 C 
ENDBRANCH  22  25
BRANCH  23  27
HETATM   27  O   UNL     1     -41.283  51.929 -54.086  1.00  0.00    -0.353 OA
HETATM   28  C   UNL     1     -40.045  51.286 -54.357  1.00  0.00     0.210 C 
ENDBRANCH  23  27
ENDBRANCH   1  18
TORSDOF 5
ENDMDL
