MODEL 1
REMARK VINA RESULT:      -8.7      0.000      0.000
REMARK  7 active torsions:
REMARK  status: ('A' for Active; 'I' for Inactive)
REMARK    1  A    between atoms: S_2  and  C_3 
REMARK    2  A    between atoms: C_3  and  C_4 
REMARK    3  A    between atoms: C_4  and  C_5 
REMARK    4  A    between atoms: C_5  and  N_6 
REMARK    5  A    between atoms: C_5  and  C_26 
REMARK       I    between atoms: N_6  and  C_7 
REMARK    6  A    between atoms: C_7  and  C_8 
REMARK    7  A    between atoms: C_8  and  N_9 
ROOT
HETATM    1  N   UNL     1     -44.628  59.366 -54.483  1.00  0.00    -0.348 N 
HETATM    2  C   UNL     1     -44.501  58.198 -53.760  1.00  0.00     0.236 C 
HETATM    3  O   UNL     1     -44.978  57.125 -54.106  1.00  0.00    -0.272 OA
HETATM    4  H   UNL     1     -44.518  60.217 -53.939  1.00  0.00     0.163 HD
ENDROOT
BRANCH   2   5
HETATM    5  C   UNL     1     -43.758  58.402 -52.438  1.00  0.00     0.239 C 
BRANCH   5   6
HETATM    6  N   UNL     1     -43.215  57.142 -51.971  1.00  0.00    -0.259 N 
HETATM    7  C   UNL     1     -43.829  56.323 -51.075  1.00  0.00     0.326 C 
HETATM    8  O   UNL     1     -44.921  56.495 -50.551  1.00  0.00    -0.247 OA
HETATM    9  N   UNL     1     -43.017  55.246 -50.833  1.00  0.00    -0.320 N 
HETATM   10  C   UNL     1     -41.679  55.447 -51.354  1.00  0.00     0.144 C 
HETATM   11  H   UNL     1     -43.276  54.514 -50.186  1.00  0.00     0.165 HD
HETATM   12  C   UNL     1     -41.213  54.245 -52.153  1.00  0.00    -0.014 A 
HETATM   13  C   UNL     1     -40.722  55.810 -50.202  1.00  0.00     0.047 C 
HETATM   14  C   UNL     1     -41.925  56.730 -52.184  1.00  0.00     0.261 C 
HETATM   15  C   UNL     1     -40.269  53.343 -51.614  1.00  0.00    -0.049 A 
HETATM   16  C   UNL     1     -41.733  53.987 -53.436  1.00  0.00     0.011 A 
HETATM   17  C   UNL     1     -39.842  52.244 -52.375  1.00  0.00     0.007 A 
HETATM   18  C   UNL     1     -39.629  53.559 -50.262  1.00  0.00     0.039 C 
HETATM   19  C   UNL     1     -40.353  52.018 -53.651  1.00  0.00     0.001 A 
HETATM   20  C   UNL     1     -41.300  52.887 -54.179  1.00  0.00     0.001 A 
HETATM   21  C   UNL     1     -40.364  54.571 -49.390  1.00  0.00     0.008 C 
HETATM   22  O   UNL     1     -41.085  57.328 -52.843  1.00  0.00    -0.270 OA
ENDBRANCH   5   6
ENDBRANCH   2   5
BRANCH   1  23
HETATM   23  C   UNL     1     -45.403  59.461 -55.711  1.00  0.00     0.155 C 
BRANCH  23  24
HETATM   24  C   UNL     1     -45.745  60.921 -56.058  1.00  0.00     0.043 C 
BRANCH  24  25
HETATM   25  C   UNL     1     -45.369  61.881 -54.927  1.00  0.00     0.076 C 
BRANCH  25  26
HETATM   26  S   UNL     1     -43.876  62.825 -55.378  1.00  0.00    -0.173 SA
HETATM   27  C   UNL     1     -43.139  62.953 -53.730  1.00  0.00     0.089 C 
ENDBRANCH  25  26
ENDBRANCH  24  25
ENDBRANCH  23  24
BRANCH  23  28
HETATM   28  C   UNL     1     -44.599  58.814 -56.809  1.00  0.00     0.128 A 
HETATM   29  N   UNL     1     -43.621  59.372 -57.497  1.00  0.00    -0.231 NA
HETATM   30  C   UNL     1     -43.157  58.399 -58.346  1.00  0.00     0.085 A 
HETATM   31  C   UNL     1     -43.862  57.213 -58.175  1.00  0.00     0.062 A 
HETATM   32  C   UNL     1     -42.127  58.451 -59.296  1.00  0.00     0.034 A 
HETATM   33  N   UNL     1     -44.762  57.497 -57.182  1.00  0.00    -0.341 N 
HETATM   34  C   UNL     1     -43.608  56.056 -58.912  1.00  0.00     0.032 A 
HETATM   35  H   UNL     1     -45.432  56.850 -56.786  1.00  0.00     0.167 HD
HETATM   36  C   UNL     1     -42.579  56.127 -59.858  1.00  0.00     0.002 A 
HETATM   37  C   UNL     1     -41.847  57.302 -60.047  1.00  0.00     0.002 A 
ENDBRANCH  23  28
ENDBRANCH   1  23
TORSDOF 7
ENDMDL
MODEL 2
REMARK VINA RESULT:      -8.6      2.002      3.331
REMARK  7 active torsions:
REMARK  status: ('A' for Active; 'I' for Inactive)
REMARK    1  A    between atoms: S_2  and  C_3 
REMARK    2  A    between atoms: C_3  and  C_4 
REMARK    3  A    between atoms: C_4  and  C_5 
REMARK    4  A    between atoms: C_5  and  N_6 
REMARK    5  A    between atoms: C_5  and  C_26 
REMARK       I    between atoms: N_6  and  C_7 
REMARK    6  A    between atoms: C_7  and  C_8 
REMARK    7  A    between atoms: C_8  and  N_9 
ROOT
HETATM    1  N   UNL     1     -43.319  59.650 -55.432  1.00  0.00    -0.348 N 
HETATM    2  C   UNL     1     -44.161  58.996 -54.556  1.00  0.00     0.236 C 
HETATM    3  O   UNL     1     -45.314  58.683 -54.822  1.00  0.00    -0.272 OA
HETATM    4  H   UNL     1     -42.558  60.159 -54.990  1.00  0.00     0.163 HD
ENDROOT
BRANCH   2   5
HETATM    5  C   UNL     1     -43.521  58.766 -53.185  1.00  0.00     0.239 C 
BRANCH   5   6
HETATM    6  N   UNL     1     -42.507  57.735 -53.274  1.00  0.00    -0.259 N 
HETATM    7  C   UNL     1     -41.202  57.961 -53.587  1.00  0.00     0.326 C 
HETATM    8  O   UNL     1     -40.679  59.043 -53.815  1.00  0.00    -0.247 OA
HETATM    9  N   UNL     1     -40.542  56.761 -53.619  1.00  0.00    -0.320 N 
HETATM   10  C   UNL     1     -41.458  55.636 -53.603  1.00  0.00     0.144 C 
HETATM   11  H   UNL     1     -39.558  56.696 -53.843  1.00  0.00     0.165 HD
HETATM   12  C   UNL     1     -41.044  54.604 -52.571  1.00  0.00    -0.014 A 
HETATM   13  C   UNL     1     -41.585  55.050 -55.022  1.00  0.00     0.047 C 
HETATM   14  C   UNL     1     -42.772  56.390 -53.285  1.00  0.00     0.261 C 
HETATM   15  C   UNL     1     -40.437  53.392 -52.968  1.00  0.00    -0.049 A 
HETATM   16  C   UNL     1     -41.229  54.845 -51.196  1.00  0.00     0.011 A 
HETATM   17  C   UNL     1     -40.073  52.445 -51.998  1.00  0.00     0.007 A 
HETATM   18  C   UNL     1     -40.233  53.031 -54.421  1.00  0.00     0.039 C 
HETATM   19  C   UNL     1     -40.284  52.694 -50.643  1.00  0.00     0.001 A 
HETATM   20  C   UNL     1     -40.858  53.894 -50.243  1.00  0.00     0.001 A 
HETATM   21  C   UNL     1     -40.357  54.217 -55.371  1.00  0.00     0.008 C 
HETATM   22  O   UNL     1     -43.877  55.879 -53.159  1.00  0.00    -0.270 OA
ENDBRANCH   5   6
ENDBRANCH   2   5
BRANCH   1  23
HETATM   23  C   UNL     1     -43.736  60.098 -56.752  1.00  0.00     0.155 C 
BRANCH  23  24
HETATM   24  C   UNL     1     -42.706  61.052 -57.382  1.00  0.00     0.043 C 
BRANCH  24  25
HETATM   25  C   UNL     1     -43.105  61.471 -58.799  1.00  0.00     0.076 C 
BRANCH  25  26
HETATM   26  S   UNL     1     -41.784  61.035 -59.976  1.00  0.00    -0.173 SA
HETATM   27  C   UNL     1     -42.731  59.906 -61.026  1.00  0.00     0.089 C 
ENDBRANCH  25  26
ENDBRANCH  24  25
ENDBRANCH  23  24
BRANCH  23  28
HETATM   28  C   UNL     1     -43.938  58.873 -57.605  1.00  0.00     0.128 A 
HETATM   29  N   UNL     1     -43.032  57.957 -57.888  1.00  0.00    -0.231 NA
HETATM   30  C   UNL     1     -43.676  57.014 -58.650  1.00  0.00     0.085 A 
HETATM   31  C   UNL     1     -45.011  57.354 -58.835  1.00  0.00     0.062 A 
HETATM   32  C   UNL     1     -43.187  55.829 -59.218  1.00  0.00     0.034 A 
HETATM   33  N   UNL     1     -45.157  58.530 -58.150  1.00  0.00    -0.341 N 
HETATM   34  C   UNL     1     -45.905  56.579 -59.575  1.00  0.00     0.032 A 
HETATM   35  H   UNL     1     -46.015  59.059 -58.055  1.00  0.00     0.167 HD
HETATM   36  C   UNL     1     -45.398  55.401 -60.138  1.00  0.00     0.002 A 
HETATM   37  C   UNL     1     -44.062  55.028 -59.962  1.00  0.00     0.002 A 
ENDBRANCH  23  28
ENDBRANCH   1  23
TORSDOF 7
ENDMDL
MODEL 3
REMARK VINA RESULT:      -8.6      2.562      4.823
REMARK  7 active torsions:
REMARK  status: ('A' for Active; 'I' for Inactive)
REMARK    1  A    between atoms: S_2  and  C_3 
REMARK    2  A    between atoms: C_3  and  C_4 
REMARK    3  A    between atoms: C_4  and  C_5 
REMARK    4  A    between atoms: C_5  and  N_6 
REMARK    5  A    between atoms: C_5  and  C_26 
REMARK       I    between atoms: N_6  and  C_7 
REMARK    6  A    between atoms: C_7  and  C_8 
REMARK    7  A    between atoms: C_8  and  N_9 
ROOT
HETATM    1  N   UNL     1     -43.100  57.274 -55.090  1.00  0.00    -0.348 N 
HETATM    2  C   UNL     1     -42.536  56.929 -56.301  1.00  0.00     0.236 C 
HETATM    3  O   UNL     1     -42.110  57.740 -57.112  1.00  0.00    -0.272 OA
HETATM    4  H   UNL     1     -43.720  56.573 -54.695  1.00  0.00     0.163 HD
ENDROOT
BRANCH   2   5
HETATM    5  C   UNL     1     -42.565  55.420 -56.555  1.00  0.00     0.239 C 
BRANCH   5   6
HETATM    6  N   UNL     1     -42.321  54.701 -55.321  1.00  0.00    -0.259 N 
HETATM    7  C   UNL     1     -43.276  54.413 -54.395  1.00  0.00     0.326 C 
HETATM    8  O   UNL     1     -44.467  54.683 -54.460  1.00  0.00    -0.247 OA
HETATM    9  N   UNL     1     -42.687  53.763 -53.342  1.00  0.00    -0.320 N 
HETATM   10  C   UNL     1     -41.240  53.839 -53.397  1.00  0.00     0.144 C 
HETATM   11  H   UNL     1     -43.215  53.464 -52.534  1.00  0.00     0.165 HD
HETATM   12  C   UNL     1     -40.608  52.477 -53.187  1.00  0.00    -0.014 A 
HETATM   13  C   UNL     1     -40.739  54.896 -52.393  1.00  0.00     0.047 C 
HETATM   14  C   UNL     1     -41.075  54.426 -54.819  1.00  0.00     0.261 C 
HETATM   15  C   UNL     1     -39.991  52.150 -51.959  1.00  0.00    -0.049 A 
HETATM   16  C   UNL     1     -40.649  51.500 -54.200  1.00  0.00     0.011 A 
HETATM   17  C   UNL     1     -39.401  50.887 -51.791  1.00  0.00     0.007 A 
HETATM   18  C   UNL     1     -39.867  53.146 -50.829  1.00  0.00     0.039 C 
HETATM   19  C   UNL     1     -39.434  49.942 -52.813  1.00  0.00     0.001 A 
HETATM   20  C   UNL     1     -40.060  50.247 -54.016  1.00  0.00     0.001 A 
HETATM   21  C   UNL     1     -40.790  54.351 -50.970  1.00  0.00     0.008 C 
HETATM   22  O   UNL     1     -40.012  54.689 -55.366  1.00  0.00    -0.270 OA
ENDBRANCH   5   6
ENDBRANCH   2   5
BRANCH   1  23
HETATM   23  C   UNL     1     -43.308  58.653 -54.673  1.00  0.00     0.155 C 
BRANCH  23  24
HETATM   24  C   UNL     1     -44.758  58.899 -54.223  1.00  0.00     0.043 C 
BRANCH  24  25
HETATM   25  C   UNL     1     -45.340  60.175 -54.837  1.00  0.00     0.076 C 
BRANCH  25  26
HETATM   26  S   UNL     1     -45.564  61.444 -53.548  1.00  0.00    -0.173 SA
HETATM   27  C   UNL     1     -46.161  60.367 -52.221  1.00  0.00     0.089 C 
ENDBRANCH  25  26
ENDBRANCH  24  25
ENDBRANCH  23  24
BRANCH  23  28
HETATM   28  C   UNL     1     -42.334  58.944 -53.562  1.00  0.00     0.128 A 
HETATM   29  N   UNL     1     -42.633  59.371 -52.350  1.00  0.00    -0.231 NA
HETATM   30  C   UNL     1     -41.441  59.449 -51.674  1.00  0.00     0.085 A 
HETATM   31  C   UNL     1     -40.384  59.057 -52.487  1.00  0.00     0.062 A 
HETATM   32  C   UNL     1     -41.179  59.844 -50.354  1.00  0.00     0.034 A 
HETATM   33  N   UNL     1     -40.977  58.726 -53.676  1.00  0.00    -0.341 N 
HETATM   34  C   UNL     1     -39.054  59.043 -52.063  1.00  0.00     0.032 A 
HETATM   35  H   UNL     1     -40.503  58.377 -54.498  1.00  0.00     0.167 HD
HETATM   36  C   UNL     1     -38.811  59.443 -50.743  1.00  0.00     0.002 A 
HETATM   37  C   UNL     1     -39.854  59.835 -49.900  1.00  0.00     0.002 A 
ENDBRANCH  23  28
ENDBRANCH   1  23
TORSDOF 7
ENDMDL
MODEL 4
REMARK VINA RESULT:      -8.5      2.413      4.802
REMARK  7 active torsions:
REMARK  status: ('A' for Active; 'I' for Inactive)
REMARK    1  A    between atoms: S_2  and  C_3 
REMARK    2  A    between atoms: C_3  and  C_4 
REMARK    3  A    between atoms: C_4  and  C_5 
REMARK    4  A    between atoms: C_5  and  N_6 
REMARK    5  A    between atoms: C_5  and  C_26 
REMARK       I    between atoms: N_6  and  C_7 
REMARK    6  A    between atoms: C_7  and  C_8 
REMARK    7  A    between atoms: C_8  and  N_9 
ROOT
HETATM    1  N   UNL     1     -44.161  57.081 -56.581  1.00  0.00    -0.348 N 
HETATM    2  C   UNL     1     -42.821  56.849 -56.346  1.00  0.00     0.236 C 
HETATM    3  O   UNL     1     -42.027  57.717 -56.006  1.00  0.00    -0.272 OA
HETATM    4  H   UNL     1     -44.610  56.398 -57.185  1.00  0.00     0.163 HD
ENDROOT
BRANCH   2   5
HETATM    5  C   UNL     1     -42.416  55.400 -56.624  1.00  0.00     0.239 C 
BRANCH   5   6
HETATM    6  N   UNL     1     -42.210  54.690 -55.378  1.00  0.00    -0.259 N 
HETATM    7  C   UNL     1     -43.185  54.440 -54.463  1.00  0.00     0.326 C 
HETATM    8  O   UNL     1     -44.368  54.742 -54.549  1.00  0.00    -0.247 OA
HETATM    9  N   UNL     1     -42.630  53.787 -53.394  1.00  0.00    -0.320 N 
HETATM   10  C   UNL     1     -41.180  53.824 -53.428  1.00  0.00     0.144 C 
HETATM   11  H   UNL     1     -43.177  53.513 -52.589  1.00  0.00     0.165 HD
HETATM   12  C   UNL     1     -40.589  52.447 -53.193  1.00  0.00    -0.014 A 
HETATM   13  C   UNL     1     -40.664  54.878 -52.430  1.00  0.00     0.047 C 
HETATM   14  C   UNL     1     -40.979  54.388 -54.855  1.00  0.00     0.261 C 
HETATM   15  C   UNL     1     -39.999  52.119 -51.952  1.00  0.00    -0.049 A 
HETATM   16  C   UNL     1     -40.643  51.459 -54.194  1.00  0.00     0.011 A 
HETATM   17  C   UNL     1     -39.446  50.842 -51.760  1.00  0.00     0.007 A 
HETATM   18  C   UNL     1     -39.863  53.125 -50.833  1.00  0.00     0.039 C 
HETATM   19  C   UNL     1     -39.491  49.886 -52.771  1.00  0.00     0.001 A 
HETATM   20  C   UNL     1     -40.092  50.193 -53.986  1.00  0.00     0.001 A 
HETATM   21  C   UNL     1     -40.750  54.353 -51.002  1.00  0.00     0.008 C 
HETATM   22  O   UNL     1     -39.902  54.614 -55.390  1.00  0.00    -0.270 OA
ENDBRANCH   5   6
ENDBRANCH   2   5
BRANCH   1  23
HETATM   23  C   UNL     1     -44.764  58.403 -56.512  1.00  0.00     0.155 C 
BRANCH  23  24
HETATM   24  C   UNL     1     -46.095  58.463 -57.283  1.00  0.00     0.043 C 
BRANCH  24  25
HETATM   25  C   UNL     1     -45.942  59.161 -58.636  1.00  0.00     0.076 C 
BRANCH  25  26
HETATM   26  S   UNL     1     -46.040  57.938 -59.985  1.00  0.00    -0.173 SA
HETATM   27  C   UNL     1     -44.267  57.652 -60.209  1.00  0.00     0.089 C 
ENDBRANCH  25  26
ENDBRANCH  24  25
ENDBRANCH  23  24
BRANCH  23  28
HETATM   28  C   UNL     1     -44.960  58.739 -55.057  1.00  0.00     0.128 A 
HETATM   29  N   UNL     1     -45.437  59.869 -54.571  1.00  0.00    -0.231 NA
HETATM   30  C   UNL     1     -45.479  59.704 -53.209  1.00  0.00     0.085 A 
HETATM   31  C   UNL     1     -45.022  58.442 -52.848  1.00  0.00     0.062 A 
HETATM   32  C   UNL     1     -45.902  60.591 -52.208  1.00  0.00     0.034 A 
HETATM   33  N   UNL     1     -44.713  57.842 -54.040  1.00  0.00    -0.341 N 
HETATM   34  C   UNL     1     -44.948  58.002 -51.526  1.00  0.00     0.032 A 
HETATM   35  H   UNL     1     -44.365  56.899 -54.156  1.00  0.00     0.167 HD
HETATM   36  C   UNL     1     -45.371  58.902 -50.540  1.00  0.00     0.002 A 
HETATM   37  C   UNL     1     -45.844  60.174 -50.872  1.00  0.00     0.002 A 
ENDBRANCH  23  28
ENDBRANCH   1  23
TORSDOF 7
ENDMDL
MODEL 5
REMARK VINA RESULT:      -8.4      3.960      7.294
REMARK  7 active torsions:
REMARK  status: ('A' for Active; 'I' for Inactive)
REMARK    1  A    between atoms: S_2  and  C_3 
REMARK    2  A    between atoms: C_3  and  C_4 
REMARK    3  A    between atoms: C_4  and  C_5 
REMARK    4  A    between atoms: C_5  and  N_6 
REMARK    5  A    between atoms: C_5  and  C_26 
REMARK       I    between atoms: N_6  and  C_7 
REMARK    6  A    between atoms: C_7  and  C_8 
REMARK    7  A    between atoms: C_8  and  N_9 
ROOT
HETATM    1  N   UNL     1     -43.305  59.468 -50.450  1.00  0.00    -0.348 N 
HETATM    2  C   UNL     1     -41.984  59.864 -50.496  1.00  0.00     0.236 C 
HETATM    3  O   UNL     1     -41.624  61.023 -50.656  1.00  0.00    -0.272 OA
HETATM    4  H   UNL     1     -43.463  58.489 -50.676  1.00  0.00     0.163 HD
ENDROOT
BRANCH   2   5
HETATM    5  C   UNL     1     -41.012  58.687 -50.394  1.00  0.00     0.239 C 
BRANCH   5   6
HETATM    6  N   UNL     1     -41.099  57.864 -51.583  1.00  0.00    -0.259 N 
HETATM    7  C   UNL     1     -40.555  58.188 -52.788  1.00  0.00     0.326 C 
HETATM    8  O   UNL     1     -39.900  59.187 -53.052  1.00  0.00    -0.247 OA
HETATM    9  N   UNL     1     -40.864  57.205 -53.691  1.00  0.00    -0.320 N 
HETATM   10  C   UNL     1     -41.883  56.305 -53.186  1.00  0.00     0.144 C 
HETATM   11  H   UNL     1     -40.566  57.250 -54.656  1.00  0.00     0.165 HD
HETATM   12  C   UNL     1     -41.482  54.855 -53.383  1.00  0.00    -0.014 A 
HETATM   13  C   UNL     1     -43.241  56.646 -53.830  1.00  0.00     0.047 C 
HETATM   14  C   UNL     1     -41.927  56.779 -51.714  1.00  0.00     0.261 C 
HETATM   15  C   UNL     1     -42.080  54.073 -54.396  1.00  0.00    -0.049 A 
HETATM   16  C   UNL     1     -40.487  54.267 -52.579  1.00  0.00     0.011 A 
HETATM   17  C   UNL     1     -41.704  52.730 -54.553  1.00  0.00     0.007 A 
HETATM   18  C   UNL     1     -43.182  54.608 -55.282  1.00  0.00     0.039 C 
HETATM   19  C   UNL     1     -40.732  52.161 -53.733  1.00  0.00     0.001 A 
HETATM   20  C   UNL     1     -40.122  52.930 -52.749  1.00  0.00     0.001 A 
HETATM   21  C   UNL     1     -43.302  56.127 -55.262  1.00  0.00     0.008 C 
HETATM   22  O   UNL     1     -42.649  56.323 -50.837  1.00  0.00    -0.270 OA
ENDBRANCH   5   6
ENDBRANCH   2   5
BRANCH   1  23
HETATM   23  C   UNL     1     -44.418  60.382 -50.654  1.00  0.00     0.155 C 
BRANCH  23  24
HETATM   24  C   UNL     1     -45.716  59.632 -51.000  1.00  0.00     0.043 C 
BRANCH  24  25
HETATM   25  C   UNL     1     -46.608  60.438 -51.947  1.00  0.00     0.076 C 
BRANCH  25  26
HETATM   26  S   UNL     1     -45.592  61.251 -53.223  1.00  0.00    -0.173 SA
HETATM   27  C   UNL     1     -45.252  59.801 -54.252  1.00  0.00     0.089 C 
ENDBRANCH  25  26
ENDBRANCH  24  25
ENDBRANCH  23  24
BRANCH  23  28
HETATM   28  C   UNL     1     -44.576  61.195 -49.395  1.00  0.00     0.128 A 
HETATM   29  N   UNL     1     -44.601  62.511 -49.311  1.00  0.00    -0.231 NA
HETATM   30  C   UNL     1     -44.809  62.799 -47.985  1.00  0.00     0.085 A 
HETATM   31  C   UNL     1     -44.920  61.633 -47.237  1.00  0.00     0.062 A 
HETATM   32  C   UNL     1     -44.921  64.039 -47.340  1.00  0.00     0.034 A 
HETATM   33  N   UNL     1     -44.784  60.628 -48.157  1.00  0.00    -0.341 N 
HETATM   34  C   UNL     1     -45.128  61.624 -45.857  1.00  0.00     0.032 A 
HETATM   35  H   UNL     1     -44.831  59.636 -47.962  1.00  0.00     0.167 HD
HETATM   36  C   UNL     1     -45.235  62.871 -45.229  1.00  0.00     0.002 A 
HETATM   37  C   UNL     1     -45.136  64.060 -45.957  1.00  0.00     0.002 A 
ENDBRANCH  23  28
ENDBRANCH   1  23
TORSDOF 7
ENDMDL
MODEL 6
REMARK VINA RESULT:      -8.1      2.117      2.870
REMARK  7 active torsions:
REMARK  status: ('A' for Active; 'I' for Inactive)
REMARK    1  A    between atoms: S_2  and  C_3 
REMARK    2  A    between atoms: C_3  and  C_4 
REMARK    3  A    between atoms: C_4  and  C_5 
REMARK    4  A    between atoms: C_5  and  N_6 
REMARK    5  A    between atoms: C_5  and  C_26 
REMARK       I    between atoms: N_6  and  C_7 
REMARK    6  A    between atoms: C_7  and  C_8 
REMARK    7  A    between atoms: C_8  and  N_9 
ROOT
HETATM    1  N   UNL     1     -43.897  60.251 -56.086  1.00  0.00    -0.348 N 
HETATM    2  C   UNL     1     -42.703  59.963 -55.458  1.00  0.00     0.236 C 
HETATM    3  O   UNL     1     -41.631  59.860 -56.041  1.00  0.00    -0.272 OA
HETATM    4  H   UNL     1     -44.726  59.955 -55.579  1.00  0.00     0.163 HD
ENDROOT
BRANCH   2   5
HETATM    5  C   UNL     1     -42.872  59.714 -53.958  1.00  0.00     0.239 C 
BRANCH   5   6
HETATM    6  N   UNL     1     -42.940  58.291 -53.691  1.00  0.00    -0.259 N 
HETATM    7  C   UNL     1     -44.065  57.536 -53.817  1.00  0.00     0.326 C 
HETATM    8  O   UNL     1     -45.167  57.917 -54.190  1.00  0.00    -0.247 OA
HETATM    9  N   UNL     1     -43.777  56.249 -53.447  1.00  0.00    -0.320 N 
HETATM   10  C   UNL     1     -42.493  56.151 -52.778  1.00  0.00     0.144 C 
HETATM   11  H   UNL     1     -44.476  55.519 -53.455  1.00  0.00     0.165 HD
HETATM   12  C   UNL     1     -41.658  55.024 -53.354  1.00  0.00    -0.014 A 
HETATM   13  C   UNL     1     -42.709  56.024 -51.257  1.00  0.00     0.047 C 
HETATM   14  C   UNL     1     -41.956  57.575 -53.060  1.00  0.00     0.261 C 
HETATM   15  C   UNL     1     -41.495  53.813 -52.645  1.00  0.00    -0.049 A 
HETATM   16  C   UNL     1     -41.051  55.150 -54.619  1.00  0.00     0.011 A 
HETATM   17  C   UNL     1     -40.707  52.787 -53.191  1.00  0.00     0.007 A 
HETATM   18  C   UNL     1     -42.077  53.602 -51.267  1.00  0.00     0.039 C 
HETATM   19  C   UNL     1     -40.098  52.940 -54.434  1.00  0.00     0.001 A 
HETATM   20  C   UNL     1     -40.273  54.119 -55.149  1.00  0.00     0.001 A 
HETATM   21  C   UNL     1     -43.156  54.612 -50.895  1.00  0.00     0.008 C 
HETATM   22  O   UNL     1     -40.874  58.016 -52.698  1.00  0.00    -0.270 OA
ENDBRANCH   5   6
ENDBRANCH   2   5
BRANCH   1  23
HETATM   23  C   UNL     1     -44.021  60.401 -57.528  1.00  0.00     0.155 C 
BRANCH  23  24
HETATM   24  C   UNL     1     -42.767  61.044 -58.145  1.00  0.00     0.043 C 
BRANCH  24  25
HETATM   25  C   UNL     1     -43.079  61.761 -59.461  1.00  0.00     0.076 C 
BRANCH  25  26
HETATM   26  S   UNL     1     -41.653  62.772 -59.975  1.00  0.00    -0.173 SA
HETATM   27  C   UNL     1     -40.471  62.215 -58.722  1.00  0.00     0.089 C 
ENDBRANCH  25  26
ENDBRANCH  24  25
ENDBRANCH  23  24
BRANCH  23  28
HETATM   28  C   UNL     1     -44.276  59.034 -58.108  1.00  0.00     0.128 A 
HETATM   29  N   UNL     1     -45.321  58.670 -58.826  1.00  0.00    -0.231 NA
HETATM   30  C   UNL     1     -45.101  57.360 -59.172  1.00  0.00     0.085 A 
HETATM   31  C   UNL     1     -43.891  56.909 -58.659  1.00  0.00     0.062 A 
HETATM   32  C   UNL     1     -45.891  56.485 -59.931  1.00  0.00     0.034 A 
HETATM   33  N   UNL     1     -43.378  57.994 -58.000  1.00  0.00    -0.341 N 
HETATM   34  C   UNL     1     -43.413  55.611 -58.849  1.00  0.00     0.032 A 
HETATM   35  H   UNL     1     -42.488  58.030 -57.518  1.00  0.00     0.167 HD
HETATM   36  C   UNL     1     -44.217  54.751 -59.607  1.00  0.00     0.002 A 
HETATM   37  C   UNL     1     -45.434  55.178 -60.143  1.00  0.00     0.002 A 
ENDBRANCH  23  28
ENDBRANCH   1  23
TORSDOF 7
ENDMDL
MODEL 7
REMARK VINA RESULT:      -7.9      2.701      7.252
REMARK  7 active torsions:
REMARK  status: ('A' for Active; 'I' for Inactive)
REMARK    1  A    between atoms: S_2  and  C_3 
REMARK    2  A    between atoms: C_3  and  C_4 
REMARK    3  A    between atoms: C_4  and  C_5 
REMARK    4  A    between atoms: C_5  and  N_6 
REMARK    5  A    between atoms: C_5  and  C_26 
REMARK       I    between atoms: N_6  and  C_7 
REMARK    6  A    between atoms: C_7  and  C_8 
REMARK    7  A    between atoms: C_8  and  N_9 
ROOT
HETATM    1  N   UNL     1     -43.184  59.575 -53.703  1.00  0.00    -0.348 N 
HETATM    2  C   UNL     1     -42.843  60.065 -54.947  1.00  0.00     0.236 C 
HETATM    3  O   UNL     1     -41.709  60.033 -55.407  1.00  0.00    -0.272 OA
HETATM    4  H   UNL     1     -44.029  59.976 -53.305  1.00  0.00     0.163 HD
ENDROOT
BRANCH   2   5
HETATM    5  C   UNL     1     -44.024  60.720 -55.665  1.00  0.00     0.239 C 
BRANCH   5   6
HETATM    6  N   UNL     1     -44.314  60.015 -56.897  1.00  0.00    -0.259 N 
HETATM    7  C   UNL     1     -44.010  60.478 -58.141  1.00  0.00     0.326 C 
HETATM    8  O   UNL     1     -43.437  61.523 -58.415  1.00  0.00    -0.247 OA
HETATM    9  N   UNL     1     -44.461  59.577 -59.069  1.00  0.00    -0.320 N 
HETATM   10  C   UNL     1     -45.350  58.592 -58.483  1.00  0.00     0.144 C 
HETATM   11  H   UNL     1     -44.349  59.728 -60.063  1.00  0.00     0.165 HD
HETATM   12  C   UNL     1     -44.964  57.185 -58.899  1.00  0.00    -0.014 A 
HETATM   13  C   UNL     1     -46.811  58.941 -58.828  1.00  0.00     0.047 C 
HETATM   14  C   UNL     1     -45.129  58.916 -56.986  1.00  0.00     0.261 C 
HETATM   15  C   UNL     1     -45.723  56.484 -59.862  1.00  0.00    -0.049 A 
HETATM   16  C   UNL     1     -43.824  56.560 -58.357  1.00  0.00     0.011 A 
HETATM   17  C   UNL     1     -45.355  55.178 -60.224  1.00  0.00     0.007 A 
HETATM   18  C   UNL     1     -46.981  57.059 -60.471  1.00  0.00     0.039 C 
HETATM   19  C   UNL     1     -44.236  54.571 -59.659  1.00  0.00     0.001 A 
HETATM   20  C   UNL     1     -43.470  55.262 -58.729  1.00  0.00     0.001 A 
HETATM   21  C   UNL     1     -47.127  58.564 -60.271  1.00  0.00     0.008 C 
HETATM   22  O   UNL     1     -45.666  58.349 -56.044  1.00  0.00    -0.270 OA
ENDBRANCH   5   6
ENDBRANCH   2   5
BRANCH   1  23
HETATM   23  C   UNL     1     -42.212  59.022 -52.772  1.00  0.00     0.155 C 
BRANCH  23  24
HETATM   24  C   UNL     1     -42.698  59.119 -51.315  1.00  0.00     0.043 C 
BRANCH  24  25
HETATM   25  C   UNL     1     -43.401  60.449 -51.034  1.00  0.00     0.076 C 
BRANCH  25  26
HETATM   26  S   UNL     1     -45.082  60.145 -50.397  1.00  0.00    -0.173 SA
HETATM   27  C   UNL     1     -45.288  58.451 -50.998  1.00  0.00     0.089 C 
ENDBRANCH  25  26
ENDBRANCH  24  25
ENDBRANCH  23  24
BRANCH  23  28
HETATM   28  C   UNL     1     -41.963  57.591 -53.170  1.00  0.00     0.128 A 
HETATM   29  N   UNL     1     -42.735  56.556 -52.897  1.00  0.00    -0.231 NA
HETATM   30  C   UNL     1     -42.138  55.474 -53.495  1.00  0.00     0.085 A 
HETATM   31  C   UNL     1     -40.976  55.852 -54.156  1.00  0.00     0.062 A 
HETATM   32  C   UNL     1     -42.535  54.130 -53.523  1.00  0.00     0.034 A 
HETATM   33  N   UNL     1     -40.893  57.203 -53.948  1.00  0.00    -0.341 N 
HETATM   34  C   UNL     1     -40.160  54.955 -54.848  1.00  0.00     0.032 A 
HETATM   35  H   UNL     1     -40.172  57.815 -54.307  1.00  0.00     0.167 HD
HETATM   36  C   UNL     1     -40.570  53.616 -54.862  1.00  0.00     0.002 A 
HETATM   37  C   UNL     1     -41.739  53.208 -54.214  1.00  0.00     0.002 A 
ENDBRANCH  23  28
ENDBRANCH   1  23
TORSDOF 7
ENDMDL
MODEL 8
REMARK VINA RESULT:      -7.8      2.507      7.371
REMARK  7 active torsions:
REMARK  status: ('A' for Active; 'I' for Inactive)
REMARK    1  A    between atoms: S_2  and  C_3 
REMARK    2  A    between atoms: C_3  and  C_4 
REMARK    3  A    between atoms: C_4  and  C_5 
REMARK    4  A    between atoms: C_5  and  N_6 
REMARK    5  A    between atoms: C_5  and  C_26 
REMARK       I    between atoms: N_6  and  C_7 
REMARK    6  A    between atoms: C_7  and  C_8 
REMARK    7  A    between atoms: C_8  and  N_9 
ROOT
HETATM    1  N   UNL     1     -42.982  60.258 -52.907  1.00  0.00    -0.348 N 
HETATM    2  C   UNL     1     -42.549  60.143 -54.212  1.00  0.00     0.236 C 
HETATM    3  O   UNL     1     -41.402  59.859 -54.529  1.00  0.00    -0.272 OA
HETATM    4  H   UNL     1     -43.811  60.832 -52.783  1.00  0.00     0.163 HD
ENDROOT
BRANCH   2   5
HETATM    5  C   UNL     1     -43.644  60.480 -55.227  1.00  0.00     0.239 C 
BRANCH   5   6
HETATM    6  N   UNL     1     -44.064  59.282 -55.925  1.00  0.00    -0.259 N 
HETATM    7  C   UNL     1     -44.563  58.171 -55.319  1.00  0.00     0.326 C 
HETATM    8  O   UNL     1     -44.757  58.012 -54.122  1.00  0.00    -0.247 OA
HETATM    9  N   UNL     1     -44.816  57.223 -56.276  1.00  0.00    -0.320 N 
HETATM   10  C   UNL     1     -44.223  57.568 -57.553  1.00  0.00     0.144 C 
HETATM   11  H   UNL     1     -45.184  56.310 -56.042  1.00  0.00     0.165 HD
HETATM   12  C   UNL     1     -45.223  57.415 -58.683  1.00  0.00    -0.014 A 
HETATM   13  C   UNL     1     -42.940  56.742 -57.770  1.00  0.00     0.047 C 
HETATM   14  C   UNL     1     -43.800  59.024 -57.246  1.00  0.00     0.261 C 
HETATM   15  C   UNL     1     -45.146  56.319 -59.571  1.00  0.00    -0.049 A 
HETATM   16  C   UNL     1     -46.266  58.346 -58.854  1.00  0.00     0.011 A 
HETATM   17  C   UNL     1     -46.074  56.203 -60.618  1.00  0.00     0.007 A 
HETATM   18  C   UNL     1     -44.040  55.292 -59.488  1.00  0.00     0.039 C 
HETATM   19  C   UNL     1     -47.085  57.146 -60.782  1.00  0.00     0.001 A 
HETATM   20  C   UNL     1     -47.183  58.215 -59.899  1.00  0.00     0.001 A 
HETATM   21  C   UNL     1     -43.283  55.310 -58.165  1.00  0.00     0.008 C 
HETATM   22  O   UNL     1     -43.238  59.785 -58.022  1.00  0.00    -0.270 OA
ENDBRANCH   5   6
ENDBRANCH   2   5
BRANCH   1  23
HETATM   23  C   UNL     1     -42.098  60.115 -51.760  1.00  0.00     0.155 C 
BRANCH  23  24
HETATM   24  C   UNL     1     -42.535  61.010 -50.588  1.00  0.00     0.043 C 
BRANCH  24  25
HETATM   25  C   UNL     1     -43.921  61.617 -50.817  1.00  0.00     0.076 C 
BRANCH  25  26
HETATM   26  S   UNL     1     -45.164  60.730 -49.822  1.00  0.00    -0.173 SA
HETATM   27  C   UNL     1     -46.128  60.018 -51.179  1.00  0.00     0.089 C 
ENDBRANCH  25  26
ENDBRANCH  24  25
ENDBRANCH  23  24
BRANCH  23  28
HETATM   28  C   UNL     1     -42.095  58.661 -51.366  1.00  0.00     0.128 A 
HETATM   29  N   UNL     1     -41.098  58.003 -50.805  1.00  0.00    -0.231 NA
HETATM   30  C   UNL     1     -41.564  56.730 -50.586  1.00  0.00     0.085 A 
HETATM   31  C   UNL     1     -42.879  56.603 -51.018  1.00  0.00     0.062 A 
HETATM   32  C   UNL     1     -40.921  55.623 -50.015  1.00  0.00     0.034 A 
HETATM   33  N   UNL     1     -43.199  57.846 -51.495  1.00  0.00    -0.341 N 
HETATM   34  C   UNL     1     -43.605  55.415 -50.925  1.00  0.00     0.032 A 
HETATM   35  H   UNL     1     -44.095  58.122 -51.876  1.00  0.00     0.167 HD
HETATM   36  C   UNL     1     -42.946  54.319 -50.356  1.00  0.00     0.002 A 
HETATM   37  C   UNL     1     -41.627  54.419 -49.905  1.00  0.00     0.002 A 
ENDBRANCH  23  28
ENDBRANCH   1  23
TORSDOF 7
ENDMDL
MODEL 9
REMARK VINA RESULT:      -7.8      2.573      7.285
REMARK  7 active torsions:
REMARK  status: ('A' for Active; 'I' for Inactive)
REMARK    1  A    between atoms: S_2  and  C_3 
REMARK    2  A    between atoms: C_3  and  C_4 
REMARK    3  A    between atoms: C_4  and  C_5 
REMARK    4  A    between atoms: C_5  and  N_6 
REMARK    5  A    between atoms: C_5  and  C_26 
REMARK       I    between atoms: N_6  and  C_7 
REMARK    6  A    between atoms: C_7  and  C_8 
REMARK    7  A    between atoms: C_8  and  N_9 
ROOT
HETATM    1  N   UNL     1     -42.330  58.365 -53.027  1.00  0.00    -0.348 N 
HETATM    2  C   UNL     1     -42.201  59.425 -53.899  1.00  0.00     0.236 C 
HETATM    3  O   UNL     1     -41.138  59.980 -54.148  1.00  0.00    -0.272 OA
HETATM    4  H   UNL     1     -43.263  58.243 -52.641  1.00  0.00     0.163 HD
ENDROOT
BRANCH   2   5
HETATM    5  C   UNL     1     -43.544  59.883 -54.473  1.00  0.00     0.239 C 
BRANCH   5   6
HETATM    6  N   UNL     1     -44.046  58.902 -55.413  1.00  0.00    -0.259 N 
HETATM    7  C   UNL     1     -44.621  57.720 -55.062  1.00  0.00     0.326 C 
HETATM    8  O   UNL     1     -44.827  57.313 -53.927  1.00  0.00    -0.247 OA
HETATM    9  N   UNL     1     -44.939  57.028 -56.201  1.00  0.00    -0.320 N 
HETATM   10  C   UNL     1     -44.323  57.608 -57.379  1.00  0.00     0.144 C 
HETATM   11  H   UNL     1     -45.370  56.114 -56.170  1.00  0.00     0.165 HD
HETATM   12  C   UNL     1     -45.331  57.779 -58.499  1.00  0.00    -0.014 A 
HETATM   13  C   UNL     1     -43.101  56.766 -57.792  1.00  0.00     0.047 C 
HETATM   14  C   UNL     1     -43.799  58.927 -56.762  1.00  0.00     0.261 C 
HETATM   15  C   UNL     1     -45.329  56.905 -59.609  1.00  0.00    -0.049 A 
HETATM   16  C   UNL     1     -46.306  58.793 -58.443  1.00  0.00     0.011 A 
HETATM   17  C   UNL     1     -46.263  57.089 -60.642  1.00  0.00     0.007 A 
HETATM   18  C   UNL     1     -44.298  55.812 -59.773  1.00  0.00     0.039 C 
HETATM   19  C   UNL     1     -47.206  58.112 -60.577  1.00  0.00     0.001 A 
HETATM   20  C   UNL     1     -47.230  58.961 -59.477  1.00  0.00     0.001 A 
HETATM   21  C   UNL     1     -43.543  55.485 -58.490  1.00  0.00     0.008 C 
HETATM   22  O   UNL     1     -43.185  59.802 -57.358  1.00  0.00    -0.270 OA
ENDBRANCH   5   6
ENDBRANCH   2   5
BRANCH   1  23
HETATM   23  C   UNL     1     -41.219  57.830 -52.254  1.00  0.00     0.155 C 
BRANCH  23  24
HETATM   24  C   UNL     1     -41.487  57.909 -50.741  1.00  0.00     0.043 C 
BRANCH  24  25
HETATM   25  C   UNL     1     -40.694  59.038 -50.077  1.00  0.00     0.076 C 
BRANCH  25  26
HETATM   26  S   UNL     1     -39.155  59.348 -51.002  1.00  0.00    -0.173 SA
HETATM   27  C   UNL     1     -38.190  60.091 -49.663  1.00  0.00     0.089 C 
ENDBRANCH  25  26
ENDBRANCH  24  25
ENDBRANCH  23  24
BRANCH  23  28
HETATM   28  C   UNL     1     -41.001  56.406 -52.696  1.00  0.00     0.128 A 
HETATM   29  N   UNL     1     -40.833  55.988 -53.936  1.00  0.00    -0.231 NA
HETATM   30  C   UNL     1     -40.624  54.634 -53.851  1.00  0.00     0.085 A 
HETATM   31  C   UNL     1     -40.659  54.210 -52.528  1.00  0.00     0.062 A 
HETATM   32  C   UNL     1     -40.391  53.695 -54.865  1.00  0.00     0.034 A 
HETATM   33  N   UNL     1     -40.884  55.355 -51.812  1.00  0.00    -0.341 N 
HETATM   34  C   UNL     1     -40.483  52.880 -52.144  1.00  0.00     0.032 A 
HETATM   35  H   UNL     1     -40.951  55.421 -50.804  1.00  0.00     0.167 HD
HETATM   36  C   UNL     1     -40.254  51.955 -53.170  1.00  0.00     0.002 A 
HETATM   37  C   UNL     1     -40.205  52.353 -54.509  1.00  0.00     0.002 A 
ENDBRANCH  23  28
ENDBRANCH   1  23
TORSDOF 7
ENDMDL
MODEL 10
REMARK VINA RESULT:      -7.7      1.750      3.135
REMARK  7 active torsions:
REMARK  status: ('A' for Active; 'I' for Inactive)
REMARK    1  A    between atoms: S_2  and  C_3 
REMARK    2  A    between atoms: C_3  and  C_4 
REMARK    3  A    between atoms: C_4  and  C_5 
REMARK    4  A    between atoms: C_5  and  N_6 
REMARK    5  A    between atoms: C_5  and  C_26 
REMARK       I    between atoms: N_6  and  C_7 
REMARK    6  A    between atoms: C_7  and  C_8 
REMARK    7  A    between atoms: C_8  and  N_9 
ROOT
HETATM    1  N   UNL     1     -44.914  59.115 -54.578  1.00  0.00    -0.348 N 
HETATM    2  C   UNL     1     -43.681  59.650 -54.266  1.00  0.00     0.236 C 
HETATM    3  O   UNL     1     -43.026  60.347 -55.029  1.00  0.00    -0.272 OA
HETATM    4  H   UNL     1     -45.171  58.294 -54.036  1.00  0.00     0.163 HD
ENDROOT
BRANCH   2   5
HETATM    5  C   UNL     1     -43.184  59.218 -52.884  1.00  0.00     0.239 C 
BRANCH   5   6
HETATM    6  N   UNL     1     -42.258  58.111 -53.009  1.00  0.00    -0.259 N 
HETATM    7  C   UNL     1     -40.930  58.243 -53.274  1.00  0.00     0.326 C 
HETATM    8  O   UNL     1     -40.311  59.288 -53.422  1.00  0.00    -0.247 OA
HETATM    9  N   UNL     1     -40.372  56.995 -53.363  1.00  0.00    -0.320 N 
HETATM   10  C   UNL     1     -41.378  55.953 -53.439  1.00  0.00     0.144 C 
HETATM   11  H   UNL     1     -39.390  56.859 -53.565  1.00  0.00     0.165 HD
HETATM   12  C   UNL     1     -41.084  54.831 -52.462  1.00  0.00    -0.014 A 
HETATM   13  C   UNL     1     -41.509  55.465 -54.895  1.00  0.00     0.047 C 
HETATM   14  C   UNL     1     -42.634  56.796 -53.110  1.00  0.00     0.261 C 
HETATM   15  C   UNL     1     -40.569  53.597 -52.917  1.00  0.00    -0.049 A 
HETATM   16  C   UNL     1     -41.291  55.005 -51.081  1.00  0.00     0.011 A 
HETATM   17  C   UNL     1     -40.315  52.567 -51.997  1.00  0.00     0.007 A 
HETATM   18  C   UNL     1     -40.350  53.306 -54.384  1.00  0.00     0.039 C 
HETATM   19  C   UNL     1     -40.547  52.753 -50.636  1.00  0.00     0.001 A 
HETATM   20  C   UNL     1     -41.031  53.972 -50.178  1.00  0.00     0.001 A 
HETATM   21  C   UNL     1     -40.345  54.552 -55.262  1.00  0.00     0.008 C 
HETATM   22  O   UNL     1     -43.781  56.375 -53.045  1.00  0.00    -0.270 OA
ENDBRANCH   5   6
ENDBRANCH   2   5
BRANCH   1  23
HETATM   23  C   UNL     1     -45.543  59.271 -55.881  1.00  0.00     0.155 C 
BRANCH  23  24
HETATM   24  C   UNL     1     -45.798  60.751 -56.217  1.00  0.00     0.043 C 
BRANCH  24  25
HETATM   25  C   UNL     1     -46.981  60.926 -57.171  1.00  0.00     0.076 C 
BRANCH  25  26
HETATM   26  S   UNL     1     -47.984  62.362 -56.667  1.00  0.00    -0.173 SA
HETATM   27  C   UNL     1     -49.617  61.700 -57.081  1.00  0.00     0.089 C 
ENDBRANCH  25  26
ENDBRANCH  24  25
ENDBRANCH  23  24
BRANCH  23  28
HETATM   28  C   UNL     1     -44.642  58.626 -56.901  1.00  0.00     0.128 A 
HETATM   29  N   UNL     1     -44.484  57.332 -57.100  1.00  0.00    -0.231 NA
HETATM   30  C   UNL     1     -43.611  57.218 -58.153  1.00  0.00     0.085 A 
HETATM   31  C   UNL     1     -43.226  58.470 -58.617  1.00  0.00     0.062 A 
HETATM   32  C   UNL     1     -43.100  56.070 -58.778  1.00  0.00     0.034 A 
HETATM   33  N   UNL     1     -43.906  59.349 -57.816  1.00  0.00    -0.341 N 
HETATM   34  C   UNL     1     -42.339  58.657 -59.678  1.00  0.00     0.032 A 
HETATM   35  H   UNL     1     -43.877  60.358 -57.885  1.00  0.00     0.167 HD
HETATM   36  C   UNL     1     -41.836  57.500 -60.287  1.00  0.00     0.002 A 
HETATM   37  C   UNL     1     -42.211  56.227 -59.848  1.00  0.00     0.002 A 
ENDBRANCH  23  28
ENDBRANCH   1  23
TORSDOF 7
ENDMDL
