MODEL 1
REMARK VINA RESULT:      -7.5      0.000      0.000
REMARK  7 active torsions:
REMARK  status: ('A' for Active; 'I' for Inactive)
REMARK    1  A    between atoms: C_2  and  C_3 
REMARK    2  A    between atoms: C_3  and  N_4 
REMARK       I    between atoms: N_4  and  C_5 
REMARK    3  A    between atoms: C_5  and  C_6 
REMARK    4  A    between atoms: C_7  and  N_8 
REMARK       I    between atoms: N_8  and  C_9 
REMARK    5  A    between atoms: C_9  and  C_10 
REMARK    6  A    between atoms: C_12  and  O_13 
REMARK    7  A    between atoms: O_13  and  C_14 
ROOT
HETATM    1  N   UNL     1     -40.537  53.818 -53.940  1.00  0.00    -0.322 N 
HETATM    2  C   UNL     1     -41.806  54.373 -53.958  1.00  0.00     0.256 C 
HETATM    3  O   UNL     1     -42.809  53.882 -53.452  1.00  0.00    -0.267 OA
HETATM    4  H   UNL     1     -39.764  54.470 -53.972  1.00  0.00     0.169 HD
ENDROOT
BRANCH   1   5
HETATM    5  C   UNL     1     -40.255  52.517 -53.465  1.00  0.00     0.050 A 
HETATM    6  C   UNL     1     -39.892  52.201 -52.144  1.00  0.00     0.058 A 
HETATM    7  C   UNL     1     -39.547  50.882 -51.804  1.00  0.00     0.019 A 
HETATM    8  C   UNL     1     -39.580  49.874 -52.767  1.00  0.00     0.001 A 
HETATM    9  C   UNL     1     -39.989  50.171 -54.064  1.00  0.00     0.002 A 
HETATM   10  C   UNL     1     -40.336  51.481 -54.408  1.00  0.00     0.030 A 
BRANCH   6  11
HETATM   11  C   UNL     1     -40.051  53.158 -51.018  1.00  0.00     0.254 C 
HETATM   12  N   UNL     1     -41.358  53.454 -50.689  1.00  0.00    -0.353 N 
HETATM   13  H   UNL     1     -42.056  52.779 -50.971  1.00  0.00     0.163 HD
HETATM   14  O   UNL     1     -39.067  53.652 -50.480  1.00  0.00    -0.268 OA
BRANCH  12  15
HETATM   15  C   UNL     1     -41.637  54.281 -49.545  1.00  0.00     0.149 C 
BRANCH  15  16
HETATM   16  C   UNL     1     -41.949  55.659 -50.036  1.00  0.00    -0.018 C 
HETATM   17  C   UNL     1     -43.080  56.008 -50.662  1.00  0.00     0.008 C 
ENDBRANCH  15  16
ENDBRANCH  12  15
ENDBRANCH   6  11
ENDBRANCH   1   5
BRANCH   2  18
HETATM   18  C   UNL     1     -41.883  55.739 -54.533  1.00  0.00     0.037 A 
HETATM   19  C   UNL     1     -41.514  56.817 -53.731  1.00  0.00     0.075 A 
HETATM   20  C   UNL     1     -41.595  58.080 -54.279  1.00  0.00     0.165 A 
HETATM   21  N   UNL     1     -42.002  58.334 -55.540  1.00  0.00    -0.237 NA
HETATM   22  C   UNL     1     -42.369  57.270 -56.287  1.00  0.00     0.120 A 
HETATM   23  C   UNL     1     -42.330  55.963 -55.836  1.00  0.00     0.036 A 
BRANCH  20  24
HETATM   24  O   UNL     1     -41.218  59.130 -53.465  1.00  0.00    -0.329 OA
BRANCH  24  25
HETATM   25  C   UNL     1     -41.124  58.841 -52.055  1.00  0.00     0.130 C 
HETATM   26  C   UNL     1     -39.763  59.139 -51.369  1.00  0.00     0.032 C 
HETATM   27  C   UNL     1     -40.553  59.691 -50.170  1.00  0.00     0.005 C 
HETATM   28  C   UNL     1     -41.726  59.934 -51.134  1.00  0.00     0.032 C 
ENDBRANCH  24  25
ENDBRANCH  20  24
ENDBRANCH   2  18
TORSDOF 7
ENDMDL
MODEL 2
REMARK VINA RESULT:      -7.3      1.783      3.999
REMARK  7 active torsions:
REMARK  status: ('A' for Active; 'I' for Inactive)
REMARK    1  A    between atoms: C_2  and  C_3 
REMARK    2  A    between atoms: C_3  and  N_4 
REMARK       I    between atoms: N_4  and  C_5 
REMARK    3  A    between atoms: C_5  and  C_6 
REMARK    4  A    between atoms: C_7  and  N_8 
REMARK       I    between atoms: N_8  and  C_9 
REMARK    5  A    between atoms: C_9  and  C_10 
REMARK    6  A    between atoms: C_12  and  O_13 
REMARK    7  A    between atoms: O_13  and  C_14 
ROOT
HETATM    1  N   UNL     1     -40.608  53.975 -53.993  1.00  0.00    -0.322 N 
HETATM    2  C   UNL     1     -41.880  54.523 -54.000  1.00  0.00     0.256 C 
HETATM    3  O   UNL     1     -42.875  54.025 -53.485  1.00  0.00    -0.267 OA
HETATM    4  H   UNL     1     -39.839  54.632 -54.032  1.00  0.00     0.169 HD
ENDROOT
BRANCH   1   5
HETATM    5  C   UNL     1     -40.313  52.676 -53.520  1.00  0.00     0.050 A 
HETATM    6  C   UNL     1     -39.972  52.358 -52.194  1.00  0.00     0.058 A 
HETATM    7  C   UNL     1     -39.612  51.042 -51.855  1.00  0.00     0.019 A 
HETATM    8  C   UNL     1     -39.609  50.040 -52.824  1.00  0.00     0.001 A 
HETATM    9  C   UNL     1     -39.997  50.338 -54.127  1.00  0.00     0.002 A 
HETATM   10  C   UNL     1     -40.359  51.644 -54.471  1.00  0.00     0.030 A 
BRANCH   6  11
HETATM   11  C   UNL     1     -40.169  53.305 -51.067  1.00  0.00     0.254 C 
HETATM   12  N   UNL     1     -41.485  53.620 -50.796  1.00  0.00    -0.353 N 
HETATM   13  H   UNL     1     -42.179  52.959 -51.118  1.00  0.00     0.163 HD
HETATM   14  O   UNL     1     -39.203  53.777 -50.477  1.00  0.00    -0.268 OA
BRANCH  12  15
HETATM   15  C   UNL     1     -41.804  54.438 -49.657  1.00  0.00     0.149 C 
BRANCH  15  16
HETATM   16  C   UNL     1     -42.075  55.825 -50.147  1.00  0.00    -0.018 C 
HETATM   17  C   UNL     1     -41.159  56.799 -50.229  1.00  0.00     0.008 C 
ENDBRANCH  15  16
ENDBRANCH  12  15
ENDBRANCH   6  11
ENDBRANCH   1   5
BRANCH   2  18
HETATM   18  C   UNL     1     -41.970  55.888 -54.575  1.00  0.00     0.037 A 
HETATM   19  C   UNL     1     -42.265  56.017 -55.930  1.00  0.00     0.075 A 
HETATM   20  C   UNL     1     -42.342  57.292 -56.451  1.00  0.00     0.165 A 
HETATM   21  N   UNL     1     -42.156  58.417 -55.728  1.00  0.00    -0.237 NA
HETATM   22  C   UNL     1     -41.854  58.258 -54.422  1.00  0.00     0.120 A 
HETATM   23  C   UNL     1     -41.749  57.027 -53.799  1.00  0.00     0.036 A 
BRANCH  20  24
HETATM   24  O   UNL     1     -42.643  57.393 -57.795  1.00  0.00    -0.329 OA
BRANCH  24  25
HETATM   25  C   UNL     1     -43.452  56.333 -58.346  1.00  0.00     0.130 C 
HETATM   26  C   UNL     1     -44.704  56.762 -59.159  1.00  0.00     0.032 C 
HETATM   27  C   UNL     1     -44.363  55.648 -60.164  1.00  0.00     0.005 C 
HETATM   28  C   UNL     1     -42.909  55.734 -59.670  1.00  0.00     0.032 C 
ENDBRANCH  24  25
ENDBRANCH  20  24
ENDBRANCH   2  18
TORSDOF 7
ENDMDL
MODEL 3
REMARK VINA RESULT:      -7.1      2.818      4.950
REMARK  7 active torsions:
REMARK  status: ('A' for Active; 'I' for Inactive)
REMARK    1  A    between atoms: C_2  and  C_3 
REMARK    2  A    between atoms: C_3  and  N_4 
REMARK       I    between atoms: N_4  and  C_5 
REMARK    3  A    between atoms: C_5  and  C_6 
REMARK    4  A    between atoms: C_7  and  N_8 
REMARK       I    between atoms: N_8  and  C_9 
REMARK    5  A    between atoms: C_9  and  C_10 
REMARK    6  A    between atoms: C_12  and  O_13 
REMARK    7  A    between atoms: O_13  and  C_14 
ROOT
HETATM    1  N   UNL     1     -41.046  54.513 -54.623  1.00  0.00    -0.322 N 
HETATM    2  C   UNL     1     -42.283  54.551 -55.244  1.00  0.00     0.256 C 
HETATM    3  O   UNL     1     -43.202  53.761 -55.056  1.00  0.00    -0.267 OA
HETATM    4  H   UNL     1     -40.576  55.402 -54.509  1.00  0.00     0.169 HD
ENDROOT
BRANCH   1   5
HETATM    5  C   UNL     1     -40.614  53.452 -53.794  1.00  0.00     0.050 A 
HETATM    6  C   UNL     1     -40.667  53.453 -52.390  1.00  0.00     0.058 A 
HETATM    7  C   UNL     1     -40.126  52.377 -51.664  1.00  0.00     0.019 A 
HETATM    8  C   UNL     1     -39.552  51.295 -52.329  1.00  0.00     0.001 A 
HETATM    9  C   UNL     1     -39.545  51.265 -53.721  1.00  0.00     0.002 A 
HETATM   10  C   UNL     1     -40.083  52.330 -54.449  1.00  0.00     0.030 A 
BRANCH   6  11
HETATM   11  C   UNL     1     -41.457  54.447 -51.618  1.00  0.00     0.254 C 
HETATM   12  N   UNL     1     -40.738  55.155 -50.677  1.00  0.00    -0.353 N 
HETATM   13  H   UNL     1     -39.738  55.202 -50.818  1.00  0.00     0.163 HD
HETATM   14  O   UNL     1     -42.662  54.566 -51.810  1.00  0.00    -0.268 OA
BRANCH  12  15
HETATM   15  C   UNL     1     -41.371  56.221 -49.948  1.00  0.00     0.149 C 
BRANCH  15  16
HETATM   16  C   UNL     1     -41.064  57.506 -50.649  1.00  0.00    -0.018 C 
HETATM   17  C   UNL     1     -41.936  58.194 -51.398  1.00  0.00     0.008 C 
ENDBRANCH  15  16
ENDBRANCH  12  15
ENDBRANCH   6  11
ENDBRANCH   1   5
BRANCH   2  18
HETATM   18  C   UNL     1     -42.517  55.741 -56.100  1.00  0.00     0.037 A 
HETATM   19  C   UNL     1     -42.983  55.541 -57.397  1.00  0.00     0.075 A 
HETATM   20  C   UNL     1     -43.193  56.656 -58.182  1.00  0.00     0.165 A 
HETATM   21  N   UNL     1     -42.981  57.923 -57.769  1.00  0.00    -0.237 NA
HETATM   22  C   UNL     1     -42.512  58.083 -56.512  1.00  0.00     0.120 A 
HETATM   23  C   UNL     1     -42.265  57.035 -55.643  1.00  0.00     0.036 A 
BRANCH  20  24
HETATM   24  O   UNL     1     -43.661  56.431 -59.461  1.00  0.00    -0.329 OA
BRANCH  24  25
HETATM   25  C   UNL     1     -45.000  55.903 -59.564  1.00  0.00     0.130 C 
HETATM   26  C   UNL     1     -46.161  56.935 -59.549  1.00  0.00     0.032 C 
HETATM   27  C   UNL     1     -46.838  56.106 -60.654  1.00  0.00     0.005 C 
HETATM   28  C   UNL     1     -45.445  55.560 -61.010  1.00  0.00     0.032 C 
ENDBRANCH  24  25
ENDBRANCH  20  24
ENDBRANCH   2  18
TORSDOF 7
ENDMDL
MODEL 4
REMARK VINA RESULT:      -6.8      2.227      7.545
REMARK  7 active torsions:
REMARK  status: ('A' for Active; 'I' for Inactive)
REMARK    1  A    between atoms: C_2  and  C_3 
REMARK    2  A    between atoms: C_3  and  N_4 
REMARK       I    between atoms: N_4  and  C_5 
REMARK    3  A    between atoms: C_5  and  C_6 
REMARK    4  A    between atoms: C_7  and  N_8 
REMARK       I    between atoms: N_8  and  C_9 
REMARK    5  A    between atoms: C_9  and  C_10 
REMARK    6  A    between atoms: C_12  and  O_13 
REMARK    7  A    between atoms: O_13  and  C_14 
ROOT
HETATM    1  N   UNL     1     -43.030  56.219 -52.001  1.00  0.00    -0.322 N 
HETATM    2  C   UNL     1     -41.782  56.364 -51.420  1.00  0.00     0.256 C 
HETATM    3  O   UNL     1     -41.177  57.421 -51.280  1.00  0.00    -0.267 OA
HETATM    4  H   UNL     1     -43.590  55.444 -51.670  1.00  0.00     0.169 HD
ENDROOT
BRANCH   1   5
HETATM    5  C   UNL     1     -43.716  57.264 -52.663  1.00  0.00     0.050 A 
HETATM    6  C   UNL     1     -43.536  57.620 -54.011  1.00  0.00     0.058 A 
HETATM    7  C   UNL     1     -44.208  58.735 -54.540  1.00  0.00     0.019 A 
HETATM    8  C   UNL     1     -45.071  59.484 -53.742  1.00  0.00     0.001 A 
HETATM    9  C   UNL     1     -45.293  59.104 -52.421  1.00  0.00     0.002 A 
HETATM   10  C   UNL     1     -44.630  57.994 -51.888  1.00  0.00     0.030 A 
BRANCH   6  11
HETATM   11  C   UNL     1     -42.821  56.751 -54.981  1.00  0.00     0.254 C 
HETATM   12  N   UNL     1     -43.598  56.278 -56.018  1.00  0.00    -0.353 N 
HETATM   13  H   UNL     1     -44.435  56.804 -56.228  1.00  0.00     0.163 HD
HETATM   14  O   UNL     1     -41.640  56.472 -54.810  1.00  0.00    -0.268 OA
BRANCH  12  15
HETATM   15  C   UNL     1     -42.990  55.519 -57.078  1.00  0.00     0.149 C 
BRANCH  15  16
HETATM   16  C   UNL     1     -43.165  56.283 -58.352  1.00  0.00    -0.018 C 
HETATM   17  C   UNL     1     -42.828  55.830 -59.567  1.00  0.00     0.008 C 
ENDBRANCH  15  16
ENDBRANCH  12  15
ENDBRANCH   6  11
ENDBRANCH   1   5
BRANCH   2  18
HETATM   18  C   UNL     1     -41.228  55.129 -50.810  1.00  0.00     0.037 A 
HETATM   19  C   UNL     1     -40.559  54.227 -51.634  1.00  0.00     0.075 A 
HETATM   20  C   UNL     1     -40.054  53.083 -51.054  1.00  0.00     0.165 A 
HETATM   21  N   UNL     1     -40.161  52.789 -49.741  1.00  0.00    -0.237 NA
HETATM   22  C   UNL     1     -40.830  53.675 -48.972  1.00  0.00     0.120 A 
HETATM   23  C   UNL     1     -41.379  54.850 -49.451  1.00  0.00     0.036 A 
BRANCH  20  24
HETATM   24  O   UNL     1     -39.389  52.208 -51.891  1.00  0.00    -0.329 OA
BRANCH  24  25
HETATM   25  C   UNL     1     -40.218  51.371 -52.723  1.00  0.00     0.130 C 
HETATM   26  C   UNL     1     -40.099  51.575 -54.258  1.00  0.00     0.032 C 
HETATM   27  C   UNL     1     -40.160  50.045 -54.410  1.00  0.00     0.005 C 
HETATM   28  C   UNL     1     -39.657  49.945 -52.960  1.00  0.00     0.032 C 
ENDBRANCH  24  25
ENDBRANCH  20  24
ENDBRANCH   2  18
TORSDOF 7
ENDMDL
MODEL 5
REMARK VINA RESULT:      -6.8      2.502      4.264
REMARK  7 active torsions:
REMARK  status: ('A' for Active; 'I' for Inactive)
REMARK    1  A    between atoms: C_2  and  C_3 
REMARK    2  A    between atoms: C_3  and  N_4 
REMARK       I    between atoms: N_4  and  C_5 
REMARK    3  A    between atoms: C_5  and  C_6 
REMARK    4  A    between atoms: C_7  and  N_8 
REMARK       I    between atoms: N_8  and  C_9 
REMARK    5  A    between atoms: C_9  and  C_10 
REMARK    6  A    between atoms: C_12  and  O_13 
REMARK    7  A    between atoms: O_13  and  C_14 
ROOT
HETATM    1  N   UNL     1     -42.125  54.079 -54.268  1.00  0.00    -0.322 N 
HETATM    2  C   UNL     1     -41.727  55.356 -54.629  1.00  0.00     0.256 C 
HETATM    3  O   UNL     1     -40.580  55.788 -54.580  1.00  0.00    -0.267 OA
HETATM    4  H   UNL     1     -42.937  53.712 -54.748  1.00  0.00     0.169 HD
ENDROOT
BRANCH   1   5
HETATM    5  C   UNL     1     -41.277  53.139 -53.640  1.00  0.00     0.050 A 
HETATM    6  C   UNL     1     -40.884  53.182 -52.291  1.00  0.00     0.058 A 
HETATM    7  C   UNL     1     -39.964  52.242 -51.794  1.00  0.00     0.019 A 
HETATM    8  C   UNL     1     -39.450  51.250 -52.628  1.00  0.00     0.001 A 
HETATM    9  C   UNL     1     -39.876  51.171 -53.951  1.00  0.00     0.002 A 
HETATM   10  C   UNL     1     -40.793  52.101 -54.450  1.00  0.00     0.030 A 
BRANCH   6  11
HETATM   11  C   UNL     1     -41.550  54.054 -51.289  1.00  0.00     0.254 C 
HETATM   12  N   UNL     1     -40.730  54.995 -50.702  1.00  0.00    -0.353 N 
HETATM   13  H   UNL     1     -39.894  55.244 -51.214  1.00  0.00     0.163 HD
HETATM   14  O   UNL     1     -42.732  53.887 -51.010  1.00  0.00    -0.268 OA
BRANCH  12  15
HETATM   15  C   UNL     1     -41.288  55.967 -49.800  1.00  0.00     0.149 C 
BRANCH  15  16
HETATM   16  C   UNL     1     -41.710  57.155 -50.605  1.00  0.00    -0.018 C 
HETATM   17  C   UNL     1     -41.002  57.686 -51.611  1.00  0.00     0.008 C 
ENDBRANCH  15  16
ENDBRANCH  12  15
ENDBRANCH   6  11
ENDBRANCH   1   5
BRANCH   2  18
HETATM   18  C   UNL     1     -42.788  56.192 -55.243  1.00  0.00     0.037 A 
HETATM   19  C   UNL     1     -42.767  56.380 -56.623  1.00  0.00     0.075 A 
HETATM   20  C   UNL     1     -43.758  57.163 -57.178  1.00  0.00     0.165 A 
HETATM   21  N   UNL     1     -44.745  57.750 -56.470  1.00  0.00    -0.237 NA
HETATM   22  C   UNL     1     -44.728  57.563 -55.132  1.00  0.00     0.120 A 
HETATM   23  C   UNL     1     -43.781  56.800 -54.473  1.00  0.00     0.036 A 
BRANCH  20  24
HETATM   24  O   UNL     1     -43.718  57.327 -58.549  1.00  0.00    -0.329 OA
BRANCH  24  25
HETATM   25  C   UNL     1     -42.734  58.256 -59.049  1.00  0.00     0.130 C 
HETATM   26  C   UNL     1     -41.759  57.723 -60.134  1.00  0.00     0.032 C 
HETATM   27  C   UNL     1     -41.918  59.071 -60.859  1.00  0.00     0.005 C 
HETATM   28  C   UNL     1     -43.264  59.231 -60.133  1.00  0.00     0.032 C 
ENDBRANCH  24  25
ENDBRANCH  20  24
ENDBRANCH   2  18
TORSDOF 7
ENDMDL
MODEL 6
REMARK VINA RESULT:      -6.8      2.390      5.383
REMARK  7 active torsions:
REMARK  status: ('A' for Active; 'I' for Inactive)
REMARK    1  A    between atoms: C_2  and  C_3 
REMARK    2  A    between atoms: C_3  and  N_4 
REMARK       I    between atoms: N_4  and  C_5 
REMARK    3  A    between atoms: C_5  and  C_6 
REMARK    4  A    between atoms: C_7  and  N_8 
REMARK       I    between atoms: N_8  and  C_9 
REMARK    5  A    between atoms: C_9  and  C_10 
REMARK    6  A    between atoms: C_12  and  O_13 
REMARK    7  A    between atoms: O_13  and  C_14 
ROOT
HETATM    1  N   UNL     1     -41.862  56.101 -52.387  1.00  0.00    -0.322 N 
HETATM    2  C   UNL     1     -43.104  55.876 -52.957  1.00  0.00     0.256 C 
HETATM    3  O   UNL     1     -43.920  55.039 -52.585  1.00  0.00    -0.267 OA
HETATM    4  H   UNL     1     -41.499  57.043 -52.464  1.00  0.00     0.169 HD
ENDROOT
BRANCH   1   5
HETATM    5  C   UNL     1     -41.295  55.280 -51.386  1.00  0.00     0.050 A 
HETATM    6  C   UNL     1     -40.737  54.009 -51.605  1.00  0.00     0.058 A 
HETATM    7  C   UNL     1     -40.282  53.242 -50.518  1.00  0.00     0.019 A 
HETATM    8  C   UNL     1     -40.362  53.742 -49.220  1.00  0.00     0.001 A 
HETATM    9  C   UNL     1     -40.864  55.022 -49.002  1.00  0.00     0.002 A 
HETATM   10  C   UNL     1     -41.317  55.791 -50.078  1.00  0.00     0.030 A 
BRANCH   6  11
HETATM   11  C   UNL     1     -40.408  53.501 -52.962  1.00  0.00     0.254 C 
HETATM   12  N   UNL     1     -40.313  52.128 -53.060  1.00  0.00    -0.353 N 
HETATM   13  H   UNL     1     -40.791  51.593 -52.348  1.00  0.00     0.163 HD
HETATM   14  O   UNL     1     -40.206  54.283 -53.884  1.00  0.00    -0.268 OA
BRANCH  12  15
HETATM   15  C   UNL     1     -40.110  51.516 -54.346  1.00  0.00     0.149 C 
BRANCH  15  16
HETATM   16  C   UNL     1     -39.959  50.043 -54.138  1.00  0.00    -0.018 C 
HETATM   17  C   UNL     1     -39.590  49.468 -52.986  1.00  0.00     0.008 C 
ENDBRANCH  15  16
ENDBRANCH  12  15
ENDBRANCH   6  11
ENDBRANCH   1   5
BRANCH   2  18
HETATM   18  C   UNL     1     -43.490  56.840 -54.017  1.00  0.00     0.037 A 
HETATM   19  C   UNL     1     -42.957  56.668 -55.293  1.00  0.00     0.075 A 
HETATM   20  C   UNL     1     -43.323  57.574 -56.267  1.00  0.00     0.165 A 
HETATM   21  N   UNL     1     -44.166  58.607 -56.061  1.00  0.00    -0.237 NA
HETATM   22  C   UNL     1     -44.652  58.757 -54.810  1.00  0.00     0.120 A 
HETATM   23  C   UNL     1     -44.349  57.909 -53.760  1.00  0.00     0.036 A 
BRANCH  20  24
HETATM   24  O   UNL     1     -42.786  57.378 -57.524  1.00  0.00    -0.329 OA
BRANCH  24  25
HETATM   25  C   UNL     1     -43.346  56.292 -58.292  1.00  0.00     0.130 C 
HETATM   26  C   UNL     1     -44.629  56.604 -59.110  1.00  0.00     0.032 C 
HETATM   27  C   UNL     1     -44.035  55.765 -60.254  1.00  0.00     0.005 C 
HETATM   28  C   UNL     1     -42.647  56.043 -59.654  1.00  0.00     0.032 C 
ENDBRANCH  24  25
ENDBRANCH  20  24
ENDBRANCH   2  18
TORSDOF 7
ENDMDL
MODEL 7
REMARK VINA RESULT:      -6.6      2.789      6.178
REMARK  7 active torsions:
REMARK  status: ('A' for Active; 'I' for Inactive)
REMARK    1  A    between atoms: C_2  and  C_3 
REMARK    2  A    between atoms: C_3  and  N_4 
REMARK       I    between atoms: N_4  and  C_5 
REMARK    3  A    between atoms: C_5  and  C_6 
REMARK    4  A    between atoms: C_7  and  N_8 
REMARK       I    between atoms: N_8  and  C_9 
REMARK    5  A    between atoms: C_9  and  C_10 
REMARK    6  A    between atoms: C_12  and  O_13 
REMARK    7  A    between atoms: O_13  and  C_14 
ROOT
HETATM    1  N   UNL     1     -43.156  56.603 -54.423  1.00  0.00    -0.322 N 
HETATM    2  C   UNL     1     -42.228  57.583 -54.729  1.00  0.00     0.256 C 
HETATM    3  O   UNL     1     -41.251  57.880 -54.050  1.00  0.00    -0.267 OA
HETATM    4  H   UNL     1     -43.613  56.159 -55.210  1.00  0.00     0.169 HD
ENDROOT
BRANCH   1   5
HETATM    5  C   UNL     1     -43.191  55.909 -53.192  1.00  0.00     0.050 A 
HETATM    6  C   UNL     1     -42.744  54.591 -52.995  1.00  0.00     0.058 A 
HETATM    7  C   UNL     1     -42.910  53.970 -51.744  1.00  0.00     0.019 A 
HETATM    8  C   UNL     1     -43.499  54.661 -50.687  1.00  0.00     0.001 A 
HETATM    9  C   UNL     1     -43.896  55.984 -50.861  1.00  0.00     0.002 A 
HETATM   10  C   UNL     1     -43.732  56.608 -52.101  1.00  0.00     0.030 A 
BRANCH   6  11
HETATM   11  C   UNL     1     -41.908  53.872 -53.990  1.00  0.00     0.254 C 
HETATM   12  N   UNL     1     -40.867  53.142 -53.453  1.00  0.00    -0.353 N 
HETATM   13  H   UNL     1     -40.958  52.877 -52.482  1.00  0.00     0.163 HD
HETATM   14  O   UNL     1     -42.139  53.980 -55.189  1.00  0.00    -0.268 OA
BRANCH  12  15
HETATM   15  C   UNL     1     -40.058  52.316 -54.309  1.00  0.00     0.149 C 
BRANCH  15  16
HETATM   16  C   UNL     1     -40.316  50.887 -53.949  1.00  0.00    -0.018 C 
HETATM   17  C   UNL     1     -39.654  49.840 -54.459  1.00  0.00     0.008 C 
ENDBRANCH  15  16
ENDBRANCH  12  15
ENDBRANCH   6  11
ENDBRANCH   1   5
BRANCH   2  18
HETATM   18  C   UNL     1     -42.395  58.209 -56.065  1.00  0.00     0.037 A 
HETATM   19  C   UNL     1     -42.684  57.385 -57.150  1.00  0.00     0.075 A 
HETATM   20  C   UNL     1     -42.833  57.981 -58.385  1.00  0.00     0.165 A 
HETATM   21  N   UNL     1     -42.722  59.309 -58.603  1.00  0.00    -0.237 NA
HETATM   22  C   UNL     1     -42.425  60.078 -57.534  1.00  0.00     0.120 A 
HETATM   23  C   UNL     1     -42.252  59.584 -56.253  1.00  0.00     0.036 A 
BRANCH  20  24
HETATM   24  O   UNL     1     -43.126  57.144 -59.443  1.00  0.00    -0.329 OA
BRANCH  24  25
HETATM   25  C   UNL     1     -44.338  56.370 -59.324  1.00  0.00     0.130 C 
HETATM   26  C   UNL     1     -45.672  57.114 -59.603  1.00  0.00     0.032 C 
HETATM   27  C   UNL     1     -46.148  55.861 -60.358  1.00  0.00     0.005 C 
HETATM   28  C   UNL     1     -44.668  55.501 -60.566  1.00  0.00     0.032 C 
ENDBRANCH  24  25
ENDBRANCH  20  24
ENDBRANCH   2  18
TORSDOF 7
ENDMDL
MODEL 8
REMARK VINA RESULT:      -6.6      1.650      2.168
REMARK  7 active torsions:
REMARK  status: ('A' for Active; 'I' for Inactive)
REMARK    1  A    between atoms: C_2  and  C_3 
REMARK    2  A    between atoms: C_3  and  N_4 
REMARK       I    between atoms: N_4  and  C_5 
REMARK    3  A    between atoms: C_5  and  C_6 
REMARK    4  A    between atoms: C_7  and  N_8 
REMARK       I    between atoms: N_8  and  C_9 
REMARK    5  A    between atoms: C_9  and  C_10 
REMARK    6  A    between atoms: C_12  and  O_13 
REMARK    7  A    between atoms: O_13  and  C_14 
ROOT
HETATM    1  N   UNL     1     -40.869  54.511 -54.265  1.00  0.00    -0.322 N 
HETATM    2  C   UNL     1     -42.114  54.683 -54.846  1.00  0.00     0.256 C 
HETATM    3  O   UNL     1     -43.081  53.944 -54.697  1.00  0.00    -0.267 OA
HETATM    4  H   UNL     1     -40.336  55.354 -54.092  1.00  0.00     0.169 HD
ENDROOT
BRANCH   1   5
HETATM    5  C   UNL     1     -40.493  53.358 -53.537  1.00  0.00     0.050 A 
HETATM    6  C   UNL     1     -40.598  53.215 -52.143  1.00  0.00     0.058 A 
HETATM    7  C   UNL     1     -40.110  52.055 -51.515  1.00  0.00     0.019 A 
HETATM    8  C   UNL     1     -39.538  51.033 -52.270  1.00  0.00     0.001 A 
HETATM    9  C   UNL     1     -39.479  51.147 -53.656  1.00  0.00     0.002 A 
HETATM   10  C   UNL     1     -39.965  52.296 -54.287  1.00  0.00     0.030 A 
BRANCH   6  11
HETATM   11  C   UNL     1     -41.392  54.145 -51.299  1.00  0.00     0.254 C 
HETATM   12  N   UNL     1     -40.649  55.078 -50.606  1.00  0.00    -0.353 N 
HETATM   13  H   UNL     1     -39.728  55.280 -50.972  1.00  0.00     0.163 HD
HETATM   14  O   UNL     1     -42.610  54.028 -51.225  1.00  0.00    -0.268 OA
BRANCH  12  15
HETATM   15  C   UNL     1     -41.315  56.100 -49.845  1.00  0.00     0.149 C 
BRANCH  15  16
HETATM   16  C   UNL     1     -41.364  57.340 -50.679  1.00  0.00    -0.018 C 
HETATM   17  C   UNL     1     -42.447  57.777 -51.335  1.00  0.00     0.008 C 
ENDBRANCH  15  16
ENDBRANCH  12  15
ENDBRANCH   6  11
ENDBRANCH   1   5
BRANCH   2  18
HETATM   18  C   UNL     1     -42.284  55.953 -55.596  1.00  0.00     0.037 A 
HETATM   19  C   UNL     1     -41.899  57.142 -54.981  1.00  0.00     0.075 A 
HETATM   20  C   UNL     1     -42.067  58.313 -55.689  1.00  0.00     0.165 A 
HETATM   21  N   UNL     1     -42.574  58.376 -56.938  1.00  0.00    -0.237 NA
HETATM   22  C   UNL     1     -42.955  57.209 -57.500  1.00  0.00     0.120 A 
HETATM   23  C   UNL     1     -42.833  55.979 -56.879  1.00  0.00     0.036 A 
BRANCH  20  24
HETATM   24  O   UNL     1     -41.670  59.477 -55.060  1.00  0.00    -0.329 OA
BRANCH  24  25
HETATM   25  C   UNL     1     -42.724  60.389 -54.687  1.00  0.00     0.130 C 
HETATM   26  C   UNL     1     -44.032  59.757 -54.139  1.00  0.00     0.032 C 
HETATM   27  C   UNL     1     -44.071  60.881 -53.091  1.00  0.00     0.005 C 
HETATM   28  C   UNL     1     -42.552  61.027 -53.283  1.00  0.00     0.032 C 
ENDBRANCH  24  25
ENDBRANCH  20  24
ENDBRANCH   2  18
TORSDOF 7
ENDMDL
MODEL 9
REMARK VINA RESULT:      -6.4      2.117      2.689
REMARK  7 active torsions:
REMARK  status: ('A' for Active; 'I' for Inactive)
REMARK    1  A    between atoms: C_2  and  C_3 
REMARK    2  A    between atoms: C_3  and  N_4 
REMARK       I    between atoms: N_4  and  C_5 
REMARK    3  A    between atoms: C_5  and  C_6 
REMARK    4  A    between atoms: C_7  and  N_8 
REMARK       I    between atoms: N_8  and  C_9 
REMARK    5  A    between atoms: C_9  and  C_10 
REMARK    6  A    between atoms: C_12  and  O_13 
REMARK    7  A    between atoms: O_13  and  C_14 
ROOT
HETATM    1  N   UNL     1     -41.670  53.719 -54.455  1.00  0.00    -0.322 N 
HETATM    2  C   UNL     1     -41.125  54.900 -54.930  1.00  0.00     0.256 C 
HETATM    3  O   UNL     1     -39.934  55.189 -54.929  1.00  0.00    -0.267 OA
HETATM    4  H   UNL     1     -42.529  53.414 -54.895  1.00  0.00     0.169 HD
ENDROOT
BRANCH   1   5
HETATM    5  C   UNL     1     -40.933  52.739 -53.752  1.00  0.00     0.050 A 
HETATM    6  C   UNL     1     -40.640  52.782 -52.378  1.00  0.00     0.058 A 
HETATM    7  C   UNL     1     -39.821  51.796 -51.801  1.00  0.00     0.019 A 
HETATM    8  C   UNL     1     -39.309  50.759 -52.580  1.00  0.00     0.001 A 
HETATM    9  C   UNL     1     -39.640  50.683 -53.930  1.00  0.00     0.002 A 
HETATM   10  C   UNL     1     -40.456  51.658 -54.510  1.00  0.00     0.030 A 
BRANCH   6  11
HETATM   11  C   UNL     1     -41.323  53.711 -51.441  1.00  0.00     0.254 C 
HETATM   12  N   UNL     1     -40.478  54.441 -50.630  1.00  0.00    -0.353 N 
HETATM   13  H   UNL     1     -39.527  54.550 -50.954  1.00  0.00     0.163 HD
HETATM   14  O   UNL     1     -42.547  53.763 -51.401  1.00  0.00    -0.268 OA
BRANCH  12  15
HETATM   15  C   UNL     1     -41.020  55.453 -49.762  1.00  0.00     0.149 C 
BRANCH  15  16
HETATM   16  C   UNL     1     -40.927  54.953 -48.356  1.00  0.00    -0.018 C 
HETATM   17  C   UNL     1     -40.377  53.786 -47.994  1.00  0.00     0.008 C 
ENDBRANCH  15  16
ENDBRANCH  12  15
ENDBRANCH   6  11
ENDBRANCH   1   5
BRANCH   2  18
HETATM   18  C   UNL     1     -42.087  55.804 -55.609  1.00  0.00     0.037 A 
HETATM   19  C   UNL     1     -42.367  57.034 -55.019  1.00  0.00     0.075 A 
HETATM   20  C   UNL     1     -43.265  57.863 -55.660  1.00  0.00     0.165 A 
HETATM   21  N   UNL     1     -43.882  57.557 -56.820  1.00  0.00    -0.237 NA
HETATM   22  C   UNL     1     -43.603  56.350 -57.358  1.00  0.00     0.120 A 
HETATM   23  C   UNL     1     -42.721  55.442 -56.798  1.00  0.00     0.036 A 
BRANCH  20  24
HETATM   24  O   UNL     1     -43.520  59.079 -55.058  1.00  0.00    -0.329 OA
BRANCH  24  25
HETATM   25  C   UNL     1     -44.720  59.155 -54.260  1.00  0.00     0.130 C 
HETATM   26  C   UNL     1     -44.530  59.332 -52.729  1.00  0.00     0.032 C 
HETATM   27  C   UNL     1     -45.701  60.330 -52.756  1.00  0.00     0.005 C 
HETATM   28  C   UNL     1     -45.395  60.551 -54.247  1.00  0.00     0.032 C 
ENDBRANCH  24  25
ENDBRANCH  20  24
ENDBRANCH   2  18
TORSDOF 7
ENDMDL
MODEL 10
REMARK VINA RESULT:      -6.4      1.755      5.979
REMARK  7 active torsions:
REMARK  status: ('A' for Active; 'I' for Inactive)
REMARK    1  A    between atoms: C_2  and  C_3 
REMARK    2  A    between atoms: C_3  and  N_4 
REMARK       I    between atoms: N_4  and  C_5 
REMARK    3  A    between atoms: C_5  and  C_6 
REMARK    4  A    between atoms: C_7  and  N_8 
REMARK       I    between atoms: N_8  and  C_9 
REMARK    5  A    between atoms: C_9  and  C_10 
REMARK    6  A    between atoms: C_12  and  O_13 
REMARK    7  A    between atoms: O_13  and  C_14 
ROOT
HETATM    1  N   UNL     1     -41.684  54.399 -54.321  1.00  0.00    -0.322 N 
HETATM    2  C   UNL     1     -40.595  53.650 -54.734  1.00  0.00     0.256 C 
HETATM    3  O   UNL     1     -39.839  53.936 -55.656  1.00  0.00    -0.267 OA
HETATM    4  H   UNL     1     -41.934  54.323 -53.344  1.00  0.00     0.169 HD
ENDROOT
BRANCH   1   5
HETATM    5  C   UNL     1     -42.170  55.529 -55.017  1.00  0.00     0.050 A 
HETATM    6  C   UNL     1     -42.184  56.842 -54.514  1.00  0.00     0.058 A 
HETATM    7  C   UNL     1     -42.775  57.876 -55.261  1.00  0.00     0.019 A 
HETATM    8  C   UNL     1     -43.332  57.614 -56.511  1.00  0.00     0.001 A 
HETATM    9  C   UNL     1     -43.274  56.326 -57.037  1.00  0.00     0.002 A 
HETATM   10  C   UNL     1     -42.686  55.293 -56.301  1.00  0.00     0.030 A 
BRANCH   6  11
HETATM   11  C   UNL     1     -41.417  57.246 -53.308  1.00  0.00     0.254 C 
HETATM   12  N   UNL     1     -41.028  58.570 -53.284  1.00  0.00    -0.353 N 
HETATM   13  H   UNL     1     -41.559  59.204 -53.865  1.00  0.00     0.163 HD
HETATM   14  O   UNL     1     -41.140  56.422 -52.444  1.00  0.00    -0.268 OA
BRANCH  12  15
HETATM   15  C   UNL     1     -40.378  59.102 -52.117  1.00  0.00     0.149 C 
BRANCH  15  16
HETATM   16  C   UNL     1     -41.429  59.382 -51.090  1.00  0.00    -0.018 C 
HETATM   17  C   UNL     1     -42.209  60.471 -51.073  1.00  0.00     0.008 C 
ENDBRANCH  15  16
ENDBRANCH  12  15
ENDBRANCH   6  11
ENDBRANCH   1   5
BRANCH   2  18
HETATM   18  C   UNL     1     -40.277  52.482 -53.876  1.00  0.00     0.037 A 
HETATM   19  C   UNL     1     -40.219  52.670 -52.497  1.00  0.00     0.075 A 
HETATM   20  C   UNL     1     -39.919  51.576 -51.713  1.00  0.00     0.165 A 
HETATM   21  N   UNL     1     -39.685  50.338 -52.198  1.00  0.00    -0.237 NA
HETATM   22  C   UNL     1     -39.731  50.192 -53.540  1.00  0.00     0.120 A 
HETATM   23  C   UNL     1     -40.020  51.222 -54.417  1.00  0.00     0.036 A 
BRANCH  20  24
HETATM   24  O   UNL     1     -39.875  51.787 -50.349  1.00  0.00    -0.329 OA
BRANCH  24  25
HETATM   25  C   UNL     1     -40.537  52.976 -49.868  1.00  0.00     0.130 C 
HETATM   26  C   UNL     1     -40.846  53.037 -48.347  1.00  0.00     0.032 C 
HETATM   27  C   UNL     1     -40.418  54.514 -48.377  1.00  0.00     0.005 C 
HETATM   28  C   UNL     1     -39.595  54.185 -49.634  1.00  0.00     0.032 C 
ENDBRANCH  24  25
ENDBRANCH  20  24
ENDBRANCH   2  18
TORSDOF 7
ENDMDL
