MODEL 1
REMARK VINA RESULT:      -8.3      0.000      0.000
REMARK  9 active torsions:
REMARK  status: ('A' for Active; 'I' for Inactive)
REMARK    1  A    between atoms: C_2  and  C_3 
REMARK    2  A    between atoms: C_4  and  N_5 
REMARK       I    between atoms: N_5  and  C_6 
REMARK    3  A    between atoms: C_6  and  C_7 
REMARK    4  A    between atoms: C_7  and  S_8 
REMARK    5  A    between atoms: S_8  and  C_9 
REMARK    6  A    between atoms: C_13  and  C_14 
REMARK       I    between atoms: C_14  and  N_15 
REMARK    7  A    between atoms: N_15  and  C_16 
REMARK    8  A    between atoms: C_17  and  O_18 
REMARK    9  A    between atoms: C_25  and  C_26 
ROOT
HETATM    1  C   UNL     1     -44.282  58.225 -56.175  1.00  0.00     0.087 C 
HETATM    2  N   UNL     1     -44.003  56.972 -56.691  1.00  0.00    -0.353 N 
HETATM    3  C   UNL     1     -43.018  56.137 -56.194  1.00  0.00     0.019 C 
HETATM    4  C   UNL     1     -43.112  54.688 -56.604  1.00  0.00     0.069 C 
HETATM    5  C   UNL     1     -42.078  56.647 -55.367  1.00  0.00     0.046 C 
HETATM    6  C   UNL     1     -42.063  58.131 -55.001  1.00  0.00     0.104 C 
HETATM    7  C   UNL     1     -43.369  58.843 -55.383  1.00  0.00     0.055 C 
HETATM    8  C   UNL     1     -43.705  60.184 -54.753  1.00  0.00     0.019 C 
HETATM    9  N   UNL     1     -43.984  61.297 -54.231  1.00  0.00    -0.096 N 
HETATM   10  H   UNL     1     -44.787  56.535 -57.172  1.00  0.00     0.166 HD
ENDROOT
BRANCH   1  11
HETATM   11  S   UNL     1     -45.861  58.930 -56.508  1.00  0.00    -0.102 SA
BRANCH  11  12
HETATM   12  C   UNL     1     -46.384  57.813 -57.860  1.00  0.00     0.184 C 
BRANCH  12  13
HETATM   13  C   UNL     1     -46.626  58.578 -59.152  1.00  0.00     0.231 C 
HETATM   14  N   UNL     1     -45.665  58.591 -60.138  1.00  0.00    -0.326 N 
HETATM   15  H   UNL     1     -45.830  59.380 -60.754  1.00  0.00     0.169 HD
HETATM   16  O   UNL     1     -47.663  59.214 -59.361  1.00  0.00    -0.272 OA
BRANCH  14  17
HETATM   17  C   UNL     1     -44.340  58.141 -60.014  1.00  0.00     0.041 A 
HETATM   18  C   UNL     1     -43.956  56.801 -60.201  1.00  0.00    -0.032 A 
HETATM   19  C   UNL     1     -42.608  56.456 -59.979  1.00  0.00     0.009 A 
HETATM   20  C   UNL     1     -41.666  57.423 -59.625  1.00  0.00     0.001 A 
HETATM   21  C   UNL     1     -42.047  58.754 -59.510  1.00  0.00     0.002 A 
HETATM   22  C   UNL     1     -43.377  59.115 -59.719  1.00  0.00     0.030 A 
BRANCH  18  23
HETATM   23  C   UNL     1     -44.878  55.729 -60.739  1.00  0.00     0.036 C 
HETATM   24  C   UNL     1     -44.744  54.425 -59.964  1.00  0.00     0.010 C 
ENDBRANCH  18  23
ENDBRANCH  14  17
ENDBRANCH  12  13
ENDBRANCH  11  12
ENDBRANCH   1  11
BRANCH   6  25
HETATM   25  C   UNL     1     -41.676  58.384 -53.544  1.00  0.00    -0.044 A 
HETATM   26  C   UNL     1     -42.631  58.203 -52.529  1.00  0.00     0.008 A 
HETATM   27  C   UNL     1     -42.298  58.430 -51.193  1.00  0.00     0.001 A 
HETATM   28  C   UNL     1     -41.011  58.839 -50.854  1.00  0.00     0.000 A 
HETATM   29  C   UNL     1     -40.053  59.019 -51.850  1.00  0.00     0.001 A 
HETATM   30  C   UNL     1     -40.379  58.789 -53.187  1.00  0.00     0.008 A 
ENDBRANCH   6  25
BRANCH   5  31
HETATM   31  C   UNL     1     -41.174  55.703 -54.664  1.00  0.00     0.255 C 
HETATM   32  N   UNL     1     -41.811  54.938 -53.720  1.00  0.00    -0.321 N 
HETATM   33  H   UNL     1     -42.797  55.097 -53.543  1.00  0.00     0.169 HD
HETATM   34  O   UNL     1     -39.977  55.725 -54.927  1.00  0.00    -0.268 OA
BRANCH  32  35
HETATM   35  C   UNL     1     -41.229  53.961 -52.879  1.00  0.00     0.068 A 
HETATM   36  C   UNL     1     -41.525  54.035 -51.502  1.00  0.00     0.095 A 
HETATM   37  C   UNL     1     -40.976  53.094 -50.623  1.00  0.00     0.039 A 
HETATM   38  C   UNL     1     -40.135  52.089 -51.103  1.00  0.00     0.003 A 
HETATM   39  C   UNL     1     -39.843  52.014 -52.461  1.00  0.00     0.002 A 
HETATM   40  C   UNL     1     -40.390  52.945 -53.346  1.00  0.00     0.032 A 
BRANCH  36  41
HETATM   41  O   UNL     1     -42.359  55.066 -51.131  1.00  0.00    -0.354 OA
HETATM   42  C   UNL     1     -43.635  54.700 -50.617  1.00  0.00     0.210 C 
ENDBRANCH  36  41
ENDBRANCH  32  35
ENDBRANCH   5  31
TORSDOF 9
ENDMDL
MODEL 2
REMARK VINA RESULT:      -8.0      1.355      1.831
REMARK  9 active torsions:
REMARK  status: ('A' for Active; 'I' for Inactive)
REMARK    1  A    between atoms: C_2  and  C_3 
REMARK    2  A    between atoms: C_4  and  N_5 
REMARK       I    between atoms: N_5  and  C_6 
REMARK    3  A    between atoms: C_6  and  C_7 
REMARK    4  A    between atoms: C_7  and  S_8 
REMARK    5  A    between atoms: S_8  and  C_9 
REMARK    6  A    between atoms: C_13  and  C_14 
REMARK       I    between atoms: C_14  and  N_15 
REMARK    7  A    between atoms: N_15  and  C_16 
REMARK    8  A    between atoms: C_17  and  O_18 
REMARK    9  A    between atoms: C_25  and  C_26 
ROOT
HETATM    1  C   UNL     1     -44.938  58.086 -56.575  1.00  0.00     0.087 C 
HETATM    2  N   UNL     1     -44.231  56.932 -56.857  1.00  0.00    -0.353 N 
HETATM    3  C   UNL     1     -43.209  56.442 -56.062  1.00  0.00     0.019 C 
HETATM    4  C   UNL     1     -42.826  55.001 -56.295  1.00  0.00     0.069 C 
HETATM    5  C   UNL     1     -42.656  57.248 -55.129  1.00  0.00     0.046 C 
HETATM    6  C   UNL     1     -43.113  58.698 -54.961  1.00  0.00     0.104 C 
HETATM    7  C   UNL     1     -44.430  58.987 -55.695  1.00  0.00     0.055 C 
HETATM    8  C   UNL     1     -45.241  60.218 -55.326  1.00  0.00     0.019 C 
HETATM    9  N   UNL     1     -45.913  61.240 -55.020  1.00  0.00    -0.096 N 
HETATM   10  H   UNL     1     -44.739  56.261 -57.430  1.00  0.00     0.166 HD
ENDROOT
BRANCH   1  11
HETATM   11  S   UNL     1     -46.521  58.296 -57.317  1.00  0.00    -0.102 SA
BRANCH  11  12
HETATM   12  C   UNL     1     -46.045  59.436 -58.667  1.00  0.00     0.184 C 
BRANCH  12  13
HETATM   13  C   UNL     1     -46.495  58.911 -60.023  1.00  0.00     0.231 C 
HETATM   14  N   UNL     1     -45.694  58.043 -60.729  1.00  0.00    -0.326 N 
HETATM   15  H   UNL     1     -45.968  58.057 -61.706  1.00  0.00     0.169 HD
HETATM   16  O   UNL     1     -47.566  59.244 -60.539  1.00  0.00    -0.272 OA
BRANCH  14  17
HETATM   17  C   UNL     1     -44.356  57.726 -60.443  1.00  0.00     0.041 A 
HETATM   18  C   UNL     1     -43.886  56.409 -60.294  1.00  0.00    -0.032 A 
HETATM   19  C   UNL     1     -42.537  56.218 -59.936  1.00  0.00     0.009 A 
HETATM   20  C   UNL     1     -41.674  57.302 -59.774  1.00  0.00     0.001 A 
HETATM   21  C   UNL     1     -42.136  58.595 -59.991  1.00  0.00     0.002 A 
HETATM   22  C   UNL     1     -43.469  58.805 -60.339  1.00  0.00     0.030 A 
BRANCH  18  23
HETATM   23  C   UNL     1     -44.711  55.180 -60.610  1.00  0.00     0.036 C 
HETATM   24  C   UNL     1     -44.583  54.117 -59.527  1.00  0.00     0.010 C 
ENDBRANCH  18  23
ENDBRANCH  14  17
ENDBRANCH  12  13
ENDBRANCH  11  12
ENDBRANCH   1  11
BRANCH   6  25
HETATM   25  C   UNL     1     -43.159  59.144 -53.500  1.00  0.00    -0.044 A 
HETATM   26  C   UNL     1     -44.218  58.723 -52.676  1.00  0.00     0.008 A 
HETATM   27  C   UNL     1     -44.279  59.120 -51.341  1.00  0.00     0.001 A 
HETATM   28  C   UNL     1     -43.287  59.941 -50.810  1.00  0.00     0.000 A 
HETATM   29  C   UNL     1     -42.230  60.364 -51.614  1.00  0.00     0.001 A 
HETATM   30  C   UNL     1     -42.161  59.966 -52.949  1.00  0.00     0.008 A 
ENDBRANCH   6  25
BRANCH   5  31
HETATM   31  C   UNL     1     -41.731  56.645 -54.138  1.00  0.00     0.255 C 
HETATM   32  N   UNL     1     -42.374  55.973 -53.130  1.00  0.00    -0.321 N 
HETATM   33  H   UNL     1     -43.388  55.976 -53.106  1.00  0.00     0.169 HD
HETATM   34  O   UNL     1     -40.526  56.839 -54.260  1.00  0.00    -0.268 OA
BRANCH  32  35
HETATM   35  C   UNL     1     -41.779  55.304 -52.035  1.00  0.00     0.068 A 
HETATM   36  C   UNL     1     -41.470  53.938 -52.204  1.00  0.00     0.095 A 
HETATM   37  C   UNL     1     -40.881  53.225 -51.152  1.00  0.00     0.039 A 
HETATM   38  C   UNL     1     -40.604  53.859 -49.940  1.00  0.00     0.003 A 
HETATM   39  C   UNL     1     -40.907  55.206 -49.772  1.00  0.00     0.002 A 
HETATM   40  C   UNL     1     -41.491  55.927 -50.817  1.00  0.00     0.032 A 
BRANCH  36  41
HETATM   41  O   UNL     1     -41.788  53.407 -53.433  1.00  0.00    -0.354 OA
HETATM   42  C   UNL     1     -40.711  52.867 -54.192  1.00  0.00     0.210 C 
ENDBRANCH  36  41
ENDBRANCH  32  35
ENDBRANCH   5  31
TORSDOF 9
ENDMDL
MODEL 3
REMARK VINA RESULT:      -7.9      2.559      7.734
REMARK  9 active torsions:
REMARK  status: ('A' for Active; 'I' for Inactive)
REMARK    1  A    between atoms: C_2  and  C_3 
REMARK    2  A    between atoms: C_4  and  N_5 
REMARK       I    between atoms: N_5  and  C_6 
REMARK    3  A    between atoms: C_6  and  C_7 
REMARK    4  A    between atoms: C_7  and  S_8 
REMARK    5  A    between atoms: S_8  and  C_9 
REMARK    6  A    between atoms: C_13  and  C_14 
REMARK       I    between atoms: C_14  and  N_15 
REMARK    7  A    between atoms: N_15  and  C_16 
REMARK    8  A    between atoms: C_17  and  O_18 
REMARK    9  A    between atoms: C_25  and  C_26 
ROOT
HETATM    1  C   UNL     1     -43.795  56.825 -52.221  1.00  0.00     0.087 C 
HETATM    2  N   UNL     1     -43.708  55.874 -53.222  1.00  0.00    -0.353 N 
HETATM    3  C   UNL     1     -43.857  56.158 -54.568  1.00  0.00     0.019 C 
HETATM    4  C   UNL     1     -43.348  55.107 -55.524  1.00  0.00     0.069 C 
HETATM    5  C   UNL     1     -44.399  57.340 -54.936  1.00  0.00     0.046 C 
HETATM    6  C   UNL     1     -44.884  58.350 -53.895  1.00  0.00     0.104 C 
HETATM    7  C   UNL     1     -44.382  58.021 -52.481  1.00  0.00     0.055 C 
HETATM    8  C   UNL     1     -44.411  59.094 -51.406  1.00  0.00     0.019 C 
HETATM    9  N   UNL     1     -44.434  59.985 -50.514  1.00  0.00    -0.096 N 
HETATM   10  H   UNL     1     -43.150  55.059 -52.976  1.00  0.00     0.166 HD
ENDROOT
BRANCH   1  11
HETATM   11  S   UNL     1     -43.059  56.464 -50.663  1.00  0.00    -0.102 SA
BRANCH  11  12
HETATM   12  C   UNL     1     -42.666  54.699 -50.943  1.00  0.00     0.184 C 
BRANCH  12  13
HETATM   13  C   UNL     1     -41.540  54.228 -50.036  1.00  0.00     0.231 C 
HETATM   14  N   UNL     1     -40.423  53.629 -50.573  1.00  0.00    -0.326 N 
HETATM   15  H   UNL     1     -39.949  53.097 -49.850  1.00  0.00     0.169 HD
HETATM   16  O   UNL     1     -41.584  54.350 -48.808  1.00  0.00    -0.272 OA
BRANCH  14  17
HETATM   17  C   UNL     1     -40.274  53.183 -51.897  1.00  0.00     0.041 A 
HETATM   18  C   UNL     1     -39.842  51.888 -52.235  1.00  0.00    -0.032 A 
HETATM   19  C   UNL     1     -39.661  51.579 -53.597  1.00  0.00     0.009 A 
HETATM   20  C   UNL     1     -39.941  52.516 -54.592  1.00  0.00     0.001 A 
HETATM   21  C   UNL     1     -40.432  53.770 -54.246  1.00  0.00     0.002 A 
HETATM   22  C   UNL     1     -40.612  54.097 -52.903  1.00  0.00     0.030 A 
BRANCH  18  23
HETATM   23  C   UNL     1     -39.673  50.769 -51.230  1.00  0.00     0.036 C 
HETATM   24  C   UNL     1     -39.636  49.403 -51.904  1.00  0.00     0.010 C 
ENDBRANCH  18  23
ENDBRANCH  14  17
ENDBRANCH  12  13
ENDBRANCH  11  12
ENDBRANCH   1  11
BRANCH   6  25
HETATM   25  C   UNL     1     -44.592  59.797 -54.286  1.00  0.00    -0.044 A 
HETATM   26  C   UNL     1     -43.272  60.277 -54.246  1.00  0.00     0.008 A 
HETATM   27  C   UNL     1     -42.986  61.597 -54.597  1.00  0.00     0.001 A 
HETATM   28  C   UNL     1     -44.010  62.452 -54.993  1.00  0.00     0.000 A 
HETATM   29  C   UNL     1     -45.324  61.989 -55.040  1.00  0.00     0.001 A 
HETATM   30  C   UNL     1     -45.616  60.670 -54.694  1.00  0.00     0.008 A 
ENDBRANCH   6  25
BRANCH   5  31
HETATM   31  C   UNL     1     -44.341  57.726 -56.368  1.00  0.00     0.255 C 
HETATM   32  N   UNL     1     -43.069  57.992 -56.808  1.00  0.00    -0.321 N 
HETATM   33  H   UNL     1     -42.302  57.956 -56.146  1.00  0.00     0.169 HD
HETATM   34  O   UNL     1     -45.389  57.830 -56.995  1.00  0.00    -0.268 OA
BRANCH  32  35
HETATM   35  C   UNL     1     -42.683  58.393 -58.109  1.00  0.00     0.068 A 
HETATM   36  C   UNL     1     -42.536  57.380 -59.080  1.00  0.00     0.095 A 
HETATM   37  C   UNL     1     -42.154  57.719 -60.383  1.00  0.00     0.039 A 
HETATM   38  C   UNL     1     -41.916  59.052 -60.723  1.00  0.00     0.003 A 
HETATM   39  C   UNL     1     -42.062  60.052 -59.767  1.00  0.00     0.002 A 
HETATM   40  C   UNL     1     -42.446  59.724 -58.465  1.00  0.00     0.032 A 
BRANCH  36  41
HETATM   41  O   UNL     1     -42.789  56.100 -58.642  1.00  0.00    -0.354 OA
HETATM   42  C   UNL     1     -43.792  55.372 -59.343  1.00  0.00     0.210 C 
ENDBRANCH  36  41
ENDBRANCH  32  35
ENDBRANCH   5  31
TORSDOF 9
ENDMDL
MODEL 4
REMARK VINA RESULT:      -7.9      2.582      7.998
REMARK  9 active torsions:
REMARK  status: ('A' for Active; 'I' for Inactive)
REMARK    1  A    between atoms: C_2  and  C_3 
REMARK    2  A    between atoms: C_4  and  N_5 
REMARK       I    between atoms: N_5  and  C_6 
REMARK    3  A    between atoms: C_6  and  C_7 
REMARK    4  A    between atoms: C_7  and  S_8 
REMARK    5  A    between atoms: S_8  and  C_9 
REMARK    6  A    between atoms: C_13  and  C_14 
REMARK       I    between atoms: C_14  and  N_15 
REMARK    7  A    between atoms: N_15  and  C_16 
REMARK    8  A    between atoms: C_17  and  O_18 
REMARK    9  A    between atoms: C_25  and  C_26 
ROOT
HETATM    1  C   UNL     1     -43.735  55.766 -54.147  1.00  0.00     0.087 C 
HETATM    2  N   UNL     1     -43.607  55.568 -55.510  1.00  0.00    -0.353 N 
HETATM    3  C   UNL     1     -43.645  56.589 -56.443  1.00  0.00     0.019 C 
HETATM    4  C   UNL     1     -43.104  56.254 -57.811  1.00  0.00     0.069 C 
HETATM    5  C   UNL     1     -44.117  57.801 -56.073  1.00  0.00     0.046 C 
HETATM    6  C   UNL     1     -44.642  58.052 -54.659  1.00  0.00     0.104 C 
HETATM    7  C   UNL     1     -44.258  56.930 -53.684  1.00  0.00     0.055 C 
HETATM    8  C   UNL     1     -44.328  57.180 -52.186  1.00  0.00     0.019 C 
HETATM    9  N   UNL     1     -44.386  57.388 -50.945  1.00  0.00    -0.096 N 
HETATM   10  H   UNL     1     -43.097  54.724 -55.763  1.00  0.00     0.166 HD
ENDROOT
BRANCH   1  11
HETATM   11  S   UNL     1     -43.129  54.517 -53.063  1.00  0.00    -0.102 SA
BRANCH  11  12
HETATM   12  C   UNL     1     -42.188  53.526 -54.280  1.00  0.00     0.184 C 
BRANCH  12  13
HETATM   13  C   UNL     1     -40.778  54.068 -54.468  1.00  0.00     0.231 C 
HETATM   14  N   UNL     1     -39.689  53.285 -54.160  1.00  0.00    -0.326 N 
HETATM   15  H   UNL     1     -38.878  53.880 -54.026  1.00  0.00     0.169 HD
HETATM   16  O   UNL     1     -40.559  55.209 -54.884  1.00  0.00    -0.272 OA
BRANCH  14  17
HETATM   17  C   UNL     1     -39.712  52.067 -53.461  1.00  0.00     0.041 A 
HETATM   18  C   UNL     1     -39.612  51.973 -52.061  1.00  0.00    -0.032 A 
HETATM   19  C   UNL     1     -39.574  50.692 -51.479  1.00  0.00     0.009 A 
HETATM   20  C   UNL     1     -39.675  49.541 -52.262  1.00  0.00     0.001 A 
HETATM   21  C   UNL     1     -39.842  49.650 -53.638  1.00  0.00     0.002 A 
HETATM   22  C   UNL     1     -39.875  50.910 -54.234  1.00  0.00     0.030 A 
BRANCH  18  23
HETATM   23  C   UNL     1     -39.661  53.167 -51.133  1.00  0.00     0.036 C 
HETATM   24  C   UNL     1     -40.965  53.221 -50.346  1.00  0.00     0.010 C 
ENDBRANCH  18  23
ENDBRANCH  14  17
ENDBRANCH  12  13
ENDBRANCH  11  12
ENDBRANCH   1  11
BRANCH   6  25
HETATM   25  C   UNL     1     -44.271  59.433 -54.121  1.00  0.00    -0.044 A 
HETATM   26  C   UNL     1     -42.920  59.756 -53.903  1.00  0.00     0.008 A 
HETATM   27  C   UNL     1     -42.562  61.012 -53.411  1.00  0.00     0.001 A 
HETATM   28  C   UNL     1     -43.544  61.958 -53.130  1.00  0.00     0.000 A 
HETATM   29  C   UNL     1     -44.886  61.652 -53.344  1.00  0.00     0.001 A 
HETATM   30  C   UNL     1     -45.251  60.401 -53.840  1.00  0.00     0.008 A 
ENDBRANCH   6  25
BRANCH   5  31
HETATM   31  C   UNL     1     -43.939  58.940 -57.008  1.00  0.00     0.255 C 
HETATM   32  N   UNL     1     -42.624  59.215 -57.287  1.00  0.00    -0.321 N 
HETATM   33  H   UNL     1     -41.900  58.679 -56.821  1.00  0.00     0.169 HD
HETATM   34  O   UNL     1     -44.930  59.552 -57.389  1.00  0.00    -0.268 OA
BRANCH  32  35
HETATM   35  C   UNL     1     -42.126  60.238 -58.128  1.00  0.00     0.068 A 
HETATM   36  C   UNL     1     -42.152  60.002 -59.518  1.00  0.00     0.095 A 
HETATM   37  C   UNL     1     -41.670  60.979 -60.397  1.00  0.00     0.039 A 
HETATM   38  C   UNL     1     -41.162  62.182 -59.903  1.00  0.00     0.003 A 
HETATM   39  C   UNL     1     -41.136  62.417 -58.531  1.00  0.00     0.002 A 
HETATM   40  C   UNL     1     -41.619  61.449 -57.647  1.00  0.00     0.032 A 
BRANCH  36  41
HETATM   41  O   UNL     1     -42.668  58.784 -59.902  1.00  0.00    -0.354 OA
HETATM   42  C   UNL     1     -41.753  57.855 -60.472  1.00  0.00     0.210 C 
ENDBRANCH  36  41
ENDBRANCH  32  35
ENDBRANCH   5  31
TORSDOF 9
ENDMDL
MODEL 5
REMARK VINA RESULT:      -7.8      1.794      2.795
REMARK  9 active torsions:
REMARK  status: ('A' for Active; 'I' for Inactive)
REMARK    1  A    between atoms: C_2  and  C_3 
REMARK    2  A    between atoms: C_4  and  N_5 
REMARK       I    between atoms: N_5  and  C_6 
REMARK    3  A    between atoms: C_6  and  C_7 
REMARK    4  A    between atoms: C_7  and  S_8 
REMARK    5  A    between atoms: S_8  and  C_9 
REMARK    6  A    between atoms: C_13  and  C_14 
REMARK       I    between atoms: C_14  and  N_15 
REMARK    7  A    between atoms: N_15  and  C_16 
REMARK    8  A    between atoms: C_17  and  O_18 
REMARK    9  A    between atoms: C_25  and  C_26 
ROOT
HETATM    1  C   UNL     1     -42.601  58.439 -55.579  1.00  0.00     0.087 C 
HETATM    2  N   UNL     1     -42.617  57.411 -56.504  1.00  0.00    -0.353 N 
HETATM    3  C   UNL     1     -42.421  56.081 -56.180  1.00  0.00     0.019 C 
HETATM    4  C   UNL     1     -42.857  55.077 -57.219  1.00  0.00     0.069 C 
HETATM    5  C   UNL     1     -41.900  55.767 -54.973  1.00  0.00     0.046 C 
HETATM    6  C   UNL     1     -41.490  56.853 -53.978  1.00  0.00     0.104 C 
HETATM    7  C   UNL     1     -42.041  58.235 -54.359  1.00  0.00     0.055 C 
HETATM    8  C   UNL     1     -42.090  59.338 -53.315  1.00  0.00     0.019 C 
HETATM    9  N   UNL     1     -42.131  60.253 -52.448  1.00  0.00    -0.096 N 
HETATM   10  H   UNL     1     -43.161  57.613 -57.341  1.00  0.00     0.166 HD
ENDROOT
BRANCH   1  11
HETATM   11  S   UNL     1     -43.391  59.955 -56.003  1.00  0.00    -0.102 SA
BRANCH  11  12
HETATM   12  C   UNL     1     -44.764  59.281 -57.007  1.00  0.00     0.184 C 
BRANCH  12  13
HETATM   13  C   UNL     1     -45.077  60.177 -58.196  1.00  0.00     0.231 C 
HETATM   14  N   UNL     1     -45.488  59.626 -59.388  1.00  0.00    -0.326 N 
HETATM   15  H   UNL     1     -45.334  60.296 -60.135  1.00  0.00     0.169 HD
HETATM   16  O   UNL     1     -44.967  61.406 -58.145  1.00  0.00    -0.272 OA
BRANCH  14  17
HETATM   17  C   UNL     1     -45.452  58.264 -59.731  1.00  0.00     0.041 A 
HETATM   18  C   UNL     1     -44.284  57.600 -60.147  1.00  0.00    -0.032 A 
HETATM   19  C   UNL     1     -44.386  56.250 -60.534  1.00  0.00     0.009 A 
HETATM   20  C   UNL     1     -45.604  55.571 -60.469  1.00  0.00     0.001 A 
HETATM   21  C   UNL     1     -46.736  56.222 -59.991  1.00  0.00     0.002 A 
HETATM   22  C   UNL     1     -46.657  57.560 -59.610  1.00  0.00     0.030 A 
BRANCH  18  23
HETATM   23  C   UNL     1     -42.902  58.214 -60.092  1.00  0.00     0.036 C 
HETATM   24  C   UNL     1     -41.808  57.155 -60.141  1.00  0.00     0.010 C 
ENDBRANCH  18  23
ENDBRANCH  14  17
ENDBRANCH  12  13
ENDBRANCH  11  12
ENDBRANCH   1  11
BRANCH   6  25
HETATM   25  C   UNL     1     -41.809  56.488 -52.529  1.00  0.00    -0.044 A 
HETATM   26  C   UNL     1     -40.861  56.739 -51.522  1.00  0.00     0.008 A 
HETATM   27  C   UNL     1     -41.134  56.411 -50.194  1.00  0.00     0.001 A 
HETATM   28  C   UNL     1     -42.353  55.829 -49.854  1.00  0.00     0.000 A 
HETATM   29  C   UNL     1     -43.303  55.578 -50.841  1.00  0.00     0.001 A 
HETATM   30  C   UNL     1     -43.038  55.908 -52.170  1.00  0.00     0.008 A 
ENDBRANCH   6  25
BRANCH   5  31
HETATM   31  C   UNL     1     -41.910  54.344 -54.550  1.00  0.00     0.255 C 
HETATM   32  N   UNL     1     -40.657  53.836 -54.319  1.00  0.00    -0.321 N 
HETATM   33  H   UNL     1     -39.849  54.423 -54.492  1.00  0.00     0.169 HD
HETATM   34  O   UNL     1     -42.981  53.750 -54.503  1.00  0.00    -0.268 OA
BRANCH  32  35
HETATM   35  C   UNL     1     -40.332  52.518 -53.918  1.00  0.00     0.068 A 
HETATM   36  C   UNL     1     -39.963  52.327 -52.570  1.00  0.00     0.095 A 
HETATM   37  C   UNL     1     -39.629  51.044 -52.118  1.00  0.00     0.039 A 
HETATM   38  C   UNL     1     -39.656  49.959 -52.996  1.00  0.00     0.003 A 
HETATM   39  C   UNL     1     -40.021  50.146 -54.326  1.00  0.00     0.002 A 
HETATM   40  C   UNL     1     -40.360  51.421 -54.784  1.00  0.00     0.032 A 
BRANCH  36  41
HETATM   41  O   UNL     1     -39.963  53.461 -51.790  1.00  0.00    -0.354 OA
HETATM   42  C   UNL     1     -39.928  53.265 -50.380  1.00  0.00     0.210 C 
ENDBRANCH  36  41
ENDBRANCH  32  35
ENDBRANCH   5  31
TORSDOF 9
ENDMDL
MODEL 6
REMARK VINA RESULT:      -7.7      1.208      2.197
REMARK  9 active torsions:
REMARK  status: ('A' for Active; 'I' for Inactive)
REMARK    1  A    between atoms: C_2  and  C_3 
REMARK    2  A    between atoms: C_4  and  N_5 
REMARK       I    between atoms: N_5  and  C_6 
REMARK    3  A    between atoms: C_6  and  C_7 
REMARK    4  A    between atoms: C_7  and  S_8 
REMARK    5  A    between atoms: S_8  and  C_9 
REMARK    6  A    between atoms: C_13  and  C_14 
REMARK       I    between atoms: C_14  and  N_15 
REMARK    7  A    between atoms: N_15  and  C_16 
REMARK    8  A    between atoms: C_17  and  O_18 
REMARK    9  A    between atoms: C_25  and  C_26 
ROOT
HETATM    1  C   UNL     1     -43.887  58.997 -55.690  1.00  0.00     0.087 C 
HETATM    2  N   UNL     1     -43.780  57.692 -56.138  1.00  0.00    -0.353 N 
HETATM    3  C   UNL     1     -42.923  56.757 -55.586  1.00  0.00     0.019 C 
HETATM    4  C   UNL     1     -43.214  55.316 -55.923  1.00  0.00     0.069 C 
HETATM    5  C   UNL     1     -41.927  57.176 -54.774  1.00  0.00     0.046 C 
HETATM    6  C   UNL     1     -41.709  58.661 -54.484  1.00  0.00     0.104 C 
HETATM    7  C   UNL     1     -42.902  59.524 -54.919  1.00  0.00     0.055 C 
HETATM    8  C   UNL     1     -43.054  60.930 -54.363  1.00  0.00     0.019 C 
HETATM    9  N   UNL     1     -43.180  62.097 -53.902  1.00  0.00    -0.096 N 
HETATM   10  H   UNL     1     -44.614  57.342 -56.606  1.00  0.00     0.166 HD
ENDROOT
BRANCH   1  11
HETATM   11  S   UNL     1     -45.352  59.894 -56.079  1.00  0.00    -0.102 SA
BRANCH  11  12
HETATM   12  C   UNL     1     -45.934  58.878 -57.486  1.00  0.00     0.184 C 
BRANCH  12  13
HETATM   13  C   UNL     1     -45.667  59.564 -58.817  1.00  0.00     0.231 C 
HETATM   14  N   UNL     1     -45.253  58.829 -59.904  1.00  0.00    -0.326 N 
HETATM   15  H   UNL     1     -44.817  59.448 -60.579  1.00  0.00     0.169 HD
HETATM   16  O   UNL     1     -45.797  60.782 -58.971  1.00  0.00    -0.272 OA
BRANCH  14  17
HETATM   17  C   UNL     1     -44.821  57.492 -59.888  1.00  0.00     0.041 A 
HETATM   18  C   UNL     1     -43.474  57.115 -59.741  1.00  0.00    -0.032 A 
HETATM   19  C   UNL     1     -43.153  55.745 -59.812  1.00  0.00     0.009 A 
HETATM   20  C   UNL     1     -44.147  54.780 -59.982  1.00  0.00     0.001 A 
HETATM   21  C   UNL     1     -45.481  55.163 -60.057  1.00  0.00     0.002 A 
HETATM   22  C   UNL     1     -45.818  56.514 -59.995  1.00  0.00     0.030 A 
BRANCH  18  23
HETATM   23  C   UNL     1     -42.363  58.081 -59.394  1.00  0.00     0.036 C 
HETATM   24  C   UNL     1     -41.825  58.794 -60.628  1.00  0.00     0.010 C 
ENDBRANCH  18  23
ENDBRANCH  14  17
ENDBRANCH  12  13
ENDBRANCH  11  12
ENDBRANCH   1  11
BRANCH   6  25
HETATM   25  C   UNL     1     -41.301  58.934 -53.037  1.00  0.00    -0.044 A 
HETATM   26  C   UNL     1     -42.290  59.125 -52.057  1.00  0.00     0.008 A 
HETATM   27  C   UNL     1     -41.937  59.377 -50.732  1.00  0.00     0.001 A 
HETATM   28  C   UNL     1     -40.595  59.441 -50.366  1.00  0.00     0.000 A 
HETATM   29  C   UNL     1     -39.603  59.250 -51.326  1.00  0.00     0.001 A 
HETATM   30  C   UNL     1     -39.950  58.994 -52.653  1.00  0.00     0.008 A 
ENDBRANCH   6  25
BRANCH   5  31
HETATM   31  C   UNL     1     -41.165  56.155 -54.011  1.00  0.00     0.255 C 
HETATM   32  N   UNL     1     -41.717  55.864 -52.790  1.00  0.00    -0.321 N 
HETATM   33  H   UNL     1     -42.538  56.376 -52.486  1.00  0.00     0.169 HD
HETATM   34  O   UNL     1     -40.122  55.720 -54.486  1.00  0.00    -0.268 OA
BRANCH  32  35
HETATM   35  C   UNL     1     -41.227  54.949 -51.828  1.00  0.00     0.068 A 
HETATM   36  C   UNL     1     -41.254  53.580 -52.167  1.00  0.00     0.095 A 
HETATM   37  C   UNL     1     -40.783  52.629 -51.254  1.00  0.00     0.039 A 
HETATM   38  C   UNL     1     -40.291  53.031 -50.010  1.00  0.00     0.003 A 
HETATM   39  C   UNL     1     -40.263  54.381 -49.675  1.00  0.00     0.002 A 
HETATM   40  C   UNL     1     -40.727  55.337 -50.581  1.00  0.00     0.032 A 
BRANCH  36  41
HETATM   41  O   UNL     1     -41.762  53.289 -53.414  1.00  0.00    -0.354 OA
HETATM   42  C   UNL     1     -41.031  52.351 -54.197  1.00  0.00     0.210 C 
ENDBRANCH  36  41
ENDBRANCH  32  35
ENDBRANCH   5  31
TORSDOF 9
ENDMDL
MODEL 7
REMARK VINA RESULT:      -7.7      4.128      8.123
REMARK  9 active torsions:
REMARK  status: ('A' for Active; 'I' for Inactive)
REMARK    1  A    between atoms: C_2  and  C_3 
REMARK    2  A    between atoms: C_4  and  N_5 
REMARK       I    between atoms: N_5  and  C_6 
REMARK    3  A    between atoms: C_6  and  C_7 
REMARK    4  A    between atoms: C_7  and  S_8 
REMARK    5  A    between atoms: S_8  and  C_9 
REMARK    6  A    between atoms: C_13  and  C_14 
REMARK       I    between atoms: C_14  and  N_15 
REMARK    7  A    between atoms: N_15  and  C_16 
REMARK    8  A    between atoms: C_17  and  O_18 
REMARK    9  A    between atoms: C_25  and  C_26 
ROOT
HETATM    1  C   UNL     1     -43.314  59.979 -51.872  1.00  0.00     0.087 C 
HETATM    2  N   UNL     1     -42.491  59.243 -51.037  1.00  0.00    -0.353 N 
HETATM    3  C   UNL     1     -41.837  58.088 -51.425  1.00  0.00     0.019 C 
HETATM    4  C   UNL     1     -40.697  57.646 -50.541  1.00  0.00     0.069 C 
HETATM    5  C   UNL     1     -42.224  57.461 -52.559  1.00  0.00     0.046 C 
HETATM    6  C   UNL     1     -43.390  57.984 -53.398  1.00  0.00     0.104 C 
HETATM    7  C   UNL     1     -43.802  59.410 -53.004  1.00  0.00     0.055 C 
HETATM    8  C   UNL     1     -44.643  60.240 -53.960  1.00  0.00     0.019 C 
HETATM    9  N   UNL     1     -45.340  60.928 -54.754  1.00  0.00    -0.096 N 
HETATM   10  H   UNL     1     -42.077  59.783 -50.280  1.00  0.00     0.166 HD
ENDROOT
BRANCH   1  11
HETATM   11  S   UNL     1     -43.626  61.663 -51.462  1.00  0.00    -0.102 SA
BRANCH  11  12
HETATM   12  C   UNL     1     -44.284  61.420 -49.772  1.00  0.00     0.184 C 
BRANCH  12  13
HETATM   13  C   UNL     1     -45.805  61.415 -49.762  1.00  0.00     0.231 C 
HETATM   14  N   UNL     1     -46.492  62.085 -48.776  1.00  0.00    -0.326 N 
HETATM   15  H   UNL     1     -47.437  61.720 -48.721  1.00  0.00     0.169 HD
HETATM   16  O   UNL     1     -46.470  60.814 -50.610  1.00  0.00    -0.272 OA
BRANCH  14  17
HETATM   17  C   UNL     1     -45.945  62.626 -47.600  1.00  0.00     0.041 A 
HETATM   18  C   UNL     1     -45.670  61.862 -46.451  1.00  0.00    -0.032 A 
HETATM   19  C   UNL     1     -45.188  62.528 -45.307  1.00  0.00     0.009 A 
HETATM   20  C   UNL     1     -44.948  63.902 -45.321  1.00  0.00     0.001 A 
HETATM   21  C   UNL     1     -45.160  64.632 -46.485  1.00  0.00     0.002 A 
HETATM   22  C   UNL     1     -45.643  63.993 -47.625  1.00  0.00     0.030 A 
BRANCH  18  23
HETATM   23  C   UNL     1     -45.749  60.352 -46.406  1.00  0.00     0.036 C 
HETATM   24  C   UNL     1     -47.071  59.870 -45.823  1.00  0.00     0.010 C 
ENDBRANCH  18  23
ENDBRANCH  14  17
ENDBRANCH  12  13
ENDBRANCH  11  12
ENDBRANCH   1  11
BRANCH   6  25
HETATM   25  C   UNL     1     -43.152  57.850 -54.901  1.00  0.00    -0.044 A 
HETATM   26  C   UNL     1     -42.396  58.823 -55.577  1.00  0.00     0.008 A 
HETATM   27  C   UNL     1     -42.169  58.718 -56.950  1.00  0.00     0.001 A 
HETATM   28  C   UNL     1     -42.693  57.644 -57.664  1.00  0.00     0.000 A 
HETATM   29  C   UNL     1     -43.442  56.670 -57.007  1.00  0.00     0.001 A 
HETATM   30  C   UNL     1     -43.668  56.767 -55.634  1.00  0.00     0.008 A 
ENDBRANCH   6  25
BRANCH   5  31
HETATM   31  C   UNL     1     -41.372  56.364 -53.081  1.00  0.00     0.255 C 
HETATM   32  N   UNL     1     -41.731  55.125 -52.614  1.00  0.00    -0.321 N 
HETATM   33  H   UNL     1     -42.486  55.054 -51.940  1.00  0.00     0.169 HD
HETATM   34  O   UNL     1     -40.423  56.646 -53.805  1.00  0.00    -0.268 OA
BRANCH  32  35
HETATM   35  C   UNL     1     -41.115  53.888 -52.914  1.00  0.00     0.068 A 
HETATM   36  C   UNL     1     -40.330  53.296 -51.903  1.00  0.00     0.095 A 
HETATM   37  C   UNL     1     -39.694  52.072 -52.145  1.00  0.00     0.039 A 
HETATM   38  C   UNL     1     -39.832  51.440 -53.383  1.00  0.00     0.003 A 
HETATM   39  C   UNL     1     -40.607  52.022 -54.381  1.00  0.00     0.002 A 
HETATM   40  C   UNL     1     -41.247  53.241 -54.147  1.00  0.00     0.032 A 
BRANCH  36  41
HETATM   41  O   UNL     1     -40.254  54.001 -50.723  1.00  0.00    -0.354 OA
HETATM   42  C   UNL     1     -40.432  53.257 -49.523  1.00  0.00     0.210 C 
ENDBRANCH  36  41
ENDBRANCH  32  35
ENDBRANCH   5  31
TORSDOF 9
ENDMDL
MODEL 8
REMARK VINA RESULT:      -7.5      1.123      2.081
REMARK  9 active torsions:
REMARK  status: ('A' for Active; 'I' for Inactive)
REMARK    1  A    between atoms: C_2  and  C_3 
REMARK    2  A    between atoms: C_4  and  N_5 
REMARK       I    between atoms: N_5  and  C_6 
REMARK    3  A    between atoms: C_6  and  C_7 
REMARK    4  A    between atoms: C_7  and  S_8 
REMARK    5  A    between atoms: S_8  and  C_9 
REMARK    6  A    between atoms: C_13  and  C_14 
REMARK       I    between atoms: C_14  and  N_15 
REMARK    7  A    between atoms: N_15  and  C_16 
REMARK    8  A    between atoms: C_17  and  O_18 
REMARK    9  A    between atoms: C_25  and  C_26 
ROOT
HETATM    1  C   UNL     1     -44.962  58.067 -56.693  1.00  0.00     0.087 C 
HETATM    2  N   UNL     1     -44.332  56.907 -57.111  1.00  0.00    -0.353 N 
HETATM    3  C   UNL     1     -43.289  56.309 -56.427  1.00  0.00     0.019 C 
HETATM    4  C   UNL     1     -42.995  54.876 -56.796  1.00  0.00     0.069 C 
HETATM    5  C   UNL     1     -42.639  57.011 -55.473  1.00  0.00     0.046 C 
HETATM    6  C   UNL     1     -43.009  58.462 -55.162  1.00  0.00     0.104 C 
HETATM    7  C   UNL     1     -44.354  58.869 -55.782  1.00  0.00     0.055 C 
HETATM    8  C   UNL     1     -45.077  60.102 -55.265  1.00  0.00     0.019 C 
HETATM    9  N   UNL     1     -45.676  61.124 -54.836  1.00  0.00    -0.096 N 
HETATM   10  H   UNL     1     -44.909  56.309 -57.700  1.00  0.00     0.166 HD
ENDROOT
BRANCH   1  11
HETATM   11  S   UNL     1     -46.576  58.407 -57.309  1.00  0.00    -0.102 SA
BRANCH  11  12
HETATM   12  C   UNL     1     -46.525  57.364 -58.812  1.00  0.00     0.184 C 
BRANCH  12  13
HETATM   13  C   UNL     1     -46.579  58.206 -60.077  1.00  0.00     0.231 C 
HETATM   14  N   UNL     1     -45.415  58.576 -60.712  1.00  0.00    -0.326 N 
HETATM   15  H   UNL     1     -45.601  59.374 -61.311  1.00  0.00     0.169 HD
HETATM   16  O   UNL     1     -47.643  58.594 -60.569  1.00  0.00    -0.272 OA
BRANCH  14  17
HETATM   17  C   UNL     1     -44.112  58.447 -60.203  1.00  0.00     0.041 A 
HETATM   18  C   UNL     1     -43.440  59.479 -59.523  1.00  0.00    -0.032 A 
HETATM   19  C   UNL     1     -42.109  59.257 -59.121  1.00  0.00     0.009 A 
HETATM   20  C   UNL     1     -41.482  58.032 -59.351  1.00  0.00     0.001 A 
HETATM   21  C   UNL     1     -42.181  56.998 -59.962  1.00  0.00     0.002 A 
HETATM   22  C   UNL     1     -43.497  57.201 -60.374  1.00  0.00     0.030 A 
BRANCH  18  23
HETATM   23  C   UNL     1     -44.099  60.772 -59.094  1.00  0.00     0.036 C 
HETATM   24  C   UNL     1     -43.809  61.907 -60.068  1.00  0.00     0.010 C 
ENDBRANCH  18  23
ENDBRANCH  14  17
ENDBRANCH  12  13
ENDBRANCH  11  12
ENDBRANCH   1  11
BRANCH   6  25
HETATM   25  C   UNL     1     -42.942  58.790 -53.671  1.00  0.00    -0.044 A 
HETATM   26  C   UNL     1     -41.901  59.598 -53.182  1.00  0.00     0.008 A 
HETATM   27  C   UNL     1     -41.822  59.907 -51.824  1.00  0.00     0.001 A 
HETATM   28  C   UNL     1     -42.777  59.415 -50.938  1.00  0.00     0.000 A 
HETATM   29  C   UNL     1     -43.816  58.615 -51.410  1.00  0.00     0.001 A 
HETATM   30  C   UNL     1     -43.903  58.306 -52.767  1.00  0.00     0.008 A 
ENDBRANCH   6  25
BRANCH   5  31
HETATM   31  C   UNL     1     -41.684  56.289 -54.595  1.00  0.00     0.255 C 
HETATM   32  N   UNL     1     -42.231  55.189 -53.984  1.00  0.00    -0.321 N 
HETATM   33  H   UNL     1     -43.214  54.985 -54.128  1.00  0.00     0.169 HD
HETATM   34  O   UNL     1     -40.556  56.745 -54.447  1.00  0.00    -0.268 OA
BRANCH  32  35
HETATM   35  C   UNL     1     -41.589  54.304 -53.086  1.00  0.00     0.068 A 
HETATM   36  C   UNL     1     -41.958  54.383 -51.727  1.00  0.00     0.095 A 
HETATM   37  C   UNL     1     -41.354  53.533 -50.794  1.00  0.00     0.039 A 
HETATM   38  C   UNL     1     -40.387  52.612 -51.202  1.00  0.00     0.003 A 
HETATM   39  C   UNL     1     -40.023  52.533 -52.543  1.00  0.00     0.002 A 
HETATM   40  C   UNL     1     -40.623  53.374 -53.481  1.00  0.00     0.032 A 
BRANCH  36  41
HETATM   41  O   UNL     1     -42.915  55.327 -51.428  1.00  0.00    -0.354 OA
HETATM   42  C   UNL     1     -43.984  54.906 -50.587  1.00  0.00     0.210 C 
ENDBRANCH  36  41
ENDBRANCH  32  35
ENDBRANCH   5  31
TORSDOF 9
ENDMDL
MODEL 9
REMARK VINA RESULT:      -7.4      2.407      8.804
REMARK  9 active torsions:
REMARK  status: ('A' for Active; 'I' for Inactive)
REMARK    1  A    between atoms: C_2  and  C_3 
REMARK    2  A    between atoms: C_4  and  N_5 
REMARK       I    between atoms: N_5  and  C_6 
REMARK    3  A    between atoms: C_6  and  C_7 
REMARK    4  A    between atoms: C_7  and  S_8 
REMARK    5  A    between atoms: S_8  and  C_9 
REMARK    6  A    between atoms: C_13  and  C_14 
REMARK       I    between atoms: C_14  and  N_15 
REMARK    7  A    between atoms: N_15  and  C_16 
REMARK    8  A    between atoms: C_17  and  O_18 
REMARK    9  A    between atoms: C_25  and  C_26 
ROOT
HETATM    1  C   UNL     1     -42.660  56.367 -56.254  1.00  0.00     0.087 C 
HETATM    2  N   UNL     1     -43.246  55.390 -57.039  1.00  0.00    -0.353 N 
HETATM    3  C   UNL     1     -43.977  55.659 -58.183  1.00  0.00     0.019 C 
HETATM    4  C   UNL     1     -44.199  54.491 -59.113  1.00  0.00     0.069 C 
HETATM    5  C   UNL     1     -44.405  56.920 -58.409  1.00  0.00     0.046 C 
HETATM    6  C   UNL     1     -44.129  58.045 -57.411  1.00  0.00     0.104 C 
HETATM    7  C   UNL     1     -43.071  57.656 -56.368  1.00  0.00     0.055 C 
HETATM    8  C   UNL     1     -42.376  58.741 -55.562  1.00  0.00     0.019 C 
HETATM    9  N   UNL     1     -41.800  59.641 -54.894  1.00  0.00    -0.096 N 
HETATM   10  H   UNL     1     -42.797  54.479 -56.975  1.00  0.00     0.166 HD
ENDROOT
BRANCH   1  11
HETATM   11  S   UNL     1     -41.338  55.898 -55.190  1.00  0.00    -0.102 SA
BRANCH  11  12
HETATM   12  C   UNL     1     -42.222  55.992 -53.590  1.00  0.00     0.184 C 
BRANCH  12  13
HETATM   13  C   UNL     1     -43.107  54.773 -53.371  1.00  0.00     0.231 C 
HETATM   14  N   UNL     1     -42.953  54.001 -52.243  1.00  0.00    -0.326 N 
HETATM   15  H   UNL     1     -43.364  53.087 -52.406  1.00  0.00     0.169 HD
HETATM   16  O   UNL     1     -43.971  54.429 -54.183  1.00  0.00    -0.272 OA
BRANCH  14  17
HETATM   17  C   UNL     1     -41.894  54.072 -51.324  1.00  0.00     0.041 A 
HETATM   18  C   UNL     1     -40.636  53.481 -51.543  1.00  0.00    -0.032 A 
HETATM   19  C   UNL     1     -39.674  53.558 -50.518  1.00  0.00     0.009 A 
HETATM   20  C   UNL     1     -39.941  54.238 -49.328  1.00  0.00     0.001 A 
HETATM   21  C   UNL     1     -41.164  54.875 -49.153  1.00  0.00     0.002 A 
HETATM   22  C   UNL     1     -42.132  54.805 -50.154  1.00  0.00     0.030 A 
BRANCH  18  23
HETATM   23  C   UNL     1     -40.213  52.869 -52.861  1.00  0.00     0.036 C 
HETATM   24  C   UNL     1     -39.675  51.455 -52.683  1.00  0.00     0.010 C 
ENDBRANCH  18  23
ENDBRANCH  14  17
ENDBRANCH  12  13
ENDBRANCH  11  12
ENDBRANCH   1  11
BRANCH   6  25
HETATM   25  C   UNL     1     -43.807  59.378 -58.085  1.00  0.00    -0.044 A 
HETATM   26  C   UNL     1     -44.681  60.467 -57.928  1.00  0.00     0.008 A 
HETATM   27  C   UNL     1     -44.405  61.691 -58.537  1.00  0.00     0.001 A 
HETATM   28  C   UNL     1     -43.256  61.844 -59.309  1.00  0.00     0.000 A 
HETATM   29  C   UNL     1     -42.379  60.774 -59.472  1.00  0.00     0.001 A 
HETATM   30  C   UNL     1     -42.648  59.549 -58.861  1.00  0.00     0.008 A 
ENDBRANCH   6  25
BRANCH   5  31
HETATM   31  C   UNL     1     -44.983  57.239 -59.739  1.00  0.00     0.255 C 
HETATM   32  N   UNL     1     -46.353  57.293 -59.739  1.00  0.00    -0.321 N 
HETATM   33  H   UNL     1     -46.854  57.074 -58.885  1.00  0.00     0.169 HD
HETATM   34  O   UNL     1     -44.228  57.362 -60.697  1.00  0.00    -0.268 OA
BRANCH  32  35
HETATM   35  C   UNL     1     -47.197  57.560 -60.843  1.00  0.00     0.068 A 
HETATM   36  C   UNL     1     -47.571  58.903 -61.059  1.00  0.00     0.095 A 
HETATM   37  C   UNL     1     -48.406  59.226 -62.136  1.00  0.00     0.039 A 
HETATM   38  C   UNL     1     -48.871  58.226 -62.991  1.00  0.00     0.003 A 
HETATM   39  C   UNL     1     -48.502  56.901 -62.780  1.00  0.00     0.002 A 
HETATM   40  C   UNL     1     -47.666  56.570 -61.711  1.00  0.00     0.032 A 
BRANCH  36  41
HETATM   41  O   UNL     1     -47.064  59.811 -60.157  1.00  0.00    -0.354 OA
HETATM   42  C   UNL     1     -47.697  61.085 -60.109  1.00  0.00     0.210 C 
ENDBRANCH  36  41
ENDBRANCH  32  35
ENDBRANCH   5  31
TORSDOF 9
ENDMDL
MODEL 10
REMARK VINA RESULT:      -7.4      2.535      8.348
REMARK  9 active torsions:
REMARK  status: ('A' for Active; 'I' for Inactive)
REMARK    1  A    between atoms: C_2  and  C_3 
REMARK    2  A    between atoms: C_4  and  N_5 
REMARK       I    between atoms: N_5  and  C_6 
REMARK    3  A    between atoms: C_6  and  C_7 
REMARK    4  A    between atoms: C_7  and  S_8 
REMARK    5  A    between atoms: S_8  and  C_9 
REMARK    6  A    between atoms: C_13  and  C_14 
REMARK       I    between atoms: C_14  and  N_15 
REMARK    7  A    between atoms: N_15  and  C_16 
REMARK    8  A    between atoms: C_17  and  O_18 
REMARK    9  A    between atoms: C_25  and  C_26 
ROOT
HETATM    1  C   UNL     1     -43.466  55.431 -54.291  1.00  0.00     0.087 C 
HETATM    2  N   UNL     1     -43.339  55.158 -55.642  1.00  0.00    -0.353 N 
HETATM    3  C   UNL     1     -43.402  56.123 -56.631  1.00  0.00     0.019 C 
HETATM    4  C   UNL     1     -42.860  55.720 -57.980  1.00  0.00     0.069 C 
HETATM    5  C   UNL     1     -43.899  57.343 -56.330  1.00  0.00     0.046 C 
HETATM    6  C   UNL     1     -44.424  57.664 -54.930  1.00  0.00     0.104 C 
HETATM    7  C   UNL     1     -44.013  56.609 -53.894  1.00  0.00     0.055 C 
HETATM    8  C   UNL     1     -44.083  56.943 -52.413  1.00  0.00     0.019 C 
HETATM    9  N   UNL     1     -44.141  57.221 -51.185  1.00  0.00    -0.096 N 
HETATM   10  H   UNL     1     -42.812  54.312 -55.848  1.00  0.00     0.166 HD
ENDROOT
BRANCH   1  11
HETATM   11  S   UNL     1     -42.830  54.260 -53.140  1.00  0.00    -0.102 SA
BRANCH  11  12
HETATM   12  C   UNL     1     -41.955  53.163 -54.316  1.00  0.00     0.184 C 
BRANCH  12  13
HETATM   13  C   UNL     1     -40.508  53.592 -54.506  1.00  0.00     0.231 C 
HETATM   14  N   UNL     1     -39.488  52.848 -53.958  1.00  0.00    -0.326 N 
HETATM   15  H   UNL     1     -38.655  53.423 -53.891  1.00  0.00     0.169 HD
HETATM   16  O   UNL     1     -40.196  54.608 -55.134  1.00  0.00    -0.272 OA
BRANCH  14  17
HETATM   17  C   UNL     1     -39.626  51.808 -53.023  1.00  0.00     0.041 A 
HETATM   18  C   UNL     1     -39.804  52.024 -51.645  1.00  0.00    -0.032 A 
HETATM   19  C   UNL     1     -39.859  50.902 -50.795  1.00  0.00     0.009 A 
HETATM   20  C   UNL     1     -39.781  49.606 -51.307  1.00  0.00     0.001 A 
HETATM   21  C   UNL     1     -39.675  49.407 -52.678  1.00  0.00     0.002 A 
HETATM   22  C   UNL     1     -39.612  50.505 -53.535  1.00  0.00     0.030 A 
BRANCH  18  23
HETATM   23  C   UNL     1     -40.058  53.385 -51.032  1.00  0.00     0.036 C 
HETATM   24  C   UNL     1     -40.235  53.302 -49.521  1.00  0.00     0.010 C 
ENDBRANCH  18  23
ENDBRANCH  14  17
ENDBRANCH  12  13
ENDBRANCH  11  12
ENDBRANCH   1  11
BRANCH   6  25
HETATM   25  C   UNL     1     -44.081  59.081 -54.474  1.00  0.00    -0.044 A 
HETATM   26  C   UNL     1     -45.091  60.057 -54.413  1.00  0.00     0.008 A 
HETATM   27  C   UNL     1     -44.797  61.357 -54.000  1.00  0.00     0.001 A 
HETATM   28  C   UNL     1     -43.495  61.699 -53.643  1.00  0.00     0.000 A 
HETATM   29  C   UNL     1     -42.485  60.741 -53.696  1.00  0.00     0.001 A 
HETATM   30  C   UNL     1     -42.773  59.439 -54.103  1.00  0.00     0.008 A 
ENDBRANCH   6  25
BRANCH   5  31
HETATM   31  C   UNL     1     -43.749  58.430 -57.329  1.00  0.00     0.255 C 
HETATM   32  N   UNL     1     -44.846  58.581 -58.139  1.00  0.00    -0.321 N 
HETATM   33  H   UNL     1     -45.625  57.940 -58.036  1.00  0.00     0.169 HD
HETATM   34  O   UNL     1     -42.684  59.035 -57.388  1.00  0.00    -0.268 OA
BRANCH  32  35
HETATM   35  C   UNL     1     -45.009  59.515 -59.190  1.00  0.00     0.068 A 
HETATM   36  C   UNL     1     -45.938  60.557 -58.989  1.00  0.00     0.095 A 
HETATM   37  C   UNL     1     -46.141  61.508 -59.996  1.00  0.00     0.039 A 
HETATM   38  C   UNL     1     -45.432  61.427 -61.195  1.00  0.00     0.003 A 
HETATM   39  C   UNL     1     -44.515  60.400 -61.395  1.00  0.00     0.002 A 
HETATM   40  C   UNL     1     -44.302  59.449 -60.394  1.00  0.00     0.032 A 
BRANCH  36  41
HETATM   41  O   UNL     1     -46.588  60.544 -57.775  1.00  0.00    -0.354 OA
HETATM   42  C   UNL     1     -46.843  61.810 -57.176  1.00  0.00     0.210 C 
ENDBRANCH  36  41
ENDBRANCH  32  35
ENDBRANCH   5  31
TORSDOF 9
ENDMDL
