MODEL 1
REMARK VINA RESULT:      -8.8      0.000      0.000
REMARK  6 active torsions:
REMARK  status: ('A' for Active; 'I' for Inactive)
REMARK    1  A    between atoms: C_3  and  C_4 
REMARK    2  A    between atoms: C_4  and  N_5 
REMARK    3  A    between atoms: N_5  and  C_8 
REMARK    4  A    between atoms: C_8  and  C_9 
REMARK    5  A    between atoms: N_12  and  C_13 
REMARK    6  A    between atoms: C_28  and  O_29 
ROOT
HETATM    1  N   UNL     1     -43.026  57.214 -54.632  1.00  0.00    -0.062 N 
HETATM    2  H   UNL     1     -43.729  57.849 -54.241  1.00  0.00     0.278 HD
HETATM    3  H   UNL     1     -43.509  56.340 -54.863  1.00  0.00     0.278 HD
ENDROOT
BRANCH   1   4
HETATM    4  C   UNL     1     -42.554  57.798 -55.906  1.00  0.00     0.290 C 
BRANCH   4   5
HETATM    5  C   UNL     1     -43.370  57.374 -57.077  1.00  0.00     0.042 A 
HETATM    6  C   UNL     1     -44.581  57.788 -57.636  1.00  0.00    -0.025 A 
HETATM    7  C   UNL     1     -45.492  58.887 -57.200  1.00  0.00     0.051 C 
HETATM    8  C   UNL     1     -44.845  56.932 -58.759  1.00  0.00     0.001 A 
HETATM    9  C   UNL     1     -43.791  56.034 -58.863  1.00  0.00     0.043 A 
HETATM   10  C   UNL     1     -45.894  56.836 -59.700  1.00  0.00     0.051 A 
HETATM   11  N   UNL     1     -42.913  56.323 -57.852  1.00  0.00    -0.357 N 
HETATM   12  C   UNL     1     -43.728  55.050 -59.856  1.00  0.00     0.033 A 
HETATM   13  H   UNL     1     -42.053  55.808 -57.709  1.00  0.00     0.166 HD
HETATM   14  C   UNL     1     -44.784  54.976 -60.773  1.00  0.00     0.039 A 
HETATM   15  C   UNL     1     -45.861  55.857 -60.701  1.00  0.00     0.069 A 
BRANCH  15  16
HETATM   16  O   UNL     1     -46.944  55.874 -61.538  1.00  0.00    -0.356 OA
HETATM   17  C   UNL     1     -47.825  56.986 -61.435  1.00  0.00     0.210 C 
ENDBRANCH  15  16
ENDBRANCH   4   5
ENDBRANCH   1   4
BRANCH   1  18
HETATM   18  C   UNL     1     -41.972  56.922 -53.609  1.00  0.00     0.218 C 
HETATM   19  C   UNL     1     -40.980  58.085 -53.620  1.00  0.00     0.045 C 
BRANCH  18  20
HETATM   20  C   UNL     1     -41.302  55.607 -53.834  1.00  0.00     0.015 C 
HETATM   21  C   UNL     1     -41.508  54.395 -53.177  1.00  0.00     0.042 C 
HETATM   22  C   UNL     1     -42.510  54.062 -52.127  1.00  0.00     0.071 C 
HETATM   23  N   UNL     1     -40.594  53.483 -53.722  1.00  0.00    -0.238 N 
HETATM   24  N   UNL     1     -39.994  54.029 -54.813  1.00  0.00    -0.179 NA
HETATM   25  C   UNL     1     -40.329  55.308 -54.806  1.00  0.00     0.150 C 
BRANCH  23  26
HETATM   26  C   UNL     1     -40.241  52.156 -53.330  1.00  0.00     0.058 A 
HETATM   27  C   UNL     1     -40.285  51.133 -54.293  1.00  0.00     0.031 A 
HETATM   28  C   UNL     1     -39.943  49.821 -53.957  1.00  0.00     0.002 A 
HETATM   29  C   UNL     1     -39.537  49.518 -52.661  1.00  0.00     0.000 A 
HETATM   30  C   UNL     1     -39.465  50.528 -51.705  1.00  0.00     0.002 A 
HETATM   31  C   UNL     1     -39.810  51.843 -52.036  1.00  0.00     0.031 A 
ENDBRANCH  23  26
ENDBRANCH  18  20
ENDBRANCH   1  18
TORSDOF 6
ENDMDL
MODEL 2
REMARK VINA RESULT:      -8.6      1.627      2.442
REMARK  6 active torsions:
REMARK  status: ('A' for Active; 'I' for Inactive)
REMARK    1  A    between atoms: C_3  and  C_4 
REMARK    2  A    between atoms: C_4  and  N_5 
REMARK    3  A    between atoms: N_5  and  C_8 
REMARK    4  A    between atoms: C_8  and  C_9 
REMARK    5  A    between atoms: N_12  and  C_13 
REMARK    6  A    between atoms: C_28  and  O_29 
ROOT
HETATM    1  N   UNL     1     -41.555  58.317 -53.169  1.00  0.00    -0.062 N 
HETATM    2  H   UNL     1     -40.782  58.108 -53.809  1.00  0.00     0.278 HD
HETATM    3  H   UNL     1     -41.226  59.047 -52.531  1.00  0.00     0.278 HD
ENDROOT
BRANCH   1   4
HETATM    4  C   UNL     1     -42.652  58.904 -53.971  1.00  0.00     0.290 C 
BRANCH   4   5
HETATM    5  C   UNL     1     -42.795  58.272 -55.312  1.00  0.00     0.042 A 
HETATM    6  C   UNL     1     -43.414  57.118 -55.795  1.00  0.00    -0.025 A 
HETATM    7  C   UNL     1     -44.202  56.090 -55.054  1.00  0.00     0.051 C 
HETATM    8  C   UNL     1     -43.149  57.054 -57.206  1.00  0.00     0.001 A 
HETATM    9  C   UNL     1     -42.392  58.168 -57.545  1.00  0.00     0.043 A 
HETATM   10  C   UNL     1     -43.482  56.142 -58.231  1.00  0.00     0.051 A 
HETATM   11  N   UNL     1     -42.200  58.891 -56.397  1.00  0.00    -0.357 N 
HETATM   12  C   UNL     1     -41.955  58.421 -58.851  1.00  0.00     0.033 A 
HETATM   13  H   UNL     1     -41.677  59.757 -56.375  1.00  0.00     0.166 HD
HETATM   14  C   UNL     1     -42.298  57.496 -59.845  1.00  0.00     0.039 A 
HETATM   15  C   UNL     1     -43.052  56.365 -59.546  1.00  0.00     0.069 A 
BRANCH  15  16
HETATM   16  O   UNL     1     -43.440  55.399 -60.434  1.00  0.00    -0.356 OA
HETATM   17  C   UNL     1     -44.836  55.147 -60.549  1.00  0.00     0.210 C 
ENDBRANCH  15  16
ENDBRANCH   4   5
ENDBRANCH   1   4
BRANCH   1  18
HETATM   18  C   UNL     1     -41.902  57.100 -52.368  1.00  0.00     0.218 C 
HETATM   19  C   UNL     1     -41.439  57.343 -50.932  1.00  0.00     0.045 C 
BRANCH  18  20
HETATM   20  C   UNL     1     -41.323  55.850 -52.942  1.00  0.00     0.015 C 
HETATM   21  C   UNL     1     -41.467  54.535 -52.501  1.00  0.00     0.042 C 
HETATM   22  C   UNL     1     -42.303  54.012 -51.385  1.00  0.00     0.071 C 
HETATM   23  N   UNL     1     -40.684  53.739 -53.348  1.00  0.00    -0.238 N 
HETATM   24  N   UNL     1     -40.243  54.481 -54.398  1.00  0.00    -0.179 NA
HETATM   25  C   UNL     1     -40.527  55.738 -54.097  1.00  0.00     0.150 C 
BRANCH  23  26
HETATM   26  C   UNL     1     -40.321  52.361 -53.275  1.00  0.00     0.058 A 
HETATM   27  C   UNL     1     -39.775  51.869 -52.076  1.00  0.00     0.031 A 
HETATM   28  C   UNL     1     -39.409  50.526 -51.957  1.00  0.00     0.002 A 
HETATM   29  C   UNL     1     -39.600  49.655 -53.025  1.00  0.00     0.000 A 
HETATM   30  C   UNL     1     -40.164  50.125 -54.209  1.00  0.00     0.002 A 
HETATM   31  C   UNL     1     -40.528  51.470 -54.335  1.00  0.00     0.031 A 
ENDBRANCH  23  26
ENDBRANCH  18  20
ENDBRANCH   1  18
TORSDOF 6
ENDMDL
MODEL 3
REMARK VINA RESULT:      -8.5      3.114      7.827
REMARK  6 active torsions:
REMARK  status: ('A' for Active; 'I' for Inactive)
REMARK    1  A    between atoms: C_3  and  C_4 
REMARK    2  A    between atoms: C_4  and  N_5 
REMARK    3  A    between atoms: N_5  and  C_8 
REMARK    4  A    between atoms: C_8  and  C_9 
REMARK    5  A    between atoms: N_12  and  C_13 
REMARK    6  A    between atoms: C_28  and  O_29 
ROOT
HETATM    1  N   UNL     1     -42.539  57.659 -50.789  1.00  0.00    -0.062 N 
HETATM    2  H   UNL     1     -42.999  56.986 -51.411  1.00  0.00     0.278 HD
HETATM    3  H   UNL     1     -43.159  57.794 -49.985  1.00  0.00     0.278 HD
ENDROOT
BRANCH   1   4
HETATM    4  C   UNL     1     -41.303  57.024 -50.280  1.00  0.00     0.290 C 
BRANCH   4   5
HETATM    5  C   UNL     1     -41.004  55.723 -50.940  1.00  0.00     0.042 A 
HETATM    6  C   UNL     1     -40.406  54.528 -50.534  1.00  0.00    -0.025 A 
HETATM    7  C   UNL     1     -39.855  54.156 -49.198  1.00  0.00     0.051 C 
HETATM    8  C   UNL     1     -40.385  53.655 -51.676  1.00  0.00     0.001 A 
HETATM    9  C   UNL     1     -40.978  54.331 -52.735  1.00  0.00     0.043 A 
HETATM   10  C   UNL     1     -39.910  52.347 -51.907  1.00  0.00     0.051 A 
HETATM   11  N   UNL     1     -41.351  55.565 -52.270  1.00  0.00    -0.357 N 
HETATM   12  C   UNL     1     -41.122  53.768 -54.008  1.00  0.00     0.033 A 
HETATM   13  H   UNL     1     -41.810  56.254 -52.851  1.00  0.00     0.166 HD
HETATM   14  C   UNL     1     -40.637  52.469 -54.208  1.00  0.00     0.039 A 
HETATM   15  C   UNL     1     -40.035  51.759 -53.173  1.00  0.00     0.069 A 
BRANCH  15  16
HETATM   16  O   UNL     1     -39.525  50.492 -53.256  1.00  0.00    -0.356 OA
HETATM   17  C   UNL     1     -39.648  49.824 -54.506  1.00  0.00     0.210 C 
ENDBRANCH  15  16
ENDBRANCH   4   5
ENDBRANCH   1   4
BRANCH   1  18
HETATM   18  C   UNL     1     -42.367  58.972 -51.489  1.00  0.00     0.218 C 
HETATM   19  C   UNL     1     -43.487  59.899 -51.017  1.00  0.00     0.045 C 
BRANCH  18  20
HETATM   20  C   UNL     1     -42.340  58.832 -52.975  1.00  0.00     0.015 C 
HETATM   21  C   UNL     1     -43.217  58.135 -53.805  1.00  0.00     0.042 C 
HETATM   22  C   UNL     1     -44.465  57.407 -53.443  1.00  0.00     0.071 C 
HETATM   23  N   UNL     1     -42.726  58.270 -55.111  1.00  0.00    -0.238 N 
HETATM   24  N   UNL     1     -41.718  59.182 -55.131  1.00  0.00    -0.179 NA
HETATM   25  C   UNL     1     -41.424  59.422 -53.864  1.00  0.00     0.150 C 
BRANCH  23  26
HETATM   26  C   UNL     1     -43.114  57.641 -56.332  1.00  0.00     0.058 A 
HETATM   27  C   UNL     1     -43.914  58.359 -57.237  1.00  0.00     0.031 A 
HETATM   28  C   UNL     1     -44.314  57.787 -58.447  1.00  0.00     0.002 A 
HETATM   29  C   UNL     1     -43.907  56.498 -58.775  1.00  0.00     0.000 A 
HETATM   30  C   UNL     1     -43.092  55.785 -57.898  1.00  0.00     0.002 A 
HETATM   31  C   UNL     1     -42.691  56.353 -56.683  1.00  0.00     0.031 A 
ENDBRANCH  23  26
ENDBRANCH  18  20
ENDBRANCH   1  18
TORSDOF 6
ENDMDL
MODEL 4
REMARK VINA RESULT:      -8.2      2.799      7.969
REMARK  6 active torsions:
REMARK  status: ('A' for Active; 'I' for Inactive)
REMARK    1  A    between atoms: C_3  and  C_4 
REMARK    2  A    between atoms: C_4  and  N_5 
REMARK    3  A    between atoms: N_5  and  C_8 
REMARK    4  A    between atoms: C_8  and  C_9 
REMARK    5  A    between atoms: N_12  and  C_13 
REMARK    6  A    between atoms: C_28  and  O_29 
ROOT
HETATM    1  N   UNL     1     -41.185  58.090 -53.830  1.00  0.00    -0.062 N 
HETATM    2  H   UNL     1     -40.376  58.518 -53.369  1.00  0.00     0.278 HD
HETATM    3  H   UNL     1     -40.820  57.485 -54.572  1.00  0.00     0.278 HD
ENDROOT
BRANCH   1   4
HETATM    4  C   UNL     1     -41.849  57.211 -52.842  1.00  0.00     0.290 C 
BRANCH   4   5
HETATM    5  C   UNL     1     -41.323  55.818 -52.857  1.00  0.00     0.042 A 
HETATM    6  C   UNL     1     -41.043  54.882 -53.855  1.00  0.00    -0.025 A 
HETATM    7  C   UNL     1     -41.182  55.012 -55.335  1.00  0.00     0.051 C 
HETATM    8  C   UNL     1     -40.584  53.688 -53.199  1.00  0.00     0.001 A 
HETATM    9  C   UNL     1     -40.585  53.930 -51.832  1.00  0.00     0.043 A 
HETATM   10  C   UNL     1     -40.171  52.415 -53.647  1.00  0.00     0.051 A 
HETATM   11  N   UNL     1     -41.021  55.216 -51.649  1.00  0.00    -0.357 N 
HETATM   12  C   UNL     1     -40.191  52.971 -50.891  1.00  0.00     0.033 A 
HETATM   13  H   UNL     1     -41.110  55.640 -50.734  1.00  0.00     0.166 HD
HETATM   14  C   UNL     1     -39.790  51.716 -51.365  1.00  0.00     0.039 A 
HETATM   15  C   UNL     1     -39.778  51.432 -52.729  1.00  0.00     0.069 A 
BRANCH  15  16
HETATM   16  O   UNL     1     -39.409  50.245 -53.301  1.00  0.00    -0.356 OA
HETATM   17  C   UNL     1     -40.023  49.903 -54.538  1.00  0.00     0.210 C 
ENDBRANCH  15  16
ENDBRANCH   4   5
ENDBRANCH   1   4
BRANCH   1  18
HETATM   18  C   UNL     1     -42.042  59.148 -54.453  1.00  0.00     0.218 C 
HETATM   19  C   UNL     1     -43.201  59.429 -53.497  1.00  0.00     0.045 C 
BRANCH  18  20
HETATM   20  C   UNL     1     -42.517  58.772 -55.818  1.00  0.00     0.015 C 
HETATM   21  C   UNL     1     -43.465  57.818 -56.184  1.00  0.00     0.042 C 
HETATM   22  C   UNL     1     -44.319  56.968 -55.308  1.00  0.00     0.071 C 
HETATM   23  N   UNL     1     -43.510  57.813 -57.584  1.00  0.00    -0.238 N 
HETATM   24  N   UNL     1     -42.791  58.859 -58.071  1.00  0.00    -0.179 NA
HETATM   25  C   UNL     1     -42.123  59.348 -57.040  1.00  0.00     0.150 C 
BRANCH  23  26
HETATM   26  C   UNL     1     -44.166  56.939 -58.502  1.00  0.00     0.058 A 
HETATM   27  C   UNL     1     -43.555  55.713 -58.821  1.00  0.00     0.031 A 
HETATM   28  C   UNL     1     -44.161  54.823 -59.711  1.00  0.00     0.002 A 
HETATM   29  C   UNL     1     -45.392  55.137 -60.278  1.00  0.00     0.000 A 
HETATM   30  C   UNL     1     -46.020  56.336 -59.950  1.00  0.00     0.002 A 
HETATM   31  C   UNL     1     -45.415  57.233 -59.062  1.00  0.00     0.031 A 
ENDBRANCH  23  26
ENDBRANCH  18  20
ENDBRANCH   1  18
TORSDOF 6
ENDMDL
MODEL 5
REMARK VINA RESULT:      -8.2      2.278      2.663
REMARK  6 active torsions:
REMARK  status: ('A' for Active; 'I' for Inactive)
REMARK    1  A    between atoms: C_3  and  C_4 
REMARK    2  A    between atoms: C_4  and  N_5 
REMARK    3  A    between atoms: N_5  and  C_8 
REMARK    4  A    between atoms: C_8  and  C_9 
REMARK    5  A    between atoms: N_12  and  C_13 
REMARK    6  A    between atoms: C_28  and  O_29 
ROOT
HETATM    1  N   UNL     1     -42.248  58.042 -53.416  1.00  0.00    -0.062 N 
HETATM    2  H   UNL     1     -41.398  58.143 -53.980  1.00  0.00     0.278 HD
HETATM    3  H   UNL     1     -42.401  58.939 -52.944  1.00  0.00     0.278 HD
ENDROOT
BRANCH   1   4
HETATM    4  C   UNL     1     -43.382  57.843 -54.346  1.00  0.00     0.290 C 
BRANCH   4   5
HETATM    5  C   UNL     1     -43.012  58.073 -55.770  1.00  0.00     0.042 A 
HETATM    6  C   UNL     1     -42.600  59.180 -56.515  1.00  0.00    -0.025 A 
HETATM    7  C   UNL     1     -42.369  60.584 -56.065  1.00  0.00     0.051 C 
HETATM    8  C   UNL     1     -42.434  58.740 -57.873  1.00  0.00     0.001 A 
HETATM    9  C   UNL     1     -42.735  57.385 -57.917  1.00  0.00     0.043 A 
HETATM   10  C   UNL     1     -42.058  59.376 -59.075  1.00  0.00     0.051 A 
HETATM   11  N   UNL     1     -43.068  57.002 -56.645  1.00  0.00    -0.357 N 
HETATM   12  C   UNL     1     -42.676  56.633 -59.097  1.00  0.00     0.033 A 
HETATM   13  H   UNL     1     -43.328  56.053 -56.408  1.00  0.00     0.166 HD
HETATM   14  C   UNL     1     -42.304  57.293 -60.275  1.00  0.00     0.039 A 
HETATM   15  C   UNL     1     -41.997  58.651 -60.273  1.00  0.00     0.069 A 
BRANCH  15  16
HETATM   16  O   UNL     1     -41.626  59.394 -61.360  1.00  0.00    -0.356 OA
HETATM   17  C   UNL     1     -42.470  60.481 -61.721  1.00  0.00     0.210 C 
ENDBRANCH  15  16
ENDBRANCH   4   5
ENDBRANCH   1   4
BRANCH   1  18
HETATM   18  C   UNL     1     -42.054  56.982 -52.377  1.00  0.00     0.218 C 
HETATM   19  C   UNL     1     -41.221  57.586 -51.247  1.00  0.00     0.045 C 
BRANCH  18  20
HETATM   20  C   UNL     1     -41.434  55.741 -52.931  1.00  0.00     0.015 C 
HETATM   21  C   UNL     1     -41.550  54.428 -52.479  1.00  0.00     0.042 C 
HETATM   22  C   UNL     1     -42.386  53.893 -51.369  1.00  0.00     0.071 C 
HETATM   23  N   UNL     1     -40.735  53.645 -53.308  1.00  0.00    -0.238 N 
HETATM   24  N   UNL     1     -40.299  54.388 -54.360  1.00  0.00    -0.179 NA
HETATM   25  C   UNL     1     -40.620  55.639 -54.074  1.00  0.00     0.150 C 
BRANCH  23  26
HETATM   26  C   UNL     1     -40.337  52.277 -53.217  1.00  0.00     0.058 A 
HETATM   27  C   UNL     1     -40.485  51.454 -54.347  1.00  0.00     0.031 A 
HETATM   28  C   UNL     1     -40.105  50.110 -54.306  1.00  0.00     0.002 A 
HETATM   29  C   UNL     1     -39.557  49.577 -53.144  1.00  0.00     0.000 A 
HETATM   30  C   UNL     1     -39.381  50.389 -52.026  1.00  0.00     0.002 A 
HETATM   31  C   UNL     1     -39.763  51.735 -52.061  1.00  0.00     0.031 A 
ENDBRANCH  23  26
ENDBRANCH  18  20
ENDBRANCH   1  18
TORSDOF 6
ENDMDL
MODEL 6
REMARK VINA RESULT:      -8.0      2.969      8.088
REMARK  6 active torsions:
REMARK  status: ('A' for Active; 'I' for Inactive)
REMARK    1  A    between atoms: C_3  and  C_4 
REMARK    2  A    between atoms: C_4  and  N_5 
REMARK    3  A    between atoms: N_5  and  C_8 
REMARK    4  A    between atoms: C_8  and  C_9 
REMARK    5  A    between atoms: N_12  and  C_13 
REMARK    6  A    between atoms: C_28  and  O_29 
ROOT
HETATM    1  N   UNL     1     -41.201  57.963 -53.014  1.00  0.00    -0.062 N 
HETATM    2  H   UNL     1     -40.343  58.424 -52.694  1.00  0.00     0.278 HD
HETATM    3  H   UNL     1     -40.938  57.346 -53.788  1.00  0.00     0.278 HD
ENDROOT
BRANCH   1   4
HETATM    4  C   UNL     1     -41.681  57.097 -51.914  1.00  0.00     0.290 C 
BRANCH   4   5
HETATM    5  C   UNL     1     -41.266  55.676 -52.071  1.00  0.00     0.042 A 
HETATM    6  C   UNL     1     -41.015  54.620 -51.192  1.00  0.00    -0.025 A 
HETATM    7  C   UNL     1     -41.111  54.591 -49.703  1.00  0.00     0.051 C 
HETATM    8  C   UNL     1     -40.608  53.494 -51.987  1.00  0.00     0.001 A 
HETATM    9  C   UNL     1     -40.634  53.886 -53.319  1.00  0.00     0.043 A 
HETATM   10  C   UNL     1     -40.213  52.172 -51.692  1.00  0.00     0.051 A 
HETATM   11  N   UNL     1     -41.042  55.194 -53.348  1.00  0.00    -0.357 N 
HETATM   12  C   UNL     1     -40.291  53.027 -54.370  1.00  0.00     0.033 A 
HETATM   13  H   UNL     1     -41.145  55.716 -54.209  1.00  0.00     0.166 HD
HETATM   14  C   UNL     1     -39.900  51.721 -54.046  1.00  0.00     0.039 A 
HETATM   15  C   UNL     1     -39.857  51.291 -52.722  1.00  0.00     0.069 A 
BRANCH  15  16
HETATM   16  O   UNL     1     -39.489  50.045 -52.292  1.00  0.00    -0.356 OA
HETATM   17  C   UNL     1     -39.397  49.845 -50.887  1.00  0.00     0.210 C 
ENDBRANCH  15  16
ENDBRANCH   4   5
ENDBRANCH   1   4
BRANCH   1  18
HETATM   18  C   UNL     1     -42.173  58.983 -53.523  1.00  0.00     0.218 C 
HETATM   19  C   UNL     1     -43.374  58.991 -52.578  1.00  0.00     0.045 C 
BRANCH  18  20
HETATM   20  C   UNL     1     -42.573  58.737 -54.940  1.00  0.00     0.015 C 
HETATM   21  C   UNL     1     -43.374  57.723 -55.460  1.00  0.00     0.042 C 
HETATM   22  C   UNL     1     -44.115  56.653 -54.734  1.00  0.00     0.071 C 
HETATM   23  N   UNL     1     -43.401  57.904 -56.850  1.00  0.00    -0.238 N 
HETATM   24  N   UNL     1     -42.827  59.095 -57.169  1.00  0.00    -0.179 NA
HETATM   25  C   UNL     1     -42.246  59.524 -56.060  1.00  0.00     0.150 C 
BRANCH  23  26
HETATM   26  C   UNL     1     -43.917  57.083 -57.897  1.00  0.00     0.058 A 
HETATM   27  C   UNL     1     -45.063  57.513 -58.590  1.00  0.00     0.031 A 
HETATM   28  C   UNL     1     -45.601  56.745 -59.625  1.00  0.00     0.002 A 
HETATM   29  C   UNL     1     -44.993  55.549 -59.993  1.00  0.00     0.000 A 
HETATM   30  C   UNL     1     -43.842  55.126 -59.332  1.00  0.00     0.002 A 
HETATM   31  C   UNL     1     -43.301  55.890 -58.292  1.00  0.00     0.031 A 
ENDBRANCH  23  26
ENDBRANCH  18  20
ENDBRANCH   1  18
TORSDOF 6
ENDMDL
MODEL 7
REMARK VINA RESULT:      -8.0      5.555      9.666
REMARK  6 active torsions:
REMARK  status: ('A' for Active; 'I' for Inactive)
REMARK    1  A    between atoms: C_3  and  C_4 
REMARK    2  A    between atoms: C_4  and  N_5 
REMARK    3  A    between atoms: N_5  and  C_8 
REMARK    4  A    between atoms: C_8  and  C_9 
REMARK    5  A    between atoms: N_12  and  C_13 
REMARK    6  A    between atoms: C_28  and  O_29 
ROOT
HETATM    1  N   UNL     1     -41.950  58.405 -51.819  1.00  0.00    -0.062 N 
HETATM    2  H   UNL     1     -41.446  59.220 -51.456  1.00  0.00     0.278 HD
HETATM    3  H   UNL     1     -41.432  58.075 -52.639  1.00  0.00     0.278 HD
ENDROOT
BRANCH   1   4
HETATM    4  C   UNL     1     -41.868  57.337 -50.797  1.00  0.00     0.290 C 
BRANCH   4   5
HETATM    5  C   UNL     1     -41.431  56.029 -51.358  1.00  0.00     0.042 A 
HETATM    6  C   UNL     1     -40.952  54.835 -50.815  1.00  0.00    -0.025 A 
HETATM    7  C   UNL     1     -40.732  54.472 -49.384  1.00  0.00     0.051 C 
HETATM    8  C   UNL     1     -40.670  53.952 -51.914  1.00  0.00     0.001 A 
HETATM    9  C   UNL     1     -40.993  54.621 -53.087  1.00  0.00     0.043 A 
HETATM   10  C   UNL     1     -40.162  52.639 -52.017  1.00  0.00     0.051 A 
HETATM   11  N   UNL     1     -41.457  55.860 -52.731  1.00  0.00    -0.357 N 
HETATM   12  C   UNL     1     -40.839  54.048 -54.355  1.00  0.00     0.033 A 
HETATM   13  H   UNL     1     -41.763  56.546 -53.410  1.00  0.00     0.166 HD
HETATM   14  C   UNL     1     -40.330  52.745 -54.426  1.00  0.00     0.039 A 
HETATM   15  C   UNL     1     -39.991  52.042 -53.273  1.00  0.00     0.069 A 
BRANCH  15  16
HETATM   16  O   UNL     1     -39.484  50.772 -53.225  1.00  0.00    -0.356 OA
HETATM   17  C   UNL     1     -39.625  49.972 -54.393  1.00  0.00     0.210 C 
ENDBRANCH  15  16
ENDBRANCH   4   5
ENDBRANCH   1   4
BRANCH   1  18
HETATM   18  C   UNL     1     -43.328  58.801 -52.250  1.00  0.00     0.218 C 
HETATM   19  C   UNL     1     -43.188  59.722 -53.462  1.00  0.00     0.045 C 
BRANCH  18  20
HETATM   20  C   UNL     1     -44.114  59.433 -51.150  1.00  0.00     0.015 C 
HETATM   21  C   UNL     1     -43.802  60.554 -50.383  1.00  0.00     0.042 C 
HETATM   22  C   UNL     1     -42.636  61.474 -50.505  1.00  0.00     0.071 C 
HETATM   23  N   UNL     1     -44.838  60.705 -49.451  1.00  0.00    -0.238 N 
HETATM   24  N   UNL     1     -45.856  59.856 -49.754  1.00  0.00    -0.179 NA
HETATM   25  C   UNL     1     -45.381  59.039 -50.680  1.00  0.00     0.150 C 
BRANCH  23  26
HETATM   26  C   UNL     1     -44.970  61.567 -48.321  1.00  0.00     0.058 A 
HETATM   27  C   UNL     1     -45.055  60.992 -47.040  1.00  0.00     0.031 A 
HETATM   28  C   UNL     1     -45.180  61.796 -45.904  1.00  0.00     0.002 A 
HETATM   29  C   UNL     1     -45.206  63.181 -46.031  1.00  0.00     0.000 A 
HETATM   30  C   UNL     1     -45.096  63.763 -47.292  1.00  0.00     0.002 A 
HETATM   31  C   UNL     1     -44.974  62.962 -48.434  1.00  0.00     0.031 A 
ENDBRANCH  23  26
ENDBRANCH  18  20
ENDBRANCH   1  18
TORSDOF 6
ENDMDL
MODEL 8
REMARK VINA RESULT:      -7.9      1.839      2.932
REMARK  6 active torsions:
REMARK  status: ('A' for Active; 'I' for Inactive)
REMARK    1  A    between atoms: C_3  and  C_4 
REMARK    2  A    between atoms: C_4  and  N_5 
REMARK    3  A    between atoms: N_5  and  C_8 
REMARK    4  A    between atoms: C_8  and  C_9 
REMARK    5  A    between atoms: N_12  and  C_13 
REMARK    6  A    between atoms: C_28  and  O_29 
ROOT
HETATM    1  N   UNL     1     -43.460  58.618 -52.950  1.00  0.00    -0.062 N 
HETATM    2  H   UNL     1     -42.571  58.542 -53.454  1.00  0.00     0.278 HD
HETATM    3  H   UNL     1     -43.276  59.152 -52.096  1.00  0.00     0.278 HD
ENDROOT
BRANCH   1   4
HETATM    4  C   UNL     1     -44.376  59.431 -53.780  1.00  0.00     0.290 C 
BRANCH   4   5
HETATM    5  C   UNL     1     -44.628  58.836 -55.122  1.00  0.00     0.042 A 
HETATM    6  C   UNL     1     -43.830  58.239 -56.100  1.00  0.00    -0.025 A 
HETATM    7  C   UNL     1     -42.360  57.980 -56.087  1.00  0.00     0.051 C 
HETATM    8  C   UNL     1     -44.689  57.903 -57.202  1.00  0.00     0.001 A 
HETATM    9  C   UNL     1     -45.980  58.289 -56.864  1.00  0.00     0.043 A 
HETATM   10  C   UNL     1     -44.484  57.307 -58.464  1.00  0.00     0.051 A 
HETATM   11  N   UNL     1     -45.923  58.836 -55.609  1.00  0.00    -0.357 N 
HETATM   12  C   UNL     1     -47.074  58.107 -57.717  1.00  0.00     0.033 A 
HETATM   13  H   UNL     1     -46.739  59.195 -55.130  1.00  0.00     0.166 HD
HETATM   14  C   UNL     1     -46.840  57.516 -58.965  1.00  0.00     0.039 A 
HETATM   15  C   UNL     1     -45.560  57.118 -59.343  1.00  0.00     0.069 A 
BRANCH  15  16
HETATM   16  O   UNL     1     -45.216  56.536 -60.533  1.00  0.00    -0.356 OA
HETATM   17  C   UNL     1     -44.665  55.226 -60.479  1.00  0.00     0.210 C 
ENDBRANCH  15  16
ENDBRANCH   4   5
ENDBRANCH   1   4
BRANCH   1  18
HETATM   18  C   UNL     1     -43.951  57.256 -52.567  1.00  0.00     0.218 C 
HETATM   19  C   UNL     1     -44.758  57.400 -51.277  1.00  0.00     0.045 C 
BRANCH  18  20
HETATM   20  C   UNL     1     -42.844  56.264 -52.431  1.00  0.00     0.015 C 
HETATM   21  C   UNL     1     -42.575  55.140 -53.211  1.00  0.00     0.042 C 
HETATM   22  C   UNL     1     -43.272  54.668 -54.440  1.00  0.00     0.071 C 
HETATM   23  N   UNL     1     -41.459  54.513 -52.640  1.00  0.00    -0.238 N 
HETATM   24  N   UNL     1     -40.921  55.314 -51.683  1.00  0.00    -0.179 NA
HETATM   25  C   UNL     1     -41.799  56.284 -51.489  1.00  0.00     0.150 C 
BRANCH  23  26
HETATM   26  C   UNL     1     -40.848  53.252 -52.910  1.00  0.00     0.058 A 
HETATM   27  C   UNL     1     -40.154  52.602 -51.873  1.00  0.00     0.031 A 
HETATM   28  C   UNL     1     -39.543  51.365 -52.089  1.00  0.00     0.002 A 
HETATM   29  C   UNL     1     -39.632  50.752 -53.335  1.00  0.00     0.000 A 
HETATM   30  C   UNL     1     -40.339  51.373 -54.362  1.00  0.00     0.002 A 
HETATM   31  C   UNL     1     -40.950  52.615 -54.152  1.00  0.00     0.031 A 
ENDBRANCH  23  26
ENDBRANCH  18  20
ENDBRANCH   1  18
TORSDOF 6
ENDMDL
MODEL 9
REMARK VINA RESULT:      -7.9      1.739      2.207
REMARK  6 active torsions:
REMARK  status: ('A' for Active; 'I' for Inactive)
REMARK    1  A    between atoms: C_3  and  C_4 
REMARK    2  A    between atoms: C_4  and  N_5 
REMARK    3  A    between atoms: N_5  and  C_8 
REMARK    4  A    between atoms: C_8  and  C_9 
REMARK    5  A    between atoms: N_12  and  C_13 
REMARK    6  A    between atoms: C_28  and  O_29 
ROOT
HETATM    1  N   UNL     1     -43.213  57.575 -52.708  1.00  0.00    -0.062 N 
HETATM    2  H   UNL     1     -43.091  58.417 -53.278  1.00  0.00     0.278 HD
HETATM    3  H   UNL     1     -43.844  57.823 -51.940  1.00  0.00     0.278 HD
ENDROOT
BRANCH   1   4
HETATM    4  C   UNL     1     -43.915  56.570 -53.537  1.00  0.00     0.290 C 
BRANCH   4   5
HETATM    5  C   UNL     1     -43.905  56.905 -54.988  1.00  0.00     0.042 A 
HETATM    6  C   UNL     1     -44.382  57.969 -55.756  1.00  0.00    -0.025 A 
HETATM    7  C   UNL     1     -45.090  59.206 -55.315  1.00  0.00     0.051 C 
HETATM    8  C   UNL     1     -44.082  57.668 -57.129  1.00  0.00     0.001 A 
HETATM    9  C   UNL     1     -43.425  56.445 -57.160  1.00  0.00     0.043 A 
HETATM   10  C   UNL     1     -44.316  58.327 -58.355  1.00  0.00     0.051 A 
HETATM   11  N   UNL     1     -43.320  56.010 -55.865  1.00  0.00    -0.357 N 
HETATM   12  C   UNL     1     -42.987  55.849 -58.348  1.00  0.00     0.033 A 
HETATM   13  H   UNL     1     -42.874  55.136 -55.615  1.00  0.00     0.166 HD
HETATM   14  C   UNL     1     -43.236  56.524 -59.550  1.00  0.00     0.039 A 
HETATM   15  C   UNL     1     -43.895  57.751 -59.562  1.00  0.00     0.069 A 
BRANCH  15  16
HETATM   16  O   UNL     1     -44.192  58.494 -60.671  1.00  0.00    -0.356 OA
HETATM   17  C   UNL     1     -43.470  59.706 -60.853  1.00  0.00     0.210 C 
ENDBRANCH  15  16
ENDBRANCH   4   5
ENDBRANCH   1   4
BRANCH   1  18
HETATM   18  C   UNL     1     -41.899  57.151 -52.129  1.00  0.00     0.218 C 
HETATM   19  C   UNL     1     -40.940  58.337 -52.237  1.00  0.00     0.045 C 
BRANCH  18  20
HETATM   20  C   UNL     1     -41.353  55.924 -52.782  1.00  0.00     0.015 C 
HETATM   21  C   UNL     1     -41.472  54.594 -52.384  1.00  0.00     0.042 C 
HETATM   22  C   UNL     1     -42.245  54.027 -51.243  1.00  0.00     0.071 C 
HETATM   23  N   UNL     1     -40.738  53.832 -53.303  1.00  0.00    -0.238 N 
HETATM   24  N   UNL     1     -40.356  54.614 -54.347  1.00  0.00    -0.179 NA
HETATM   25  C   UNL     1     -40.622  55.858 -53.982  1.00  0.00     0.150 C 
BRANCH  23  26
HETATM   26  C   UNL     1     -40.372  52.453 -53.303  1.00  0.00     0.058 A 
HETATM   27  C   UNL     1     -39.753  51.918 -52.158  1.00  0.00     0.031 A 
HETATM   28  C   UNL     1     -39.382  50.572 -52.110  1.00  0.00     0.002 A 
HETATM   29  C   UNL     1     -39.638  49.741 -53.196  1.00  0.00     0.000 A 
HETATM   30  C   UNL     1     -40.273  50.252 -54.325  1.00  0.00     0.002 A 
HETATM   31  C   UNL     1     -40.644  51.601 -54.379  1.00  0.00     0.031 A 
ENDBRANCH  23  26
ENDBRANCH  18  20
ENDBRANCH   1  18
TORSDOF 6
ENDMDL
MODEL 10
REMARK VINA RESULT:      -7.8      3.063      9.635
REMARK  6 active torsions:
REMARK  status: ('A' for Active; 'I' for Inactive)
REMARK    1  A    between atoms: C_3  and  C_4 
REMARK    2  A    between atoms: C_4  and  N_5 
REMARK    3  A    between atoms: N_5  and  C_8 
REMARK    4  A    between atoms: C_8  and  C_9 
REMARK    5  A    between atoms: N_12  and  C_13 
REMARK    6  A    between atoms: C_28  and  O_29 
ROOT
HETATM    1  N   UNL     1     -43.298  55.819 -56.630  1.00  0.00    -0.062 N 
HETATM    2  H   UNL     1     -42.940  54.873 -56.794  1.00  0.00     0.278 HD
HETATM    3  H   UNL     1     -44.296  55.727 -56.415  1.00  0.00     0.278 HD
ENDROOT
BRANCH   1   4
HETATM    4  C   UNL     1     -42.640  56.343 -55.413  1.00  0.00     0.290 C 
BRANCH   4   5
HETATM    5  C   UNL     1     -42.031  55.273 -54.576  1.00  0.00     0.042 A 
HETATM    6  C   UNL     1     -41.863  55.071 -53.204  1.00  0.00    -0.025 A 
HETATM    7  C   UNL     1     -42.297  55.932 -52.065  1.00  0.00     0.051 C 
HETATM    8  C   UNL     1     -41.149  53.834 -53.042  1.00  0.00     0.001 A 
HETATM    9  C   UNL     1     -40.914  53.313 -54.308  1.00  0.00     0.043 A 
HETATM   10  C   UNL     1     -40.675  53.109 -51.928  1.00  0.00     0.051 A 
HETATM   11  N   UNL     1     -41.459  54.185 -55.212  1.00  0.00    -0.357 N 
HETATM   12  C   UNL     1     -40.235  52.107 -54.518  1.00  0.00     0.033 A 
HETATM   13  H   UNL     1     -41.424  54.032 -56.212  1.00  0.00     0.166 HD
HETATM   14  C   UNL     1     -39.773  51.412 -53.393  1.00  0.00     0.039 A 
HETATM   15  C   UNL     1     -39.986  51.902 -52.107  1.00  0.00     0.069 A 
BRANCH  15  16
HETATM   16  O   UNL     1     -39.579  51.311 -50.942  1.00  0.00    -0.356 OA
HETATM   17  C   UNL     1     -39.635  49.890 -50.882  1.00  0.00     0.210 C 
ENDBRANCH  15  16
ENDBRANCH   4   5
ENDBRANCH   1   4
BRANCH   1  18
HETATM   18  C   UNL     1     -43.150  56.647 -57.869  1.00  0.00     0.218 C 
HETATM   19  C   UNL     1     -42.239  57.828 -57.531  1.00  0.00     0.045 C 
BRANCH  18  20
HETATM   20  C   UNL     1     -44.463  57.090 -58.425  1.00  0.00     0.015 C 
HETATM   21  C   UNL     1     -45.071  56.730 -59.627  1.00  0.00     0.042 C 
HETATM   22  C   UNL     1     -44.613  55.745 -60.645  1.00  0.00     0.071 C 
HETATM   23  N   UNL     1     -46.265  57.459 -59.706  1.00  0.00    -0.238 N 
HETATM   24  N   UNL     1     -46.505  58.080 -58.521  1.00  0.00    -0.179 NA
HETATM   25  C   UNL     1     -45.394  57.951 -57.815  1.00  0.00     0.150 C 
BRANCH  23  26
HETATM   26  C   UNL     1     -47.201  57.619 -60.772  1.00  0.00     0.058 A 
HETATM   27  C   UNL     1     -47.529  58.920 -61.193  1.00  0.00     0.031 A 
HETATM   28  C   UNL     1     -48.435  59.126 -62.235  1.00  0.00     0.002 A 
HETATM   29  C   UNL     1     -49.012  58.037 -62.881  1.00  0.00     0.000 A 
HETATM   30  C   UNL     1     -48.676  56.743 -62.491  1.00  0.00     0.002 A 
HETATM   31  C   UNL     1     -47.770  56.532 -61.444  1.00  0.00     0.031 A 
ENDBRANCH  23  26
ENDBRANCH  18  20
ENDBRANCH   1  18
TORSDOF 6
ENDMDL
