MODEL 1
REMARK VINA RESULT:      -8.2      0.000      0.000
REMARK  4 active torsions:
REMARK  status: ('A' for Active; 'I' for Inactive)
REMARK    1  A    between atoms: C_3  and  C_4 
REMARK    2  A    between atoms: C_5  and  C_6 
REMARK       I    between atoms: C_6  and  N_7 
REMARK    3  A    between atoms: N_7  and  C_8 
REMARK    4  A    between atoms: C_15  and  C_16 
REMARK       I    between atoms: C_16  and  N_17 
ROOT
HETATM    1  C   UNL     1     -42.721  55.266 -55.573  1.00  0.00     0.035 A 
HETATM    2  C   UNL     1     -42.647  55.558 -56.942  1.00  0.00     0.046 A 
HETATM    3  C   UNL     1     -43.134  56.796 -57.419  1.00  0.00     0.030 A 
HETATM    4  C   UNL     1     -43.681  57.696 -56.512  1.00  0.00     0.063 A 
HETATM    5  N   UNL     1     -44.055  58.778 -57.256  1.00  0.00    -0.277 N 
HETATM    6  H   UNL     1     -44.492  59.631 -56.923  1.00  0.00     0.189 HD
HETATM    7  N   UNL     1     -43.800  58.667 -58.570  1.00  0.00    -0.168 NA
HETATM    8  C   UNL     1     -43.231  57.445 -58.687  1.00  0.00     0.156 A 
HETATM    9  C   UNL     1     -43.776  57.436 -55.144  1.00  0.00     0.034 A 
HETATM   10  C   UNL     1     -43.284  56.203 -54.696  1.00  0.00     0.032 A 
ENDROOT
BRANCH   1  11
HETATM   11  N   UNL     1     -42.259  54.061 -55.002  1.00  0.00    -0.327 N 
HETATM   12  C   UNL     1     -40.984  53.769 -54.574  1.00  0.00     0.227 C 
HETATM   13  O   UNL     1     -40.020  54.521 -54.550  1.00  0.00    -0.273 OA
HETATM   14  H   UNL     1     -42.950  53.334 -54.882  1.00  0.00     0.169 HD
BRANCH  12  15
HETATM   15  C   UNL     1     -40.805  52.399 -54.015  1.00  0.00     0.087 A 
HETATM   16  C   UNL     1     -40.828  52.118 -52.519  1.00  0.00     0.034 A 
HETATM   17  C   UNL     1     -39.564  51.909 -53.327  1.00  0.00     0.025 A 
BRANCH  16  18
HETATM   18  C   UNL     1     -40.824  53.184 -51.432  1.00  0.00    -0.031 A 
HETATM   19  C   UNL     1     -39.648  53.487 -50.720  1.00  0.00     0.009 A 
HETATM   20  C   UNL     1     -39.615  54.466 -49.721  1.00  0.00     0.001 A 
HETATM   21  C   UNL     1     -40.759  55.195 -49.421  1.00  0.00     0.002 A 
HETATM   22  C   UNL     1     -41.931  54.952 -50.130  1.00  0.00     0.024 A 
HETATM   23  C   UNL     1     -41.959  53.967 -51.125  1.00  0.00     0.040 A 
HETATM   24 CL   UNL     1     -43.446  53.769 -51.993  1.00  0.00    -0.084 Cl
ENDBRANCH  16  18
ENDBRANCH  12  15
ENDBRANCH   1  11
BRANCH   8  25
HETATM   25  C   UNL     1     -42.798  56.931 -59.994  1.00  0.00     0.270 C 
HETATM   26  N   UNL     1     -41.450  57.028 -60.213  1.00  0.00    -0.365 N 
HETATM   27  H   UNL     1     -40.869  57.428 -59.487  1.00  0.00     0.159 HD
HETATM   28  H   UNL     1     -41.060  56.694 -61.080  1.00  0.00     0.159 HD
HETATM   29  O   UNL     1     -43.544  56.451 -60.840  1.00  0.00    -0.266 OA
ENDBRANCH   8  25
TORSDOF 4
ENDMDL
MODEL 2
REMARK VINA RESULT:      -8.2      2.227      3.670
REMARK  4 active torsions:
REMARK  status: ('A' for Active; 'I' for Inactive)
REMARK    1  A    between atoms: C_3  and  C_4 
REMARK    2  A    between atoms: C_5  and  C_6 
REMARK       I    between atoms: C_6  and  N_7 
REMARK    3  A    between atoms: N_7  and  C_8 
REMARK    4  A    between atoms: C_15  and  C_16 
REMARK       I    between atoms: C_16  and  N_17 
ROOT
HETATM    1  C   UNL     1     -42.577  56.285 -52.817  1.00  0.00     0.035 A 
HETATM    2  C   UNL     1     -42.510  56.240 -54.217  1.00  0.00     0.046 A 
HETATM    3  C   UNL     1     -43.477  56.928 -54.985  1.00  0.00     0.030 A 
HETATM    4  C   UNL     1     -44.479  57.631 -54.327  1.00  0.00     0.063 A 
HETATM    5  N   UNL     1     -45.245  58.180 -55.316  1.00  0.00    -0.277 N 
HETATM    6  H   UNL     1     -46.068  58.761 -55.203  1.00  0.00     0.189 HD
HETATM    7  N   UNL     1     -44.832  57.899 -56.563  1.00  0.00    -0.168 NA
HETATM    8  C   UNL     1     -43.739  57.123 -56.374  1.00  0.00     0.156 A 
HETATM    9  C   UNL     1     -44.580  57.692 -52.936  1.00  0.00     0.034 A 
HETATM   10  C   UNL     1     -43.608  57.005 -52.198  1.00  0.00     0.032 A 
ENDROOT
BRANCH   1  11
HETATM   11  N   UNL     1     -41.658  55.635 -51.966  1.00  0.00    -0.327 N 
HETATM   12  C   UNL     1     -41.822  54.434 -51.315  1.00  0.00     0.227 C 
HETATM   13  O   UNL     1     -42.773  53.670 -51.398  1.00  0.00    -0.273 OA
HETATM   14  H   UNL     1     -40.772  56.100 -51.833  1.00  0.00     0.169 HD
BRANCH  12  15
HETATM   15  C   UNL     1     -40.664  54.008 -50.478  1.00  0.00     0.087 A 
HETATM   16  C   UNL     1     -39.670  52.951 -50.937  1.00  0.00     0.034 A 
HETATM   17  C   UNL     1     -40.571  52.701 -49.746  1.00  0.00     0.025 A 
BRANCH  16  18
HETATM   18  C   UNL     1     -39.839  52.072 -52.169  1.00  0.00    -0.031 A 
HETATM   19  C   UNL     1     -40.101  52.637 -53.432  1.00  0.00     0.009 A 
HETATM   20  C   UNL     1     -40.255  51.853 -54.580  1.00  0.00     0.001 A 
HETATM   21  C   UNL     1     -40.124  50.471 -54.503  1.00  0.00     0.002 A 
HETATM   22  C   UNL     1     -39.826  49.879 -53.281  1.00  0.00     0.024 A 
HETATM   23  C   UNL     1     -39.679  50.669 -52.134  1.00  0.00     0.040 A 
HETATM   24 CL   UNL     1     -39.257  49.851 -50.666  1.00  0.00    -0.084 Cl
ENDBRANCH  16  18
ENDBRANCH  12  15
ENDBRANCH   1  11
BRANCH   8  25
HETATM   25  C   UNL     1     -42.979  56.592 -57.515  1.00  0.00     0.270 C 
HETATM   26  N   UNL     1     -42.035  57.454 -58.006  1.00  0.00    -0.365 N 
HETATM   27  H   UNL     1     -41.929  58.358 -57.564  1.00  0.00     0.159 HD
HETATM   28  H   UNL     1     -41.460  57.172 -58.784  1.00  0.00     0.159 HD
HETATM   29  O   UNL     1     -43.145  55.484 -58.012  1.00  0.00    -0.266 OA
ENDBRANCH   8  25
TORSDOF 4
ENDMDL
MODEL 3
REMARK VINA RESULT:      -8.1      3.146      4.628
REMARK  4 active torsions:
REMARK  status: ('A' for Active; 'I' for Inactive)
REMARK    1  A    between atoms: C_3  and  C_4 
REMARK    2  A    between atoms: C_5  and  C_6 
REMARK       I    between atoms: C_6  and  N_7 
REMARK    3  A    between atoms: N_7  and  C_8 
REMARK    4  A    between atoms: C_15  and  C_16 
REMARK       I    between atoms: C_16  and  N_17 
ROOT
HETATM    1  C   UNL     1     -43.886  56.635 -54.230  1.00  0.00     0.035 A 
HETATM    2  C   UNL     1     -44.223  57.304 -53.045  1.00  0.00     0.046 A 
HETATM    3  C   UNL     1     -44.872  58.557 -53.111  1.00  0.00     0.030 A 
HETATM    4  C   UNL     1     -45.157  59.100 -54.359  1.00  0.00     0.063 A 
HETATM    5  N   UNL     1     -45.774  60.291 -54.103  1.00  0.00    -0.277 N 
HETATM    6  H   UNL     1     -46.123  60.959 -54.782  1.00  0.00     0.189 HD
HETATM    7  N   UNL     1     -45.920  60.576 -52.799  1.00  0.00    -0.168 NA
HETATM    8  C   UNL     1     -45.365  59.513 -52.172  1.00  0.00     0.156 A 
HETATM    9  C   UNL     1     -44.830  58.465 -55.558  1.00  0.00     0.034 A 
HETATM   10  C   UNL     1     -44.190  57.222 -55.465  1.00  0.00     0.032 A 
ENDROOT
BRANCH   1  11
HETATM   11  N   UNL     1     -43.241  55.380 -54.266  1.00  0.00    -0.327 N 
HETATM   12  C   UNL     1     -41.888  55.131 -54.266  1.00  0.00     0.227 C 
HETATM   13  O   UNL     1     -40.985  55.950 -54.174  1.00  0.00    -0.273 OA
HETATM   14  H   UNL     1     -43.845  54.571 -54.279  1.00  0.00     0.169 HD
BRANCH  12  15
HETATM   15  C   UNL     1     -41.511  53.690 -54.314  1.00  0.00     0.087 A 
HETATM   16  C   UNL     1     -41.202  52.886 -53.060  1.00  0.00     0.034 A 
HETATM   17  C   UNL     1     -40.126  53.158 -54.090  1.00  0.00     0.025 A 
BRANCH  16  18
HETATM   18  C   UNL     1     -41.033  53.475 -51.666  1.00  0.00    -0.031 A 
HETATM   19  C   UNL     1     -39.754  53.668 -51.111  1.00  0.00     0.009 A 
HETATM   20  C   UNL     1     -39.571  54.212 -49.835  1.00  0.00     0.001 A 
HETATM   21  C   UNL     1     -40.670  54.609 -49.082  1.00  0.00     0.002 A 
HETATM   22  C   UNL     1     -41.948  54.472 -49.612  1.00  0.00     0.024 A 
HETATM   23  C   UNL     1     -42.125  53.920 -50.888  1.00  0.00     0.040 A 
HETATM   24 CL   UNL     1     -43.748  53.836 -51.489  1.00  0.00    -0.084 Cl
ENDBRANCH  16  18
ENDBRANCH  12  15
ENDBRANCH   1  11
BRANCH   8  25
HETATM   25  C   UNL     1     -45.320  59.435 -50.705  1.00  0.00     0.270 C 
HETATM   26  N   UNL     1     -44.157  59.907 -50.156  1.00  0.00    -0.365 N 
HETATM   27  H   UNL     1     -43.440  60.264 -50.775  1.00  0.00     0.159 HD
HETATM   28  H   UNL     1     -44.040  59.900 -49.156  1.00  0.00     0.159 HD
HETATM   29  O   UNL     1     -46.221  58.996 -49.999  1.00  0.00    -0.266 OA
ENDBRANCH   8  25
TORSDOF 4
ENDMDL
MODEL 4
REMARK VINA RESULT:      -7.9      2.425      3.930
REMARK  4 active torsions:
REMARK  status: ('A' for Active; 'I' for Inactive)
REMARK    1  A    between atoms: C_3  and  C_4 
REMARK    2  A    between atoms: C_5  and  C_6 
REMARK       I    between atoms: C_6  and  N_7 
REMARK    3  A    between atoms: N_7  and  C_8 
REMARK    4  A    between atoms: C_15  and  C_16 
REMARK       I    between atoms: C_16  and  N_17 
ROOT
HETATM    1  C   UNL     1     -41.719  55.431 -54.376  1.00  0.00     0.035 A 
HETATM    2  C   UNL     1     -41.735  56.768 -54.797  1.00  0.00     0.046 A 
HETATM    3  C   UNL     1     -42.451  57.124 -55.963  1.00  0.00     0.030 A 
HETATM    4  C   UNL     1     -43.121  56.131 -56.667  1.00  0.00     0.063 A 
HETATM    5  N   UNL     1     -43.709  56.769 -57.722  1.00  0.00    -0.277 N 
HETATM    6  H   UNL     1     -44.282  56.353 -58.449  1.00  0.00     0.189 HD
HETATM    7  N   UNL     1     -43.485  58.092 -57.769  1.00  0.00    -0.168 NA
HETATM    8  C   UNL     1     -42.706  58.326 -56.688  1.00  0.00     0.156 A 
HETATM    9  C   UNL     1     -43.122  54.789 -56.280  1.00  0.00     0.034 A 
HETATM   10  C   UNL     1     -42.407  54.463 -55.120  1.00  0.00     0.032 A 
ENDROOT
BRANCH   1  11
HETATM   11  N   UNL     1     -41.036  54.980 -53.226  1.00  0.00    -0.327 N 
HETATM   12  C   UNL     1     -41.565  54.315 -52.143  1.00  0.00     0.227 C 
HETATM   13  O   UNL     1     -42.717  53.934 -51.998  1.00  0.00    -0.273 OA
HETATM   14  H   UNL     1     -40.042  55.153 -53.204  1.00  0.00     0.169 HD
BRANCH  12  15
HETATM   15  C   UNL     1     -40.584  53.970 -51.075  1.00  0.00     0.087 A 
HETATM   16  C   UNL     1     -39.623  52.796 -51.197  1.00  0.00     0.034 A 
HETATM   17  C   UNL     1     -40.709  52.803 -50.141  1.00  0.00     0.025 A 
BRANCH  16  18
HETATM   18  C   UNL     1     -39.680  51.733 -52.285  1.00  0.00    -0.031 A 
HETATM   19  C   UNL     1     -39.741  52.092 -53.645  1.00  0.00     0.009 A 
HETATM   20  C   UNL     1     -39.789  51.135 -54.665  1.00  0.00     0.001 A 
HETATM   21  C   UNL     1     -39.748  49.781 -54.354  1.00  0.00     0.002 A 
HETATM   22  C   UNL     1     -39.648  49.388 -53.024  1.00  0.00     0.024 A 
HETATM   23  C   UNL     1     -39.608  50.350 -52.007  1.00  0.00     0.040 A 
HETATM   24 CL   UNL     1     -39.430  49.770 -50.383  1.00  0.00    -0.084 Cl
ENDBRANCH  16  18
ENDBRANCH  12  15
ENDBRANCH   1  11
BRANCH   8  25
HETATM   25  C   UNL     1     -42.229  59.681 -56.376  1.00  0.00     0.270 C 
HETATM   26  N   UNL     1     -42.731  60.196 -55.211  1.00  0.00    -0.365 N 
HETATM   27  H   UNL     1     -43.369  59.628 -54.666  1.00  0.00     0.159 HD
HETATM   28  H   UNL     1     -42.454  61.117 -54.912  1.00  0.00     0.159 HD
HETATM   29  O   UNL     1     -41.450  60.327 -57.069  1.00  0.00    -0.266 OA
ENDBRANCH   8  25
TORSDOF 4
ENDMDL
MODEL 5
REMARK VINA RESULT:      -7.8      3.197      7.481
REMARK  4 active torsions:
REMARK  status: ('A' for Active; 'I' for Inactive)
REMARK    1  A    between atoms: C_3  and  C_4 
REMARK    2  A    between atoms: C_5  and  C_6 
REMARK       I    between atoms: C_6  and  N_7 
REMARK    3  A    between atoms: N_7  and  C_8 
REMARK    4  A    between atoms: C_15  and  C_16 
REMARK       I    between atoms: C_16  and  N_17 
ROOT
HETATM    1  C   UNL     1     -40.770  54.499 -54.030  1.00  0.00     0.035 A 
HETATM    2  C   UNL     1     -40.914  54.539 -52.636  1.00  0.00     0.046 A 
HETATM    3  C   UNL     1     -40.566  53.406 -51.866  1.00  0.00     0.030 A 
HETATM    4  C   UNL     1     -40.091  52.273 -52.516  1.00  0.00     0.063 A 
HETATM    5  N   UNL     1     -39.843  51.365 -51.526  1.00  0.00    -0.277 N 
HETATM    6  H   UNL     1     -39.486  50.422 -51.634  1.00  0.00     0.189 HD
HETATM    7  N   UNL     1     -40.113  51.804 -50.286  1.00  0.00    -0.168 NA
HETATM    8  C   UNL     1     -40.563  53.065 -50.480  1.00  0.00     0.156 A 
HETATM    9  C   UNL     1     -39.941  52.196 -53.902  1.00  0.00     0.034 A 
HETATM   10  C   UNL     1     -40.290  53.333 -54.642  1.00  0.00     0.032 A 
ENDROOT
BRANCH   1  11
HETATM   11  N   UNL     1     -41.087  55.578 -54.883  1.00  0.00    -0.327 N 
HETATM   12  C   UNL     1     -42.301  55.856 -55.469  1.00  0.00     0.227 C 
HETATM   13  O   UNL     1     -43.353  55.253 -55.315  1.00  0.00    -0.273 OA
HETATM   14  H   UNL     1     -40.339  56.229 -55.071  1.00  0.00     0.169 HD
BRANCH  12  15
HETATM   15  C   UNL     1     -42.322  57.074 -56.327  1.00  0.00     0.087 A 
HETATM   16  C   UNL     1     -42.628  58.458 -55.773  1.00  0.00     0.034 A 
HETATM   17  C   UNL     1     -43.565  57.795 -56.761  1.00  0.00     0.025 A 
BRANCH  16  18
HETATM   18  C   UNL     1     -43.141  58.739 -54.367  1.00  0.00    -0.031 A 
HETATM   19  C   UNL     1     -44.522  58.796 -54.098  1.00  0.00     0.009 A 
HETATM   20  C   UNL     1     -45.019  59.048 -52.815  1.00  0.00     0.001 A 
HETATM   21  C   UNL     1     -44.145  59.222 -51.749  1.00  0.00     0.002 A 
HETATM   22  C   UNL     1     -42.775  59.133 -51.967  1.00  0.00     0.024 A 
HETATM   23  C   UNL     1     -42.282  58.888 -53.256  1.00  0.00     0.040 A 
HETATM   24 CL   UNL     1     -40.563  58.740 -53.424  1.00  0.00    -0.084 Cl
ENDBRANCH  16  18
ENDBRANCH  12  15
ENDBRANCH   1  11
BRANCH   8  25
HETATM   25  C   UNL     1     -40.974  53.907 -49.347  1.00  0.00     0.270 C 
HETATM   26  N   UNL     1     -40.043  53.990 -48.346  1.00  0.00    -0.365 N 
HETATM   27  H   UNL     1     -39.170  53.488 -48.454  1.00  0.00     0.159 HD
HETATM   28  H   UNL     1     -40.235  54.551 -47.532  1.00  0.00     0.159 HD
HETATM   29  O   UNL     1     -42.045  54.499 -49.267  1.00  0.00    -0.266 OA
ENDBRANCH   8  25
TORSDOF 4
ENDMDL
MODEL 6
REMARK VINA RESULT:      -7.7      3.079      4.602
REMARK  4 active torsions:
REMARK  status: ('A' for Active; 'I' for Inactive)
REMARK    1  A    between atoms: C_3  and  C_4 
REMARK    2  A    between atoms: C_5  and  C_6 
REMARK       I    between atoms: C_6  and  N_7 
REMARK    3  A    between atoms: N_7  and  C_8 
REMARK    4  A    between atoms: C_15  and  C_16 
REMARK       I    between atoms: C_16  and  N_17 
ROOT
HETATM    1  C   UNL     1     -42.201  57.017 -54.226  1.00  0.00     0.035 A 
HETATM    2  C   UNL     1     -42.178  57.814 -53.073  1.00  0.00     0.046 A 
HETATM    3  C   UNL     1     -42.324  59.214 -53.189  1.00  0.00     0.030 A 
HETATM    4  C   UNL     1     -42.482  59.770 -54.453  1.00  0.00     0.063 A 
HETATM    5  N   UNL     1     -42.597  61.115 -54.246  1.00  0.00    -0.277 N 
HETATM    6  H   UNL     1     -42.726  61.835 -54.949  1.00  0.00     0.189 HD
HETATM    7  N   UNL     1     -42.530  61.489 -52.958  1.00  0.00    -0.168 NA
HETATM    8  C   UNL     1     -42.359  60.324 -52.292  1.00  0.00     0.156 A 
HETATM    9  C   UNL     1     -42.503  59.008 -55.623  1.00  0.00     0.034 A 
HETATM   10  C   UNL     1     -42.359  57.622 -55.480  1.00  0.00     0.032 A 
ENDROOT
BRANCH   1  11
HETATM   11  N   UNL     1     -42.066  55.612 -54.212  1.00  0.00    -0.327 N 
HETATM   12  C   UNL     1     -40.947  54.873 -54.518  1.00  0.00     0.227 C 
HETATM   13  O   UNL     1     -39.835  55.295 -54.802  1.00  0.00    -0.273 OA
HETATM   14  H   UNL     1     -42.885  55.092 -53.931  1.00  0.00     0.169 HD
BRANCH  12  15
HETATM   15  C   UNL     1     -41.119  53.396 -54.414  1.00  0.00     0.087 A 
HETATM   16  C   UNL     1     -41.269  52.684 -53.077  1.00  0.00     0.034 A 
HETATM   17  C   UNL     1     -40.058  52.440 -53.953  1.00  0.00     0.025 A 
BRANCH  16  18
HETATM   18  C   UNL     1     -41.057  53.333 -51.715  1.00  0.00    -0.031 A 
HETATM   19  C   UNL     1     -39.774  53.405 -51.139  1.00  0.00     0.009 A 
HETATM   20  C   UNL     1     -39.552  54.000 -49.893  1.00  0.00     0.001 A 
HETATM   21  C   UNL     1     -40.609  54.571 -49.194  1.00  0.00     0.002 A 
HETATM   22  C   UNL     1     -41.883  54.556 -49.748  1.00  0.00     0.024 A 
HETATM   23  C   UNL     1     -42.101  53.952 -50.994  1.00  0.00     0.040 A 
HETATM   24 CL   UNL     1     -43.711  54.026 -51.631  1.00  0.00    -0.084 Cl
ENDBRANCH  16  18
ENDBRANCH  12  15
ENDBRANCH   1  11
BRANCH   8  25
HETATM   25  C   UNL     1     -42.235  60.299 -50.827  1.00  0.00     0.270 C 
HETATM   26  N   UNL     1     -43.412  60.522 -50.163  1.00  0.00    -0.365 N 
HETATM   27  H   UNL     1     -44.252  60.679 -50.706  1.00  0.00     0.159 HD
HETATM   28  H   UNL     1     -43.425  60.515 -49.156  1.00  0.00     0.159 HD
HETATM   29  O   UNL     1     -41.191  60.099 -50.216  1.00  0.00    -0.266 OA
ENDBRANCH   8  25
TORSDOF 4
ENDMDL
MODEL 7
REMARK VINA RESULT:      -7.6      3.092      8.160
REMARK  4 active torsions:
REMARK  status: ('A' for Active; 'I' for Inactive)
REMARK    1  A    between atoms: C_3  and  C_4 
REMARK    2  A    between atoms: C_5  and  C_6 
REMARK       I    between atoms: C_6  and  N_7 
REMARK    3  A    between atoms: N_7  and  C_8 
REMARK    4  A    between atoms: C_15  and  C_16 
REMARK       I    between atoms: C_16  and  N_17 
ROOT
HETATM    1  C   UNL     1     -41.347  55.630 -54.286  1.00  0.00     0.035 A 
HETATM    2  C   UNL     1     -41.293  55.366 -52.910  1.00  0.00     0.046 A 
HETATM    3  C   UNL     1     -40.801  54.122 -52.456  1.00  0.00     0.030 A 
HETATM    4  C   UNL     1     -40.384  53.184 -53.393  1.00  0.00     0.063 A 
HETATM    5  N   UNL     1     -39.968  52.106 -52.665  1.00  0.00    -0.277 N 
HETATM    6  H   UNL     1     -39.597  51.231 -53.021  1.00  0.00     0.189 HD
HETATM    7  N   UNL     1     -40.073  52.256 -51.335  1.00  0.00    -0.168 NA
HETATM    8  C   UNL     1     -40.589  53.498 -51.190  1.00  0.00     0.156 A 
HETATM    9  C   UNL     1     -40.429  53.410 -54.770  1.00  0.00     0.034 A 
HETATM   10  C   UNL     1     -40.919  54.652 -55.194  1.00  0.00     0.032 A 
ENDROOT
BRANCH   1  11
HETATM   11  N   UNL     1     -41.819  56.842 -54.835  1.00  0.00    -0.327 N 
HETATM   12  C   UNL     1     -43.125  57.198 -55.084  1.00  0.00     0.227 C 
HETATM   13  O   UNL     1     -44.131  56.555 -54.820  1.00  0.00    -0.273 OA
HETATM   14  H   UNL     1     -41.116  57.531 -55.057  1.00  0.00     0.169 HD
BRANCH  12  15
HETATM   15  C   UNL     1     -43.306  58.553 -55.676  1.00  0.00     0.087 A 
HETATM   16  C   UNL     1     -43.731  58.762 -57.122  1.00  0.00     0.034 A 
HETATM   17  C   UNL     1     -42.361  59.197 -56.648  1.00  0.00     0.025 A 
BRANCH  16  18
HETATM   18  C   UNL     1     -43.817  57.662 -58.173  1.00  0.00    -0.031 A 
HETATM   19  C   UNL     1     -42.660  56.995 -58.618  1.00  0.00     0.009 A 
HETATM   20  C   UNL     1     -42.712  55.978 -59.578  1.00  0.00     0.001 A 
HETATM   21  C   UNL     1     -43.934  55.576 -60.103  1.00  0.00     0.002 A 
HETATM   22  C   UNL     1     -45.103  56.185 -59.659  1.00  0.00     0.024 A 
HETATM   23  C   UNL     1     -45.044  57.207 -58.703  1.00  0.00     0.040 A 
HETATM   24 CL   UNL     1     -46.554  57.871 -58.170  1.00  0.00    -0.084 Cl
ENDBRANCH  16  18
ENDBRANCH  12  15
ENDBRANCH   1  11
BRANCH   8  25
HETATM   25  C   UNL     1     -40.865  54.055 -49.857  1.00  0.00     0.270 C 
HETATM   26  N   UNL     1     -39.748  54.230 -49.084  1.00  0.00    -0.365 N 
HETATM   27  H   UNL     1     -38.847  53.977 -49.470  1.00  0.00     0.159 HD
HETATM   28  H   UNL     1     -39.840  54.614 -48.157  1.00  0.00     0.159 HD
HETATM   29  O   UNL     1     -41.979  54.349 -49.438  1.00  0.00    -0.266 OA
ENDBRANCH   8  25
TORSDOF 4
ENDMDL
MODEL 8
REMARK VINA RESULT:      -7.3      2.612      3.145
REMARK  4 active torsions:
REMARK  status: ('A' for Active; 'I' for Inactive)
REMARK    1  A    between atoms: C_3  and  C_4 
REMARK    2  A    between atoms: C_5  and  C_6 
REMARK       I    between atoms: C_6  and  N_7 
REMARK    3  A    between atoms: N_7  and  C_8 
REMARK    4  A    between atoms: C_15  and  C_16 
REMARK       I    between atoms: C_16  and  N_17 
ROOT
HETATM    1  C   UNL     1     -42.857  56.278 -56.687  1.00  0.00     0.035 A 
HETATM    2  C   UNL     1     -43.426  55.657 -57.808  1.00  0.00     0.046 A 
HETATM    3  C   UNL     1     -44.002  56.448 -58.827  1.00  0.00     0.030 A 
HETATM    4  C   UNL     1     -43.994  57.831 -58.688  1.00  0.00     0.063 A 
HETATM    5  N   UNL     1     -44.607  58.311 -59.809  1.00  0.00    -0.277 N 
HETATM    6  H   UNL     1     -44.778  59.283 -60.047  1.00  0.00     0.189 HD
HETATM    7  N   UNL     1     -45.015  57.366 -60.671  1.00  0.00    -0.168 NA
HETATM    8  C   UNL     1     -44.650  56.207 -60.076  1.00  0.00     0.156 A 
HETATM    9  C   UNL     1     -43.442  58.483 -57.583  1.00  0.00     0.034 A 
HETATM   10  C   UNL     1     -42.875  57.676 -56.588  1.00  0.00     0.032 A 
ENDROOT
BRANCH   1  11
HETATM   11  N   UNL     1     -42.256  55.575 -55.621  1.00  0.00    -0.327 N 
HETATM   12  C   UNL     1     -42.884  54.846 -54.636  1.00  0.00     0.227 C 
HETATM   13  O   UNL     1     -44.081  54.618 -54.533  1.00  0.00    -0.273 OA
HETATM   14  H   UNL     1     -41.248  55.599 -55.586  1.00  0.00     0.169 HD
BRANCH  12  15
HETATM   15  C   UNL     1     -41.972  54.217 -53.640  1.00  0.00     0.087 A 
HETATM   16  C   UNL     1     -41.381  54.992 -52.471  1.00  0.00     0.034 A 
HETATM   17  C   UNL     1     -40.491  54.446 -53.569  1.00  0.00     0.025 A 
BRANCH  16  18
HETATM   18  C   UNL     1     -41.467  56.502 -52.294  1.00  0.00    -0.031 A 
HETATM   19  C   UNL     1     -40.559  57.360 -52.943  1.00  0.00     0.009 A 
HETATM   20  C   UNL     1     -40.619  58.751 -52.801  1.00  0.00     0.001 A 
HETATM   21  C   UNL     1     -41.615  59.330 -52.024  1.00  0.00     0.002 A 
HETATM   22  C   UNL     1     -42.555  58.517 -51.400  1.00  0.00     0.024 A 
HETATM   23  C   UNL     1     -42.485  57.125 -51.540  1.00  0.00     0.040 A 
HETATM   24 CL   UNL     1     -43.729  56.195 -50.770  1.00  0.00    -0.084 Cl
ENDBRANCH  16  18
ENDBRANCH  12  15
ENDBRANCH   1  11
BRANCH   8  25
HETATM   25  C   UNL     1     -44.924  54.909 -60.709  1.00  0.00     0.270 C 
HETATM   26  N   UNL     1     -45.181  53.898 -59.822  1.00  0.00    -0.365 N 
HETATM   27  H   UNL     1     -45.167  54.108 -58.832  1.00  0.00     0.159 HD
HETATM   28  H   UNL     1     -45.387  52.974 -60.166  1.00  0.00     0.159 HD
HETATM   29  O   UNL     1     -44.932  54.708 -61.919  1.00  0.00    -0.266 OA
ENDBRANCH   8  25
TORSDOF 4
ENDMDL
MODEL 9
REMARK VINA RESULT:      -7.3      2.707      3.782
REMARK  4 active torsions:
REMARK  status: ('A' for Active; 'I' for Inactive)
REMARK    1  A    between atoms: C_3  and  C_4 
REMARK    2  A    between atoms: C_5  and  C_6 
REMARK       I    between atoms: C_6  and  N_7 
REMARK    3  A    between atoms: N_7  and  C_8 
REMARK    4  A    between atoms: C_15  and  C_16 
REMARK       I    between atoms: C_16  and  N_17 
ROOT
HETATM    1  C   UNL     1     -43.039  56.153 -57.789  1.00  0.00     0.035 A 
HETATM    2  C   UNL     1     -43.865  57.242 -57.477  1.00  0.00     0.046 A 
HETATM    3  C   UNL     1     -44.718  57.776 -58.469  1.00  0.00     0.030 A 
HETATM    4  C   UNL     1     -44.711  57.208 -59.738  1.00  0.00     0.063 A 
HETATM    5  N   UNL     1     -45.621  57.924 -60.461  1.00  0.00    -0.277 N 
HETATM    6  H   UNL     1     -45.878  57.786 -61.433  1.00  0.00     0.189 HD
HETATM    7  N   UNL     1     -46.225  58.911 -59.778  1.00  0.00    -0.168 NA
HETATM    8  C   UNL     1     -45.675  58.833 -58.544  1.00  0.00     0.156 A 
HETATM    9  C   UNL     1     -43.897  56.128 -60.084  1.00  0.00     0.034 A 
HETATM   10  C   UNL     1     -43.063  55.615 -59.082  1.00  0.00     0.032 A 
ENDROOT
BRANCH   1  11
HETATM   11  N   UNL     1     -42.157  55.549 -56.867  1.00  0.00    -0.327 N 
HETATM   12  C   UNL     1     -42.463  54.627 -55.892  1.00  0.00     0.227 C 
HETATM   13  O   UNL     1     -43.550  54.109 -55.679  1.00  0.00    -0.273 OA
HETATM   14  H   UNL     1     -41.186  55.816 -56.942  1.00  0.00     0.169 HD
BRANCH  12  15
HETATM   15  C   UNL     1     -41.308  54.175 -55.067  1.00  0.00     0.087 A 
HETATM   16  C   UNL     1     -41.076  54.670 -53.647  1.00  0.00     0.034 A 
HETATM   17  C   UNL     1     -40.100  55.008 -54.754  1.00  0.00     0.025 A 
BRANCH  16  18
HETATM   18  C   UNL     1     -41.841  55.809 -52.985  1.00  0.00    -0.031 A 
HETATM   19  C   UNL     1     -41.525  57.152 -53.264  1.00  0.00     0.009 A 
HETATM   20  C   UNL     1     -42.216  58.216 -52.673  1.00  0.00     0.001 A 
HETATM   21  C   UNL     1     -43.270  57.966 -51.803  1.00  0.00     0.002 A 
HETATM   22  C   UNL     1     -43.638  56.653 -51.533  1.00  0.00     0.024 A 
HETATM   23  C   UNL     1     -42.938  55.591 -52.122  1.00  0.00     0.040 A 
HETATM   24 CL   UNL     1     -43.500  53.990 -51.770  1.00  0.00    -0.084 Cl
ENDBRANCH  16  18
ENDBRANCH  12  15
ENDBRANCH   1  11
BRANCH   8  25
HETATM   25  C   UNL     1     -46.073  59.761 -57.476  1.00  0.00     0.270 C 
HETATM   26  N   UNL     1     -47.424  59.816 -57.259  1.00  0.00    -0.365 N 
HETATM   27  H   UNL     1     -48.029  59.234 -57.825  1.00  0.00     0.159 HD
HETATM   28  H   UNL     1     -47.789  60.420 -56.540  1.00  0.00     0.159 HD
HETATM   29  O   UNL     1     -45.297  60.442 -56.815  1.00  0.00    -0.266 OA
ENDBRANCH   8  25
TORSDOF 4
ENDMDL
MODEL 10
REMARK VINA RESULT:      -7.3      3.591      8.154
REMARK  4 active torsions:
REMARK  status: ('A' for Active; 'I' for Inactive)
REMARK    1  A    between atoms: C_3  and  C_4 
REMARK    2  A    between atoms: C_5  and  C_6 
REMARK       I    between atoms: C_6  and  N_7 
REMARK    3  A    between atoms: N_7  and  C_8 
REMARK    4  A    between atoms: C_15  and  C_16 
REMARK       I    between atoms: C_16  and  N_17 
ROOT
HETATM    1  C   UNL     1     -42.494  56.067 -55.911  1.00  0.00     0.035 A 
HETATM    2  C   UNL     1     -42.385  56.708 -54.669  1.00  0.00     0.046 A 
HETATM    3  C   UNL     1     -42.717  56.004 -53.489  1.00  0.00     0.030 A 
HETATM    4  C   UNL     1     -43.151  54.688 -53.593  1.00  0.00     0.063 A 
HETATM    5  N   UNL     1     -43.389  54.283 -52.311  1.00  0.00    -0.277 N 
HETATM    6  H   UNL     1     -43.719  53.373 -52.006  1.00  0.00     0.189 HD
HETATM    7  N   UNL     1     -43.149  55.217 -51.377  1.00  0.00    -0.168 NA
HETATM    8  C   UNL     1     -42.735  56.289 -52.091  1.00  0.00     0.156 A 
HETATM    9  C   UNL     1     -43.277  54.021 -54.813  1.00  0.00     0.034 A 
HETATM   10  C   UNL     1     -42.939  54.740 -55.967  1.00  0.00     0.032 A 
ENDROOT
BRANCH   1  11
HETATM   11  N   UNL     1     -42.183  56.685 -57.142  1.00  0.00    -0.327 N 
HETATM   12  C   UNL     1     -42.601  57.916 -57.593  1.00  0.00     0.227 C 
HETATM   13  O   UNL     1     -43.272  58.738 -56.986  1.00  0.00    -0.273 OA
HETATM   14  H   UNL     1     -41.572  56.166 -57.755  1.00  0.00     0.169 HD
BRANCH  12  15
HETATM   15  C   UNL     1     -42.104  58.293 -58.946  1.00  0.00     0.087 A 
HETATM   16  C   UNL     1     -42.968  58.179 -60.193  1.00  0.00     0.034 A 
HETATM   17  C   UNL     1     -41.733  57.318 -60.025  1.00  0.00     0.025 A 
BRANCH  16  18
HETATM   18  C   UNL     1     -44.326  57.491 -60.253  1.00  0.00    -0.031 A 
HETATM   19  C   UNL     1     -44.431  56.123 -60.569  1.00  0.00     0.009 A 
HETATM   20  C   UNL     1     -45.665  55.466 -60.625  1.00  0.00     0.001 A 
HETATM   21  C   UNL     1     -46.837  56.157 -60.337  1.00  0.00     0.002 A 
HETATM   22  C   UNL     1     -46.770  57.499 -59.983  1.00  0.00     0.024 A 
HETATM   23  C   UNL     1     -45.532  58.153 -59.935  1.00  0.00     0.040 A 
HETATM   24 CL   UNL     1     -45.539  59.812 -59.432  1.00  0.00    -0.084 Cl
ENDBRANCH  16  18
ENDBRANCH  12  15
ENDBRANCH   1  11
BRANCH   8  25
HETATM   25  C   UNL     1     -42.367  57.547 -51.426  1.00  0.00     0.270 C 
HETATM   26  N   UNL     1     -41.101  57.555 -50.904  1.00  0.00    -0.365 N 
HETATM   27  H   UNL     1     -40.529  56.726 -51.011  1.00  0.00     0.159 HD
HETATM   28  H   UNL     1     -40.760  58.378 -50.436  1.00  0.00     0.159 HD
HETATM   29  O   UNL     1     -43.099  58.526 -51.326  1.00  0.00    -0.266 OA
ENDBRANCH   8  25
TORSDOF 4
ENDMDL
