MODEL 1
REMARK VINA RESULT:      -8.4      0.000      0.000
REMARK  5 active torsions:
REMARK  status: ('A' for Active; 'I' for Inactive)
REMARK    1  A    between atoms: C_2  and  O_3 
REMARK    2  A    between atoms: C_2  and  C_4 
REMARK    3  A    between atoms: C_7  and  N_8 
REMARK    4  A    between atoms: N_12  and  C_13 
REMARK    5  A    between atoms: C_13  and  C_14 
ROOT
HETATM    1  N   UNL     1     -42.101  55.492 -55.949  1.00  0.00    -0.367 N 
HETATM    2  C   UNL     1     -40.979  55.849 -55.057  1.00  0.00     0.127 C 
HETATM    3  C   UNL     1     -40.351  54.623 -54.413  1.00  0.00     0.057 C 
HETATM    4  C   UNL     1     -41.339  53.704 -53.656  1.00  0.00     0.075 C 
HETATM    5  N   UNL     1     -41.796  54.193 -52.298  1.00  0.00    -0.398 N 
HETATM    6  C   UNL     1     -40.693  54.355 -51.312  1.00  0.00     0.124 C 
HETATM    7  C   UNL     1     -40.020  53.010 -50.945  1.00  0.00     0.078 C 
HETATM    8  C   UNL     1     -39.969  52.146 -52.133  1.00  0.00     0.037 A 
HETATM    9  C   UNL     1     -40.570  52.415 -53.346  1.00  0.00     0.061 A 
HETATM   10  N   UNL     1     -40.272  51.330 -54.157  1.00  0.00    -0.352 N 
HETATM   11  H   UNL     1     -40.552  51.205 -55.126  1.00  0.00     0.166 HD
HETATM   12  C   UNL     1     -39.561  50.416 -53.479  1.00  0.00     0.181 A 
HETATM   13  N   UNL     1     -39.364  50.912 -52.255  1.00  0.00    -0.354 N 
HETATM   14  H   UNL     1     -38.855  50.429 -51.516  1.00  0.00     0.166 HD
HETATM   15  C   UNL     1     -42.487  53.374 -54.643  1.00  0.00     0.057 C 
HETATM   16  C   UNL     1     -43.098  54.564 -55.388  1.00  0.00     0.127 C 
ENDROOT
BRANCH   5  17
HETATM   17  C   UNL     1     -42.832  55.226 -52.224  1.00  0.00     0.122 C 
BRANCH  17  18
HETATM   18  C   UNL     1     -43.443  55.556 -50.838  1.00  0.00    -0.005 C 
HETATM   19  C   UNL     1     -44.288  56.832 -50.946  1.00  0.00     0.011 C 
HETATM   20  C   UNL     1     -44.308  54.414 -50.299  1.00  0.00     0.011 C 
ENDBRANCH  17  18
ENDBRANCH   5  17
BRANCH   1  21
HETATM   21  C   UNL     1     -42.615  56.580 -56.695  1.00  0.00     0.103 A 
HETATM   22  N   UNL     1     -42.040  56.977 -57.843  1.00  0.00    -0.344 N 
HETATM   23  C   UNL     1     -42.487  57.964 -58.642  1.00  0.00     0.039 A 
HETATM   24  H   UNL     1     -41.186  56.541 -58.197  1.00  0.00     0.167 HD
HETATM   25  C   UNL     1     -43.610  58.691 -58.276  1.00  0.00     0.028 A 
HETATM   26  C   UNL     1     -44.232  58.380 -57.078  1.00  0.00     0.006 A 
HETATM   27  C   UNL     1     -43.735  57.339 -56.287  1.00  0.00     0.048 A 
BRANCH  23  28
HETATM   28  C   UNL     1     -41.693  58.179 -59.898  1.00  0.00     0.163 C 
HETATM   29  C   UNL     1     -42.434  59.029 -60.918  1.00  0.00     0.046 C 
BRANCH  28  30
HETATM   30  O   UNL     1     -41.503  56.861 -60.449  1.00  0.00    -0.390 OA
HETATM   31  H   UNL     1     -40.965  56.981 -61.262  1.00  0.00     0.210 HD
ENDBRANCH  28  30
ENDBRANCH  23  28
ENDBRANCH   1  21
TORSDOF 5
ENDMDL
MODEL 2
REMARK VINA RESULT:      -8.3      2.565      7.141
REMARK  5 active torsions:
REMARK  status: ('A' for Active; 'I' for Inactive)
REMARK    1  A    between atoms: C_2  and  O_3 
REMARK    2  A    between atoms: C_2  and  C_4 
REMARK    3  A    between atoms: C_7  and  N_8 
REMARK    4  A    between atoms: N_12  and  C_13 
REMARK    5  A    between atoms: C_13  and  C_14 
ROOT
HETATM    1  N   UNL     1     -41.256  54.250 -54.062  1.00  0.00    -0.367 N 
HETATM    2  C   UNL     1     -42.722  54.189 -54.225  1.00  0.00     0.127 C 
HETATM    3  C   UNL     1     -43.205  55.070 -55.367  1.00  0.00     0.057 C 
HETATM    4  C   UNL     1     -42.757  56.549 -55.286  1.00  0.00     0.075 C 
HETATM    5  N   UNL     1     -43.500  57.416 -54.292  1.00  0.00    -0.398 N 
HETATM    6  C   UNL     1     -44.957  57.540 -54.569  1.00  0.00     0.124 C 
HETATM    7  C   UNL     1     -45.250  58.276 -55.900  1.00  0.00     0.078 C 
HETATM    8  C   UNL     1     -44.230  57.915 -56.895  1.00  0.00     0.037 A 
HETATM    9  C   UNL     1     -43.094  57.172 -56.646  1.00  0.00     0.061 A 
HETATM   10  N   UNL     1     -42.427  57.095 -57.859  1.00  0.00    -0.352 N 
HETATM   11  H   UNL     1     -41.553  56.608 -58.038  1.00  0.00     0.166 HD
HETATM   12  C   UNL     1     -43.084  57.785 -58.803  1.00  0.00     0.181 A 
HETATM   13  N   UNL     1     -44.185  58.274 -58.226  1.00  0.00    -0.354 N 
HETATM   14  H   UNL     1     -44.876  58.849 -58.705  1.00  0.00     0.166 HD
HETATM   15  C   UNL     1     -41.218  56.540 -55.110  1.00  0.00     0.057 C 
HETATM   16  C   UNL     1     -40.668  55.600 -54.033  1.00  0.00     0.127 C 
ENDROOT
BRANCH   5  17
HETATM   17  C   UNL     1     -43.159  57.323 -52.870  1.00  0.00     0.122 C 
BRANCH  17  18
HETATM   18  C   UNL     1     -44.248  56.829 -51.884  1.00  0.00    -0.005 C 
HETATM   19  C   UNL     1     -43.643  55.779 -50.943  1.00  0.00     0.011 C 
HETATM   20  C   UNL     1     -44.844  57.972 -51.059  1.00  0.00     0.011 C 
ENDBRANCH  17  18
ENDBRANCH   5  17
BRANCH   1  21
HETATM   21  C   UNL     1     -40.740  53.328 -53.120  1.00  0.00     0.103 A 
HETATM   22  N   UNL     1     -40.251  52.135 -53.501  1.00  0.00    -0.344 N 
HETATM   23  C   UNL     1     -39.697  51.220 -52.684  1.00  0.00     0.039 A 
HETATM   24  H   UNL     1     -40.275  51.830 -54.475  1.00  0.00     0.167 HD
HETATM   25  C   UNL     1     -39.635  51.461 -51.320  1.00  0.00     0.028 A 
HETATM   26  C   UNL     1     -40.167  52.646 -50.838  1.00  0.00     0.006 A 
HETATM   27  C   UNL     1     -40.723  53.570 -51.727  1.00  0.00     0.048 A 
BRANCH  23  28
HETATM   28  C   UNL     1     -39.179  49.986 -53.366  1.00  0.00     0.163 C 
HETATM   29  C   UNL     1     -39.860  49.729 -54.701  1.00  0.00     0.046 C 
BRANCH  28  30
HETATM   30  O   UNL     1     -39.500  48.903 -52.471  1.00  0.00    -0.390 OA
HETATM   31  H   UNL     1     -40.021  49.300 -51.740  1.00  0.00     0.210 HD
ENDBRANCH  28  30
ENDBRANCH  23  28
ENDBRANCH   1  21
TORSDOF 5
ENDMDL
MODEL 3
REMARK VINA RESULT:      -8.3      1.915      2.169
REMARK  5 active torsions:
REMARK  status: ('A' for Active; 'I' for Inactive)
REMARK    1  A    between atoms: C_2  and  O_3 
REMARK    2  A    between atoms: C_2  and  C_4 
REMARK    3  A    between atoms: C_7  and  N_8 
REMARK    4  A    between atoms: N_12  and  C_13 
REMARK    5  A    between atoms: C_13  and  C_14 
ROOT
HETATM    1  N   UNL     1     -42.331  55.221 -56.274  1.00  0.00    -0.367 N 
HETATM    2  C   UNL     1     -41.417  55.967 -55.386  1.00  0.00     0.127 C 
HETATM    3  C   UNL     1     -40.697  55.051 -54.408  1.00  0.00     0.057 C 
HETATM    4  C   UNL     1     -41.622  54.150 -53.555  1.00  0.00     0.075 C 
HETATM    5  N   UNL     1     -42.336  54.829 -52.406  1.00  0.00    -0.398 N 
HETATM    6  C   UNL     1     -41.422  55.406 -51.383  1.00  0.00     0.124 C 
HETATM    7  C   UNL     1     -40.601  54.324 -50.640  1.00  0.00     0.078 C 
HETATM    8  C   UNL     1     -40.246  53.247 -51.576  1.00  0.00     0.037 A 
HETATM    9  C   UNL     1     -40.708  53.127 -52.871  1.00  0.00     0.061 A 
HETATM   10  N   UNL     1     -40.129  51.967 -53.365  1.00  0.00    -0.352 N 
HETATM   11  H   UNL     1     -40.247  51.584 -54.299  1.00  0.00     0.166 HD
HETATM   12  C   UNL     1     -39.383  51.374 -52.422  1.00  0.00     0.181 A 
HETATM   13  N   UNL     1     -39.442  52.152 -51.338  1.00  0.00    -0.354 N 
HETATM   14  H   UNL     1     -38.970  51.947 -50.459  1.00  0.00     0.166 HD
HETATM   15  C   UNL     1     -42.553  53.404 -54.543  1.00  0.00     0.057 C 
HETATM   16  C   UNL     1     -43.235  54.267 -55.609  1.00  0.00     0.127 C 
ENDROOT
BRANCH   5  17
HETATM   17  C   UNL     1     -43.524  55.640 -52.684  1.00  0.00     0.122 C 
BRANCH  17  18
HETATM   18  C   UNL     1     -43.516  57.128 -52.248  1.00  0.00    -0.005 C 
HETATM   19  C   UNL     1     -43.718  58.019 -53.480  1.00  0.00     0.011 C 
HETATM   20  C   UNL     1     -44.601  57.434 -51.213  1.00  0.00     0.011 C 
ENDBRANCH  17  18
ENDBRANCH   5  17
BRANCH   1  21
HETATM   21  C   UNL     1     -42.902  56.003 -57.305  1.00  0.00     0.103 A 
HETATM   22  N   UNL     1     -43.635  55.446 -58.284  1.00  0.00    -0.344 N 
HETATM   23  C   UNL     1     -44.257  56.115 -59.273  1.00  0.00     0.039 A 
HETATM   24  H   UNL     1     -43.769  54.435 -58.348  1.00  0.00     0.167 HD
HETATM   25  C   UNL     1     -44.131  57.493 -59.358  1.00  0.00     0.028 A 
HETATM   26  C   UNL     1     -43.347  58.140 -58.417  1.00  0.00     0.006 A 
HETATM   27  C   UNL     1     -42.730  57.402 -57.403  1.00  0.00     0.048 A 
BRANCH  23  28
HETATM   28  C   UNL     1     -45.057  55.262 -60.216  1.00  0.00     0.163 C 
HETATM   29  C   UNL     1     -46.463  55.799 -60.436  1.00  0.00     0.046 C 
BRANCH  28  30
HETATM   30  O   UNL     1     -45.153  53.979 -59.567  1.00  0.00    -0.390 OA
HETATM   31  H   UNL     1     -45.747  53.434 -60.128  1.00  0.00     0.210 HD
ENDBRANCH  28  30
ENDBRANCH  23  28
ENDBRANCH   1  21
TORSDOF 5
ENDMDL
MODEL 4
REMARK VINA RESULT:      -8.1      2.632      4.656
REMARK  5 active torsions:
REMARK  status: ('A' for Active; 'I' for Inactive)
REMARK    1  A    between atoms: C_2  and  O_3 
REMARK    2  A    between atoms: C_2  and  C_4 
REMARK    3  A    between atoms: C_7  and  N_8 
REMARK    4  A    between atoms: N_12  and  C_13 
REMARK    5  A    between atoms: C_13  and  C_14 
ROOT
HETATM    1  N   UNL     1     -44.314  57.850 -55.951  1.00  0.00    -0.367 N 
HETATM    2  C   UNL     1     -44.980  57.293 -54.756  1.00  0.00     0.127 C 
HETATM    3  C   UNL     1     -44.206  57.595 -53.481  1.00  0.00     0.057 C 
HETATM    4  C   UNL     1     -42.723  57.154 -53.497  1.00  0.00     0.075 C 
HETATM    5  N   UNL     1     -42.467  55.674 -53.312  1.00  0.00    -0.398 N 
HETATM    6  C   UNL     1     -42.944  55.135 -52.010  1.00  0.00     0.124 C 
HETATM    7  C   UNL     1     -42.181  55.734 -50.802  1.00  0.00     0.078 C 
HETATM    8  C   UNL     1     -41.870  57.146 -51.069  1.00  0.00     0.037 A 
HETATM    9  C   UNL     1     -42.073  57.799 -52.268  1.00  0.00     0.061 A 
HETATM   10  N   UNL     1     -41.626  59.096 -52.064  1.00  0.00    -0.352 N 
HETATM   11  H   UNL     1     -41.640  59.853 -52.742  1.00  0.00     0.166 HD
HETATM   12  C   UNL     1     -41.133  59.236 -50.825  1.00  0.00     0.181 A 
HETATM   13  N   UNL     1     -41.290  58.059 -50.213  1.00  0.00    -0.354 N 
HETATM   14  H   UNL     1     -40.999  57.867 -49.255  1.00  0.00     0.166 HD
HETATM   15  C   UNL     1     -42.090  57.764 -54.773  1.00  0.00     0.057 C 
HETATM   16  C   UNL     1     -42.873  57.569 -56.074  1.00  0.00     0.127 C 
ENDROOT
BRANCH   5  17
HETATM   17  C   UNL     1     -42.659  54.769 -54.449  1.00  0.00     0.122 C 
BRANCH  17  18
HETATM   18  C   UNL     1     -41.443  53.949 -54.950  1.00  0.00    -0.005 C 
HETATM   19  C   UNL     1     -40.173  54.802 -54.836  1.00  0.00     0.011 C 
HETATM   20  C   UNL     1     -41.258  52.649 -54.165  1.00  0.00     0.011 C 
ENDBRANCH  17  18
ENDBRANCH   5  17
BRANCH   1  21
HETATM   21  C   UNL     1     -45.073  57.736 -57.141  1.00  0.00     0.103 A 
HETATM   22  N   UNL     1     -44.661  56.969 -58.165  1.00  0.00    -0.344 N 
HETATM   23  C   UNL     1     -45.339  56.762 -59.309  1.00  0.00     0.039 A 
HETATM   24  H   UNL     1     -43.766  56.477 -58.143  1.00  0.00     0.167 HD
HETATM   25  C   UNL     1     -46.552  57.400 -59.516  1.00  0.00     0.028 A 
HETATM   26  C   UNL     1     -47.023  58.252 -58.530  1.00  0.00     0.006 A 
HETATM   27  C   UNL     1     -46.287  58.427 -57.355  1.00  0.00     0.048 A 
BRANCH  23  28
HETATM   28  C   UNL     1     -44.685  55.818 -60.277  1.00  0.00     0.163 C 
HETATM   29  C   UNL     1     -44.379  54.465 -59.654  1.00  0.00     0.046 C 
BRANCH  28  30
HETATM   30  O   UNL     1     -43.440  56.452 -60.632  1.00  0.00    -0.390 OA
HETATM   31  H   UNL     1     -42.894  56.455 -59.816  1.00  0.00     0.210 HD
ENDBRANCH  28  30
ENDBRANCH  23  28
ENDBRANCH   1  21
TORSDOF 5
ENDMDL
MODEL 5
REMARK VINA RESULT:      -7.8      3.167      7.474
REMARK  5 active torsions:
REMARK  status: ('A' for Active; 'I' for Inactive)
REMARK    1  A    between atoms: C_2  and  O_3 
REMARK    2  A    between atoms: C_2  and  C_4 
REMARK    3  A    between atoms: C_7  and  N_8 
REMARK    4  A    between atoms: N_12  and  C_13 
REMARK    5  A    between atoms: C_13  and  C_14 
ROOT
HETATM    1  N   UNL     1     -42.002  54.800 -54.041  1.00  0.00    -0.367 N 
HETATM    2  C   UNL     1     -43.150  55.272 -53.241  1.00  0.00     0.127 C 
HETATM    3  C   UNL     1     -44.089  56.149 -54.056  1.00  0.00     0.057 C 
HETATM    4  C   UNL     1     -43.417  57.355 -54.753  1.00  0.00     0.075 C 
HETATM    5  N   UNL     1     -43.075  58.532 -53.864  1.00  0.00    -0.398 N 
HETATM    6  C   UNL     1     -44.257  59.160 -53.212  1.00  0.00     0.124 C 
HETATM    7  C   UNL     1     -45.223  59.813 -54.232  1.00  0.00     0.078 C 
HETATM    8  C   UNL     1     -45.267  59.000 -55.456  1.00  0.00     0.037 A 
HETATM    9  C   UNL     1     -44.456  57.917 -55.729  1.00  0.00     0.061 A 
HETATM   10  N   UNL     1     -44.837  57.476 -56.988  1.00  0.00    -0.352 N 
HETATM   11  H   UNL     1     -44.450  56.684 -57.493  1.00  0.00     0.166 HD
HETATM   12  C   UNL     1     -45.802  58.261 -57.491  1.00  0.00     0.181 A 
HETATM   13  N   UNL     1     -46.074  59.180 -56.560  1.00  0.00    -0.354 N 
HETATM   14  H   UNL     1     -46.768  59.918 -56.670  1.00  0.00     0.166 HD
HETATM   15  C   UNL     1     -42.223  56.792 -55.565  1.00  0.00     0.057 C 
HETATM   16  C   UNL     1     -41.294  55.831 -54.819  1.00  0.00     0.127 C 
ENDROOT
BRANCH   5  17
HETATM   17  C   UNL     1     -41.881  58.464 -53.018  1.00  0.00     0.122 C 
BRANCH  17  18
HETATM   18  C   UNL     1     -42.061  58.582 -51.482  1.00  0.00    -0.005 C 
HETATM   19  C   UNL     1     -41.365  57.399 -50.797  1.00  0.00     0.011 C 
HETATM   20  C   UNL     1     -41.499  59.895 -50.933  1.00  0.00     0.011 C 
ENDBRANCH  17  18
ENDBRANCH   5  17
BRANCH   1  21
HETATM   21  C   UNL     1     -41.186  53.853 -53.377  1.00  0.00     0.103 A 
HETATM   22  N   UNL     1     -40.922  53.954 -52.062  1.00  0.00    -0.344 N 
HETATM   23  C   UNL     1     -40.201  53.075 -51.340  1.00  0.00     0.039 A 
HETATM   24  H   UNL     1     -41.260  54.739 -51.504  1.00  0.00     0.167 HD
HETATM   25  C   UNL     1     -39.628  51.978 -51.962  1.00  0.00     0.028 A 
HETATM   26  C   UNL     1     -39.807  51.829 -53.328  1.00  0.00     0.006 A 
HETATM   27  C   UNL     1     -40.572  52.762 -54.033  1.00  0.00     0.048 A 
BRANCH  23  28
HETATM   28  C   UNL     1     -40.095  53.389 -49.875  1.00  0.00     0.163 C 
HETATM   29  C   UNL     1     -41.366  54.012 -49.319  1.00  0.00     0.046 C 
BRANCH  28  30
HETATM   30  O   UNL     1     -39.030  54.355 -49.777  1.00  0.00    -0.390 OA
HETATM   31  H   UNL     1     -38.197  53.857 -49.931  1.00  0.00     0.210 HD
ENDBRANCH  28  30
ENDBRANCH  23  28
ENDBRANCH   1  21
TORSDOF 5
ENDMDL
MODEL 6
REMARK VINA RESULT:      -7.8      3.558      7.733
REMARK  5 active torsions:
REMARK  status: ('A' for Active; 'I' for Inactive)
REMARK    1  A    between atoms: C_2  and  O_3 
REMARK    2  A    between atoms: C_2  and  C_4 
REMARK    3  A    between atoms: C_7  and  N_8 
REMARK    4  A    between atoms: N_12  and  C_13 
REMARK    5  A    between atoms: C_13  and  C_14 
ROOT
HETATM    1  N   UNL     1     -41.218  55.227 -52.703  1.00  0.00    -0.367 N 
HETATM    2  C   UNL     1     -40.695  56.320 -53.547  1.00  0.00     0.127 C 
HETATM    3  C   UNL     1     -41.101  57.689 -53.022  1.00  0.00     0.057 C 
HETATM    4  C   UNL     1     -42.621  57.884 -52.810  1.00  0.00     0.075 C 
HETATM    5  N   UNL     1     -43.444  58.111 -54.060  1.00  0.00    -0.398 N 
HETATM    6  C   UNL     1     -43.069  59.337 -54.816  1.00  0.00     0.124 C 
HETATM    7  C   UNL     1     -43.350  60.636 -54.020  1.00  0.00     0.078 C 
HETATM    8  C   UNL     1     -43.078  60.408 -52.594  1.00  0.00     0.037 A 
HETATM    9  C   UNL     1     -42.778  59.188 -52.021  1.00  0.00     0.061 A 
HETATM   10  N   UNL     1     -42.614  59.445 -50.667  1.00  0.00    -0.352 N 
HETATM   11  H   UNL     1     -42.375  58.768 -49.948  1.00  0.00     0.166 HD
HETATM   12  C   UNL     1     -42.839  60.741 -50.403  1.00  0.00     0.181 A 
HETATM   13  N   UNL     1     -43.108  61.331 -51.570  1.00  0.00    -0.354 N 
HETATM   14  H   UNL     1     -43.326  62.321 -51.676  1.00  0.00     0.166 HD
HETATM   15  C   UNL     1     -43.102  56.706 -51.925  1.00  0.00     0.057 C 
HETATM   16  C   UNL     1     -42.647  55.309 -52.357  1.00  0.00     0.127 C 
ENDROOT
BRANCH   5  17
HETATM   17  C   UNL     1     -43.794  56.963 -54.901  1.00  0.00     0.122 C 
BRANCH  17  18
HETATM   18  C   UNL     1     -43.149  56.859 -56.307  1.00  0.00    -0.005 C 
HETATM   19  C   UNL     1     -42.753  55.402 -56.577  1.00  0.00     0.011 C 
HETATM   20  C   UNL     1     -44.088  57.347 -57.413  1.00  0.00     0.011 C 
ENDBRANCH  17  18
ENDBRANCH   5  17
BRANCH   1  21
HETATM   21  C   UNL     1     -40.736  53.944 -53.056  1.00  0.00     0.103 A 
HETATM   22  N   UNL     1     -40.313  53.072 -52.124  1.00  0.00    -0.344 N 
HETATM   23  C   UNL     1     -39.888  51.817 -52.362  1.00  0.00     0.039 A 
HETATM   24  H   UNL     1     -40.279  53.318 -51.133  1.00  0.00     0.167 HD
HETATM   25  C   UNL     1     -39.825  51.347 -53.665  1.00  0.00     0.028 A 
HETATM   26  C   UNL     1     -40.194  52.202 -54.691  1.00  0.00     0.006 A 
HETATM   27  C   UNL     1     -40.637  53.494 -54.392  1.00  0.00     0.048 A 
BRANCH  23  28
HETATM   28  C   UNL     1     -39.517  51.027 -51.141  1.00  0.00     0.163 C 
HETATM   29  C   UNL     1     -39.746  49.534 -51.321  1.00  0.00     0.046 C 
BRANCH  28  30
HETATM   30  O   UNL     1     -40.399  51.504 -50.105  1.00  0.00    -0.390 OA
HETATM   31  H   UNL     1     -40.246  52.472 -50.044  1.00  0.00     0.210 HD
ENDBRANCH  28  30
ENDBRANCH  23  28
ENDBRANCH   1  21
TORSDOF 5
ENDMDL
MODEL 7
REMARK VINA RESULT:      -7.6      1.606      2.240
REMARK  5 active torsions:
REMARK  status: ('A' for Active; 'I' for Inactive)
REMARK    1  A    between atoms: C_2  and  O_3 
REMARK    2  A    between atoms: C_2  and  C_4 
REMARK    3  A    between atoms: C_7  and  N_8 
REMARK    4  A    between atoms: N_12  and  C_13 
REMARK    5  A    between atoms: C_13  and  C_14 
ROOT
HETATM    1  N   UNL     1     -42.459  55.302 -56.229  1.00  0.00    -0.367 N 
HETATM    2  C   UNL     1     -41.320  55.786 -55.424  1.00  0.00     0.127 C 
HETATM    3  C   UNL     1     -40.593  54.648 -54.723  1.00  0.00     0.057 C 
HETATM    4  C   UNL     1     -41.490  53.738 -53.851  1.00  0.00     0.075 C 
HETATM    5  N   UNL     1     -41.911  54.305 -52.512  1.00  0.00    -0.398 N 
HETATM    6  C   UNL     1     -40.775  54.601 -51.597  1.00  0.00     0.124 C 
HETATM    7  C   UNL     1     -40.009  53.326 -51.166  1.00  0.00     0.078 C 
HETATM    8  C   UNL     1     -39.963  52.377 -52.288  1.00  0.00     0.037 A 
HETATM    9  C   UNL     1     -40.635  52.520 -53.486  1.00  0.00     0.061 A 
HETATM   10  N   UNL     1     -40.313  51.393 -54.228  1.00  0.00    -0.352 N 
HETATM   11  H   UNL     1     -40.629  51.179 -55.170  1.00  0.00     0.166 HD
HETATM   12  C   UNL     1     -39.519  50.574 -53.522  1.00  0.00     0.181 A 
HETATM   13  N   UNL     1     -39.295  51.172 -52.349  1.00  0.00    -0.354 N 
HETATM   14  H   UNL     1     -38.725  50.776 -51.603  1.00  0.00     0.166 HD
HETATM   15  C   UNL     1     -42.662  53.272 -54.751  1.00  0.00     0.057 C 
HETATM   16  C   UNL     1     -43.374  54.367 -55.551  1.00  0.00     0.127 C 
ENDROOT
BRANCH   5  17
HETATM   17  C   UNL     1     -43.000  55.283 -52.462  1.00  0.00     0.122 C 
BRANCH  17  18
HETATM   18  C   UNL     1     -43.504  55.752 -51.073  1.00  0.00    -0.005 C 
HETATM   19  C   UNL     1     -44.417  56.973 -51.249  1.00  0.00     0.011 C 
HETATM   20  C   UNL     1     -44.260  54.650 -50.328  1.00  0.00     0.011 C 
ENDBRANCH  17  18
ENDBRANCH   5  17
BRANCH   1  21
HETATM   21  C   UNL     1     -43.068  56.300 -57.026  1.00  0.00     0.103 A 
HETATM   22  N   UNL     1     -44.050  57.081 -56.543  1.00  0.00    -0.344 N 
HETATM   23  C   UNL     1     -44.651  58.085 -57.210  1.00  0.00     0.039 A 
HETATM   24  H   UNL     1     -44.425  56.954 -55.601  1.00  0.00     0.167 HD
HETATM   25  C   UNL     1     -44.291  58.353 -58.521  1.00  0.00     0.028 A 
HETATM   26  C   UNL     1     -43.322  57.558 -59.112  1.00  0.00     0.006 A 
HETATM   27  C   UNL     1     -42.721  56.534 -58.376  1.00  0.00     0.048 A 
BRANCH  23  28
HETATM   28  C   UNL     1     -45.686  58.841 -56.427  1.00  0.00     0.163 C 
HETATM   29  C   UNL     1     -45.288  60.288 -56.181  1.00  0.00     0.046 C 
BRANCH  28  30
HETATM   30  O   UNL     1     -45.761  58.164 -55.157  1.00  0.00    -0.390 OA
HETATM   31  H   UNL     1     -46.451  58.633 -54.639  1.00  0.00     0.210 HD
ENDBRANCH  28  30
ENDBRANCH  23  28
ENDBRANCH   1  21
TORSDOF 5
ENDMDL
MODEL 8
REMARK VINA RESULT:      -7.6      3.449      7.552
REMARK  5 active torsions:
REMARK  status: ('A' for Active; 'I' for Inactive)
REMARK    1  A    between atoms: C_2  and  O_3 
REMARK    2  A    between atoms: C_2  and  C_4 
REMARK    3  A    between atoms: C_7  and  N_8 
REMARK    4  A    between atoms: N_12  and  C_13 
REMARK    5  A    between atoms: C_13  and  C_14 
ROOT
HETATM    1  N   UNL     1     -42.011  55.627 -51.187  1.00  0.00    -0.367 N 
HETATM    2  C   UNL     1     -41.130  56.812 -51.200  1.00  0.00     0.127 C 
HETATM    3  C   UNL     1     -41.898  58.096 -50.927  1.00  0.00     0.057 C 
HETATM    4  C   UNL     1     -43.108  58.344 -51.859  1.00  0.00     0.075 C 
HETATM    5  N   UNL     1     -42.784  58.826 -53.257  1.00  0.00    -0.398 N 
HETATM    6  C   UNL     1     -42.079  60.136 -53.296  1.00  0.00     0.124 C 
HETATM    7  C   UNL     1     -42.952  61.298 -52.764  1.00  0.00     0.078 C 
HETATM    8  C   UNL     1     -43.781  60.820 -51.648  1.00  0.00     0.037 A 
HETATM    9  C   UNL     1     -43.893  59.506 -51.239  1.00  0.00     0.061 A 
HETATM   10  N   UNL     1     -44.782  59.523 -50.175  1.00  0.00    -0.352 N 
HETATM   11  H   UNL     1     -45.084  58.722 -49.627  1.00  0.00     0.166 HD
HETATM   12  C   UNL     1     -45.232  60.768 -49.956  1.00  0.00     0.181 A 
HETATM   13  N   UNL     1     -44.618  61.559 -50.840  1.00  0.00    -0.354 N 
HETATM   14  H   UNL     1     -44.771  62.564 -50.911  1.00  0.00     0.166 HD
HETATM   15  C   UNL     1     -43.983  57.066 -51.803  1.00  0.00     0.057 C 
HETATM   16  C   UNL     1     -43.246  55.736 -51.982  1.00  0.00     0.127 C 
ENDROOT
BRANCH   5  17
HETATM   17  C   UNL     1     -42.322  57.858 -54.255  1.00  0.00     0.122 C 
BRANCH  17  18
HETATM   18  C   UNL     1     -43.232  57.571 -55.477  1.00  0.00    -0.005 C 
HETATM   19  C   UNL     1     -43.237  56.064 -55.763  1.00  0.00     0.011 C 
HETATM   20  C   UNL     1     -44.666  58.056 -55.258  1.00  0.00     0.011 C 
ENDBRANCH  17  18
ENDBRANCH   5  17
BRANCH   1  21
HETATM   21  C   UNL     1     -41.321  54.394 -51.277  1.00  0.00     0.103 A 
HETATM   22  N   UNL     1     -40.956  53.879 -52.464  1.00  0.00    -0.344 N 
HETATM   23  C   UNL     1     -40.256  52.742 -52.641  1.00  0.00     0.039 A 
HETATM   24  H   UNL     1     -41.201  54.332 -53.346  1.00  0.00     0.167 HD
HETATM   25  C   UNL     1     -39.890  51.980 -51.543  1.00  0.00     0.028 A 
HETATM   26  C   UNL     1     -40.275  52.414 -50.284  1.00  0.00     0.006 A 
HETATM   27  C   UNL     1     -40.992  53.606 -50.150  1.00  0.00     0.048 A 
BRANCH  23  28
HETATM   28  C   UNL     1     -39.930  52.410 -54.068  1.00  0.00     0.163 C 
HETATM   29  C   UNL     1     -40.276  53.542 -55.024  1.00  0.00     0.046 C 
BRANCH  28  30
HETATM   30  O   UNL     1     -40.756  51.273 -54.385  1.00  0.00    -0.390 OA
HETATM   31  H   UNL     1     -41.672  51.617 -54.468  1.00  0.00     0.210 HD
ENDBRANCH  28  30
ENDBRANCH  23  28
ENDBRANCH   1  21
TORSDOF 5
ENDMDL
MODEL 9
REMARK VINA RESULT:      -7.4      3.779      6.356
REMARK  5 active torsions:
REMARK  status: ('A' for Active; 'I' for Inactive)
REMARK    1  A    between atoms: C_2  and  O_3 
REMARK    2  A    between atoms: C_2  and  C_4 
REMARK    3  A    between atoms: C_7  and  N_8 
REMARK    4  A    between atoms: N_12  and  C_13 
REMARK    5  A    between atoms: C_13  and  C_14 
ROOT
HETATM    1  N   UNL     1     -43.508  57.641 -51.609  1.00  0.00    -0.367 N 
HETATM    2  C   UNL     1     -44.108  56.427 -52.200  1.00  0.00     0.127 C 
HETATM    3  C   UNL     1     -43.178  55.227 -52.101  1.00  0.00     0.057 C 
HETATM    4  C   UNL     1     -41.765  55.444 -52.693  1.00  0.00     0.075 C 
HETATM    5  N   UNL     1     -41.664  55.408 -54.203  1.00  0.00    -0.398 N 
HETATM    6  C   UNL     1     -42.065  54.107 -54.805  1.00  0.00     0.124 C 
HETATM    7  C   UNL     1     -41.118  52.949 -54.404  1.00  0.00     0.078 C 
HETATM    8  C   UNL     1     -40.675  53.134 -53.015  1.00  0.00     0.037 A 
HETATM    9  C   UNL     1     -40.923  54.247 -52.236  1.00  0.00     0.061 A 
HETATM   10  N   UNL     1     -40.311  53.992 -51.018  1.00  0.00    -0.352 N 
HETATM   11  H   UNL     1     -40.307  54.601 -50.205  1.00  0.00     0.166 HD
HETATM   12  C   UNL     1     -39.681  52.807 -51.046  1.00  0.00     0.181 A 
HETATM   13  N   UNL     1     -39.909  52.279 -52.251  1.00  0.00    -0.354 N 
HETATM   14  H   UNL     1     -39.546  51.378 -52.559  1.00  0.00     0.166 HD
HETATM   15  C   UNL     1     -41.200  56.729 -52.038  1.00  0.00     0.057 C 
HETATM   16  C   UNL     1     -42.130  57.946 -52.029  1.00  0.00     0.127 C 
ENDROOT
BRANCH   5  17
HETATM   17  C   UNL     1     -42.075  56.584 -54.973  1.00  0.00     0.122 C 
BRANCH  17  18
HETATM   18  C   UNL     1     -43.276  56.444 -55.944  1.00  0.00    -0.005 C 
HETATM   19  C   UNL     1     -44.270  57.585 -55.690  1.00  0.00     0.011 C 
HETATM   20  C   UNL     1     -42.840  56.463 -57.411  1.00  0.00     0.011 C 
ENDBRANCH  17  18
ENDBRANCH   5  17
BRANCH   1  21
HETATM   21  C   UNL     1     -44.393  58.743 -51.532  1.00  0.00     0.103 A 
HETATM   22  N   UNL     1     -44.766  59.261 -50.349  1.00  0.00    -0.344 N 
HETATM   23  C   UNL     1     -45.559  60.336 -50.181  1.00  0.00     0.039 A 
HETATM   24  H   UNL     1     -44.464  58.853 -49.463  1.00  0.00     0.167 HD
HETATM   25  C   UNL     1     -46.095  60.976 -51.288  1.00  0.00     0.028 A 
HETATM   26  C   UNL     1     -45.803  60.471 -52.544  1.00  0.00     0.006 A 
HETATM   27  C   UNL     1     -44.966  59.358 -52.668  1.00  0.00     0.048 A 
BRANCH  23  28
HETATM   28  C   UNL     1     -45.784  60.747 -48.754  1.00  0.00     0.163 C 
HETATM   29  C   UNL     1     -44.564  61.415 -48.141  1.00  0.00     0.046 C 
BRANCH  28  30
HETATM   30  O   UNL     1     -46.037  59.516 -48.048  1.00  0.00    -0.390 OA
HETATM   31  H   UNL     1     -45.161  59.190 -47.747  1.00  0.00     0.210 HD
ENDBRANCH  28  30
ENDBRANCH  23  28
ENDBRANCH   1  21
TORSDOF 5
ENDMDL
MODEL 10
REMARK VINA RESULT:      -7.1      4.391      7.187
REMARK  5 active torsions:
REMARK  status: ('A' for Active; 'I' for Inactive)
REMARK    1  A    between atoms: C_2  and  O_3 
REMARK    2  A    between atoms: C_2  and  C_4 
REMARK    3  A    between atoms: C_7  and  N_8 
REMARK    4  A    between atoms: N_12  and  C_13 
REMARK    5  A    between atoms: C_13  and  C_14 
ROOT
HETATM    1  N   UNL     1     -42.797  58.936 -51.162  1.00  0.00    -0.367 N 
HETATM    2  C   UNL     1     -43.889  57.976 -51.420  1.00  0.00     0.127 C 
HETATM    3  C   UNL     1     -43.360  56.609 -51.828  1.00  0.00     0.057 C 
HETATM    4  C   UNL     1     -42.387  56.617 -53.031  1.00  0.00     0.075 C 
HETATM    5  N   UNL     1     -43.017  56.790 -54.396  1.00  0.00    -0.398 N 
HETATM    6  C   UNL     1     -43.969  55.706 -54.764  1.00  0.00     0.124 C 
HETATM    7  C   UNL     1     -43.274  54.330 -54.917  1.00  0.00     0.078 C 
HETATM    8  C   UNL     1     -42.201  54.208 -53.919  1.00  0.00     0.037 A 
HETATM    9  C   UNL     1     -41.764  55.217 -53.085  1.00  0.00     0.061 A 
HETATM   10  N   UNL     1     -40.740  54.660 -52.333  1.00  0.00    -0.352 N 
HETATM   11  H   UNL     1     -40.201  55.125 -51.608  1.00  0.00     0.166 HD
HETATM   12  C   UNL     1     -40.521  53.390 -52.703  1.00  0.00     0.181 A 
HETATM   13  N   UNL     1     -41.412  53.108 -53.657  1.00  0.00    -0.354 N 
HETATM   14  H   UNL     1     -41.478  52.209 -54.132  1.00  0.00     0.166 HD
HETATM   15  C   UNL     1     -41.276  57.644 -52.698  1.00  0.00     0.057 C 
HETATM   16  C   UNL     1     -41.749  59.011 -52.196  1.00  0.00     0.127 C 
ENDROOT
BRANCH   5  17
HETATM   17  C   UNL     1     -43.427  58.129 -54.828  1.00  0.00     0.122 C 
BRANCH  17  18
HETATM   18  C   UNL     1     -44.943  58.455 -54.872  1.00  0.00    -0.005 C 
HETATM   19  C   UNL     1     -45.197  59.783 -54.147  1.00  0.00     0.011 C 
HETATM   20  C   UNL     1     -45.475  58.543 -56.304  1.00  0.00     0.011 C 
ENDBRANCH  17  18
ENDBRANCH   5  17
BRANCH   1  21
HETATM   21  C   UNL     1     -43.230  60.173 -50.626  1.00  0.00     0.103 A 
HETATM   22  N   UNL     1     -44.127  60.228 -49.626  1.00  0.00    -0.344 N 
HETATM   23  C   UNL     1     -44.556  61.352 -49.022  1.00  0.00     0.039 A 
HETATM   24  H   UNL     1     -44.564  59.386 -49.248  1.00  0.00     0.167 HD
HETATM   25  C   UNL     1     -44.096  62.586 -49.455  1.00  0.00     0.028 A 
HETATM   26  C   UNL     1     -43.208  62.620 -50.518  1.00  0.00     0.006 A 
HETATM   27  C   UNL     1     -42.784  61.425 -51.106  1.00  0.00     0.048 A 
BRANCH  23  28
HETATM   28  C   UNL     1     -45.525  61.140 -47.895  1.00  0.00     0.163 C 
HETATM   29  C   UNL     1     -44.869  61.277 -46.530  1.00  0.00     0.046 C 
BRANCH  28  30
HETATM   30  O   UNL     1     -45.985  59.783 -48.049  1.00  0.00    -0.390 OA
HETATM   31  H   UNL     1     -45.449  59.242 -47.428  1.00  0.00     0.210 HD
ENDBRANCH  28  30
ENDBRANCH  23  28
ENDBRANCH   1  21
TORSDOF 5
ENDMDL
