MODEL 1
REMARK VINA RESULT:      -7.4      0.000      0.000
REMARK  7 active torsions:
REMARK  status: ('A' for Active; 'I' for Inactive)
REMARK    1  A    between atoms: C_6  and  N_7 
REMARK       I    between atoms: N_7  and  C_8 
REMARK       I    between atoms: C_8  and  N_9 
REMARK    2  A    between atoms: N_9  and  C_10 
REMARK    3  A    between atoms: C_10  and  C_11 
REMARK    4  A    between atoms: C_11  and  O_12 
REMARK    5  A    between atoms: C_11  and  C_13 
REMARK    6  A    between atoms: C_13  and  N_14 
REMARK       I    between atoms: N_14  and  C_15 
REMARK       I    between atoms: C_15  and  N_16 
REMARK    7  A    between atoms: N_16  and  C_17 
ROOT
HETATM    1  C   UNL     1     -44.153  58.443 -53.729  1.00  0.00     0.153 C 
ENDROOT
BRANCH   1   2
HETATM    2  C   UNL     1     -43.059  58.766 -54.763  1.00  0.00     0.157 C 
BRANCH   2   3
HETATM    3  N   UNL     1     -43.588  58.868 -56.114  1.00  0.00    -0.340 N 
HETATM    4  C   UNL     1     -43.678  57.769 -56.937  1.00  0.00     0.320 C 
HETATM    5  N   UNL     1     -44.421  58.054 -58.061  1.00  0.00    -0.306 N 
HETATM    6  O   UNL     1     -43.182  56.690 -56.644  1.00  0.00    -0.247 OA
HETATM    7  H   UNL     1     -45.095  58.791 -57.925  1.00  0.00     0.171 HD
HETATM    8  H   UNL     1     -44.284  59.591 -56.223  1.00  0.00     0.164 HD
BRANCH   5   9
HETATM    9  C   UNL     1     -44.689  57.153 -59.120  1.00  0.00     0.077 A 
HETATM   10  C   UNL     1     -43.764  56.545 -59.977  1.00  0.00     0.152 A 
HETATM   11  N   UNL     1     -44.105  55.675 -60.965  1.00  0.00    -0.247 NA
HETATM   12 CL   UNL     1     -42.103  56.991 -60.097  1.00  0.00    -0.060 Cl
HETATM   13  C   UNL     1     -45.415  55.402 -61.122  1.00  0.00     0.118 A 
HETATM   14  C   UNL     1     -46.413  55.981 -60.361  1.00  0.00     0.022 A 
HETATM   15  C   UNL     1     -46.043  56.872 -59.357  1.00  0.00     0.034 A 
ENDBRANCH   5   9
ENDBRANCH   2   3
ENDBRANCH   1   2
BRANCH   1  16
HETATM   16  O   UNL     1     -45.426  58.775 -54.310  1.00  0.00    -0.392 OA
HETATM   17  H   UNL     1     -46.106  58.195 -53.901  1.00  0.00     0.210 HD
ENDBRANCH   1  16
BRANCH   1  18
HETATM   18  C   UNL     1     -44.092  56.981 -53.245  1.00  0.00     0.157 C 
BRANCH  18  19
HETATM   19  N   UNL     1     -42.782  56.373 -53.463  1.00  0.00    -0.340 N 
HETATM   20  C   UNL     1     -42.516  55.086 -53.056  1.00  0.00     0.320 C 
HETATM   21  N   UNL     1     -41.264  54.692 -53.462  1.00  0.00    -0.306 N 
HETATM   22  O   UNL     1     -43.345  54.412 -52.462  1.00  0.00    -0.247 OA
HETATM   23  H   UNL     1     -40.974  55.142 -54.317  1.00  0.00     0.171 HD
HETATM   24  H   UNL     1     -41.991  56.992 -53.568  1.00  0.00     0.164 HD
BRANCH  21  25
HETATM   25  C   UNL     1     -40.681  53.430 -53.187  1.00  0.00     0.077 A 
HETATM   26  C   UNL     1     -40.208  52.962 -51.954  1.00  0.00     0.152 A 
HETATM   27 CL   UNL     1     -39.985  53.949 -50.558  1.00  0.00    -0.060 Cl
HETATM   28  N   UNL     1     -39.680  51.724 -51.765  1.00  0.00    -0.247 NA
HETATM   29  C   UNL     1     -39.602  50.916 -52.839  1.00  0.00     0.118 A 
HETATM   30  C   UNL     1     -39.994  51.295 -54.109  1.00  0.00     0.022 A 
HETATM   31  C   UNL     1     -40.529  52.570 -54.283  1.00  0.00     0.034 A 
ENDBRANCH  21  25
ENDBRANCH  18  19
ENDBRANCH   1  18
TORSDOF 7
ENDMDL
MODEL 2
REMARK VINA RESULT:      -7.4      5.130      8.331
REMARK  7 active torsions:
REMARK  status: ('A' for Active; 'I' for Inactive)
REMARK    1  A    between atoms: C_6  and  N_7 
REMARK       I    between atoms: N_7  and  C_8 
REMARK       I    between atoms: C_8  and  N_9 
REMARK    2  A    between atoms: N_9  and  C_10 
REMARK    3  A    between atoms: C_10  and  C_11 
REMARK    4  A    between atoms: C_11  and  O_12 
REMARK    5  A    between atoms: C_11  and  C_13 
REMARK    6  A    between atoms: C_13  and  N_14 
REMARK       I    between atoms: N_14  and  C_15 
REMARK       I    between atoms: C_15  and  N_16 
REMARK    7  A    between atoms: N_16  and  C_17 
ROOT
HETATM    1  C   UNL     1     -44.061  57.238 -51.598  1.00  0.00     0.153 C 
ENDROOT
BRANCH   1   2
HETATM    2  C   UNL     1     -44.835  58.568 -51.554  1.00  0.00     0.157 C 
BRANCH   2   3
HETATM    3  N   UNL     1     -44.221  59.534 -50.656  1.00  0.00    -0.340 N 
HETATM    4  C   UNL     1     -44.977  60.308 -49.806  1.00  0.00     0.320 C 
HETATM    5  N   UNL     1     -44.180  60.964 -48.895  1.00  0.00    -0.306 N 
HETATM    6  O   UNL     1     -46.199  60.342 -49.864  1.00  0.00    -0.247 OA
HETATM    7  H   UNL     1     -43.310  60.492 -48.705  1.00  0.00     0.171 HD
HETATM    8  H   UNL     1     -43.296  59.272 -50.350  1.00  0.00     0.164 HD
BRANCH   5   9
HETATM    9  C   UNL     1     -44.636  61.855 -47.894  1.00  0.00     0.077 A 
HETATM   10  C   UNL     1     -44.680  63.253 -47.954  1.00  0.00     0.152 A 
HETATM   11  N   UNL     1     -45.148  64.039 -46.948  1.00  0.00    -0.247 NA
HETATM   12 CL   UNL     1     -43.918  64.204 -49.173  1.00  0.00    -0.060 Cl
HETATM   13  C   UNL     1     -45.582  63.422 -45.832  1.00  0.00     0.118 A 
HETATM   14  C   UNL     1     -45.540  62.052 -45.652  1.00  0.00     0.022 A 
HETATM   15  C   UNL     1     -45.053  61.265 -46.692  1.00  0.00     0.034 A 
ENDBRANCH   5   9
ENDBRANCH   2   3
ENDBRANCH   1   2
BRANCH   1  16
HETATM   16  O   UNL     1     -44.739  56.299 -50.746  1.00  0.00    -0.392 OA
HETATM   17  H   UNL     1     -44.300  55.426 -50.848  1.00  0.00     0.210 HD
ENDBRANCH   1  16
BRANCH   1  18
HETATM   18  C   UNL     1     -43.885  56.707 -53.034  1.00  0.00     0.157 C 
BRANCH  18  19
HETATM   19  N   UNL     1     -42.580  56.089 -53.248  1.00  0.00    -0.340 N 
HETATM   20  C   UNL     1     -42.350  54.773 -52.919  1.00  0.00     0.320 C 
HETATM   21  N   UNL     1     -41.092  54.382 -53.309  1.00  0.00    -0.306 N 
HETATM   22  O   UNL     1     -43.210  54.078 -52.397  1.00  0.00    -0.247 OA
HETATM   23  H   UNL     1     -40.765  54.881 -54.123  1.00  0.00     0.171 HD
HETATM   24  H   UNL     1     -41.775  56.698 -53.287  1.00  0.00     0.164 HD
BRANCH  21  25
HETATM   25  C   UNL     1     -40.540  53.094 -53.099  1.00  0.00     0.077 A 
HETATM   26  C   UNL     1     -40.023  52.574 -51.904  1.00  0.00     0.152 A 
HETATM   27 CL   UNL     1     -39.696  53.512 -50.495  1.00  0.00    -0.060 Cl
HETATM   28  N   UNL     1     -39.530  51.315 -51.776  1.00  0.00    -0.247 NA
HETATM   29  C   UNL     1     -39.534  50.536 -52.874  1.00  0.00     0.118 A 
HETATM   30  C   UNL     1     -39.976  50.964 -54.113  1.00  0.00     0.022 A 
HETATM   31  C   UNL     1     -40.474  52.261 -54.224  1.00  0.00     0.034 A 
ENDBRANCH  21  25
ENDBRANCH  18  19
ENDBRANCH   1  18
TORSDOF 7
ENDMDL
MODEL 3
REMARK VINA RESULT:      -7.4      1.934      7.966
REMARK  7 active torsions:
REMARK  status: ('A' for Active; 'I' for Inactive)
REMARK    1  A    between atoms: C_6  and  N_7 
REMARK       I    between atoms: N_7  and  C_8 
REMARK       I    between atoms: C_8  and  N_9 
REMARK    2  A    between atoms: N_9  and  C_10 
REMARK    3  A    between atoms: C_10  and  C_11 
REMARK    4  A    between atoms: C_11  and  O_12 
REMARK    5  A    between atoms: C_11  and  C_13 
REMARK    6  A    between atoms: C_13  and  N_14 
REMARK       I    between atoms: N_14  and  C_15 
REMARK       I    between atoms: C_15  and  N_16 
REMARK    7  A    between atoms: N_16  and  C_17 
ROOT
HETATM    1  C   UNL     1     -43.429  56.537 -53.000  1.00  0.00     0.153 C 
ENDROOT
BRANCH   1   2
HETATM    2  C   UNL     1     -42.979  56.391 -51.535  1.00  0.00     0.157 C 
BRANCH   2   3
HETATM    3  N   UNL     1     -41.773  55.588 -51.405  1.00  0.00    -0.340 N 
HETATM    4  C   UNL     1     -41.794  54.224 -51.579  1.00  0.00     0.320 C 
HETATM    5  N   UNL     1     -40.516  53.715 -51.647  1.00  0.00    -0.306 N 
HETATM    6  O   UNL     1     -42.837  53.595 -51.697  1.00  0.00    -0.247 OA
HETATM    7  H   UNL     1     -39.833  54.378 -51.979  1.00  0.00     0.171 HD
HETATM    8  H   UNL     1     -40.929  56.079 -51.664  1.00  0.00     0.164 HD
BRANCH   5   9
HETATM    9  C   UNL     1     -40.183  52.348 -51.801  1.00  0.00     0.077 A 
HETATM   10  C   UNL     1     -39.925  51.663 -52.995  1.00  0.00     0.152 A 
HETATM   11  N   UNL     1     -39.596  50.344 -53.055  1.00  0.00    -0.247 NA
HETATM   12 CL   UNL     1     -40.237  52.291 -54.569  1.00  0.00    -0.060 Cl
HETATM   13  C   UNL     1     -39.528  49.671 -51.891  1.00  0.00     0.118 A 
HETATM   14  C   UNL     1     -39.807  50.239 -50.662  1.00  0.00     0.022 A 
HETATM   15  C   UNL     1     -40.147  51.589 -50.622  1.00  0.00     0.034 A 
ENDBRANCH   5   9
ENDBRANCH   2   3
ENDBRANCH   1   2
BRANCH   1  16
HETATM   16  O   UNL     1     -44.661  57.278 -53.015  1.00  0.00    -0.392 OA
HETATM   17  H   UNL     1     -44.531  58.071 -53.581  1.00  0.00     0.210 HD
ENDBRANCH   1  16
BRANCH   1  18
HETATM   18  C   UNL     1     -42.346  57.180 -53.887  1.00  0.00     0.157 C 
BRANCH  18  19
HETATM   19  N   UNL     1     -42.131  56.447 -55.131  1.00  0.00    -0.340 N 
HETATM   20  C   UNL     1     -42.989  56.584 -56.198  1.00  0.00     0.320 C 
HETATM   21  N   UNL     1     -42.529  55.888 -57.290  1.00  0.00    -0.306 N 
HETATM   22  O   UNL     1     -43.986  57.290 -56.139  1.00  0.00    -0.247 OA
HETATM   23  H   UNL     1     -41.522  55.821 -57.311  1.00  0.00     0.171 HD
HETATM   24  H   UNL     1     -41.593  55.593 -55.084  1.00  0.00     0.164 HD
BRANCH  21  25
HETATM   25  C   UNL     1     -43.190  55.810 -58.541  1.00  0.00     0.077 A 
HETATM   26  C   UNL     1     -43.155  56.750 -59.581  1.00  0.00     0.152 A 
HETATM   27 CL   UNL     1     -42.514  58.343 -59.433  1.00  0.00    -0.060 Cl
HETATM   28  N   UNL     1     -43.800  56.592 -60.766  1.00  0.00    -0.247 NA
HETATM   29  C   UNL     1     -44.521  55.467 -60.932  1.00  0.00     0.118 A 
HETATM   30  C   UNL     1     -44.662  54.500 -59.954  1.00  0.00     0.022 A 
HETATM   31  C   UNL     1     -43.995  54.682 -58.743  1.00  0.00     0.034 A 
ENDBRANCH  21  25
ENDBRANCH  18  19
ENDBRANCH   1  18
TORSDOF 7
ENDMDL
MODEL 4
REMARK VINA RESULT:      -7.3      2.113      2.687
REMARK  7 active torsions:
REMARK  status: ('A' for Active; 'I' for Inactive)
REMARK    1  A    between atoms: C_6  and  N_7 
REMARK       I    between atoms: N_7  and  C_8 
REMARK       I    between atoms: C_8  and  N_9 
REMARK    2  A    between atoms: N_9  and  C_10 
REMARK    3  A    between atoms: C_10  and  C_11 
REMARK    4  A    between atoms: C_11  and  O_12 
REMARK    5  A    between atoms: C_11  and  C_13 
REMARK    6  A    between atoms: C_13  and  N_14 
REMARK       I    between atoms: N_14  and  C_15 
REMARK       I    between atoms: C_15  and  N_16 
REMARK    7  A    between atoms: N_16  and  C_17 
ROOT
HETATM    1  C   UNL     1     -42.912  56.862 -52.192  1.00  0.00     0.153 C 
ENDROOT
BRANCH   1   2
HETATM    2  C   UNL     1     -41.721  57.182 -53.114  1.00  0.00     0.157 C 
BRANCH   2   3
HETATM    3  N   UNL     1     -41.772  56.434 -54.361  1.00  0.00    -0.340 N 
HETATM    4  C   UNL     1     -42.459  56.905 -55.456  1.00  0.00     0.320 C 
HETATM    5  N   UNL     1     -42.170  56.161 -56.578  1.00  0.00    -0.306 N 
HETATM    6  O   UNL     1     -43.185  57.888 -55.399  1.00  0.00    -0.247 OA
HETATM    7  H   UNL     1     -41.264  55.720 -56.549  1.00  0.00     0.171 HD
HETATM    8  H   UNL     1     -40.949  55.874 -54.532  1.00  0.00     0.164 HD
BRANCH   5   9
HETATM    9  C   UNL     1     -42.722  56.366 -57.865  1.00  0.00     0.077 A 
HETATM   10  C   UNL     1     -42.515  57.456 -58.718  1.00  0.00     0.152 A 
HETATM   11  N   UNL     1     -43.076  57.570 -59.952  1.00  0.00    -0.247 NA
HETATM   12 CL   UNL     1     -41.750  58.929 -58.253  1.00  0.00    -0.060 Cl
HETATM   13  C   UNL     1     -43.882  56.571 -60.357  1.00  0.00     0.118 A 
HETATM   14  C   UNL     1     -44.190  55.472 -59.577  1.00  0.00     0.022 A 
HETATM   15  C   UNL     1     -43.609  55.377 -58.315  1.00  0.00     0.034 A 
ENDBRANCH   5   9
ENDBRANCH   2   3
ENDBRANCH   1   2
BRANCH   1  16
HETATM   16  O   UNL     1     -43.833  56.036 -52.924  1.00  0.00    -0.392 OA
HETATM   17  H   UNL     1     -44.744  56.274 -52.642  1.00  0.00     0.210 HD
ENDBRANCH   1  16
BRANCH   1  18
HETATM   18  C   UNL     1     -42.471  56.216 -50.865  1.00  0.00     0.157 C 
BRANCH  18  19
HETATM   19  N   UNL     1     -41.297  55.361 -51.020  1.00  0.00    -0.340 N 
HETATM   20  C   UNL     1     -41.416  54.049 -51.418  1.00  0.00     0.320 C 
HETATM   21  N   UNL     1     -40.181  53.477 -51.601  1.00  0.00    -0.306 N 
HETATM   22  O   UNL     1     -42.506  53.531 -51.618  1.00  0.00    -0.247 OA
HETATM   23  H   UNL     1     -39.481  54.148 -51.884  1.00  0.00     0.171 HD
HETATM   24  H   UNL     1     -40.467  55.607 -50.500  1.00  0.00     0.164 HD
BRANCH  21  25
HETATM   25  C   UNL     1     -39.957  52.134 -51.992  1.00  0.00     0.077 A 
HETATM   26  C   UNL     1     -39.858  51.633 -53.297  1.00  0.00     0.152 A 
HETATM   27 CL   UNL     1     -40.273  52.521 -54.715  1.00  0.00    -0.060 Cl
HETATM   28  N   UNL     1     -39.618  50.329 -53.592  1.00  0.00    -0.247 NA
HETATM   29  C   UNL     1     -39.481  49.477 -52.558  1.00  0.00     0.118 A 
HETATM   30  C   UNL     1     -39.609  49.856 -51.235  1.00  0.00     0.022 A 
HETATM   31  C   UNL     1     -39.859  51.198 -50.953  1.00  0.00     0.034 A 
ENDBRANCH  21  25
ENDBRANCH  18  19
ENDBRANCH   1  18
TORSDOF 7
ENDMDL
MODEL 5
REMARK VINA RESULT:      -7.3      1.748      2.205
REMARK  7 active torsions:
REMARK  status: ('A' for Active; 'I' for Inactive)
REMARK    1  A    between atoms: C_6  and  N_7 
REMARK       I    between atoms: N_7  and  C_8 
REMARK       I    between atoms: C_8  and  N_9 
REMARK    2  A    between atoms: N_9  and  C_10 
REMARK    3  A    between atoms: C_10  and  C_11 
REMARK    4  A    between atoms: C_11  and  O_12 
REMARK    5  A    between atoms: C_11  and  C_13 
REMARK    6  A    between atoms: C_13  and  N_14 
REMARK       I    between atoms: N_14  and  C_15 
REMARK       I    between atoms: C_15  and  N_16 
REMARK    7  A    between atoms: N_16  and  C_17 
ROOT
HETATM    1  C   UNL     1     -44.377  57.489 -52.320  1.00  0.00     0.153 C 
ENDROOT
BRANCH   1   2
HETATM    2  C   UNL     1     -44.539  56.390 -53.386  1.00  0.00     0.157 C 
BRANCH   2   3
HETATM    3  N   UNL     1     -44.731  56.938 -54.720  1.00  0.00    -0.340 N 
HETATM    4  C   UNL     1     -43.738  56.884 -55.670  1.00  0.00     0.320 C 
HETATM    5  N   UNL     1     -44.221  57.239 -56.910  1.00  0.00    -0.306 N 
HETATM    6  O   UNL     1     -42.600  56.519 -55.408  1.00  0.00    -0.247 OA
HETATM    7  H   UNL     1     -45.208  57.067 -57.025  1.00  0.00     0.171 HD
HETATM    8  H   UNL     1     -45.687  56.897 -55.041  1.00  0.00     0.164 HD
BRANCH   5   9
HETATM    9  C   UNL     1     -43.459  57.309 -58.101  1.00  0.00     0.077 A 
HETATM   10  C   UNL     1     -43.393  56.360 -59.127  1.00  0.00     0.152 A 
HETATM   11  N   UNL     1     -42.642  56.511 -60.251  1.00  0.00    -0.247 NA
HETATM   12 CL   UNL     1     -44.024  54.760 -59.020  1.00  0.00    -0.060 Cl
HETATM   13  C   UNL     1     -41.918  57.641 -60.362  1.00  0.00     0.118 A 
HETATM   14  C   UNL     1     -41.876  58.621 -59.388  1.00  0.00     0.022 A 
HETATM   15  C   UNL     1     -42.648  58.445 -58.243  1.00  0.00     0.034 A 
ENDBRANCH   5   9
ENDBRANCH   2   3
ENDBRANCH   1   2
BRANCH   1  16
HETATM   16  O   UNL     1     -45.379  57.280 -51.310  1.00  0.00    -0.392 OA
HETATM   17  H   UNL     1     -45.688  56.349 -51.378  1.00  0.00     0.210 HD
ENDBRANCH   1  16
BRANCH   1  18
HETATM   18  C   UNL     1     -42.953  57.535 -51.734  1.00  0.00     0.157 C 
BRANCH  18  19
HETATM   19  N   UNL     1     -42.008  56.721 -52.493  1.00  0.00    -0.340 N 
HETATM   20  C   UNL     1     -41.776  55.404 -52.167  1.00  0.00     0.320 C 
HETATM   21  N   UNL     1     -40.938  54.812 -53.081  1.00  0.00    -0.306 N 
HETATM   22  O   UNL     1     -42.317  54.871 -51.208  1.00  0.00    -0.247 OA
HETATM   23  H   UNL     1     -41.023  55.215 -54.003  1.00  0.00     0.171 HD
HETATM   24  H   UNL     1     -41.278  57.202 -52.999  1.00  0.00     0.164 HD
BRANCH  21  25
HETATM   25  C   UNL     1     -40.489  53.470 -53.022  1.00  0.00     0.077 A 
HETATM   26  C   UNL     1     -39.930  52.808 -51.920  1.00  0.00     0.152 A 
HETATM   27 CL   UNL     1     -39.410  53.591 -50.475  1.00  0.00    -0.060 Cl
HETATM   28  N   UNL     1     -39.543  51.506 -51.935  1.00  0.00    -0.247 NA
HETATM   29  C   UNL     1     -39.703  50.827 -53.087  1.00  0.00     0.118 A 
HETATM   30  C   UNL     1     -40.199  51.396 -54.245  1.00  0.00     0.022 A 
HETATM   31  C   UNL     1     -40.586  52.735 -54.211  1.00  0.00     0.034 A 
ENDBRANCH  21  25
ENDBRANCH  18  19
ENDBRANCH   1  18
TORSDOF 7
ENDMDL
MODEL 6
REMARK VINA RESULT:      -7.2      2.997      5.844
REMARK  7 active torsions:
REMARK  status: ('A' for Active; 'I' for Inactive)
REMARK    1  A    between atoms: C_6  and  N_7 
REMARK       I    between atoms: N_7  and  C_8 
REMARK       I    between atoms: C_8  and  N_9 
REMARK    2  A    between atoms: N_9  and  C_10 
REMARK    3  A    between atoms: C_10  and  C_11 
REMARK    4  A    between atoms: C_11  and  O_12 
REMARK    5  A    between atoms: C_11  and  C_13 
REMARK    6  A    between atoms: C_13  and  N_14 
REMARK       I    between atoms: N_14  and  C_15 
REMARK       I    between atoms: C_15  and  N_16 
REMARK    7  A    between atoms: N_16  and  C_17 
ROOT
HETATM    1  C   UNL     1     -43.044  56.910 -57.927  1.00  0.00     0.153 C 
ENDROOT
BRANCH   1   2
HETATM    2  C   UNL     1     -43.919  57.937 -57.186  1.00  0.00     0.157 C 
BRANCH   2   3
HETATM    3  N   UNL     1     -43.132  58.848 -56.370  1.00  0.00    -0.340 N 
HETATM    4  C   UNL     1     -42.964  58.644 -55.020  1.00  0.00     0.320 C 
HETATM    5  N   UNL     1     -41.998  59.481 -54.510  1.00  0.00    -0.306 N 
HETATM    6  O   UNL     1     -43.585  57.787 -54.406  1.00  0.00    -0.247 OA
HETATM    7  H   UNL     1     -41.311  59.768 -55.190  1.00  0.00     0.171 HD
HETATM    8  H   UNL     1     -42.376  59.292 -56.872  1.00  0.00     0.164 HD
BRANCH   5   9
HETATM    9  C   UNL     1     -41.595  59.544 -53.154  1.00  0.00     0.077 A 
HETATM   10  C   UNL     1     -42.246  60.198 -52.101  1.00  0.00     0.152 A 
HETATM   11  N   UNL     1     -41.797  60.197 -50.817  1.00  0.00    -0.247 NA
HETATM   12 CL   UNL     1     -43.546  61.311 -52.297  1.00  0.00    -0.060 Cl
HETATM   13  C   UNL     1     -40.654  59.532 -50.563  1.00  0.00     0.118 A 
HETATM   14  C   UNL     1     -39.910  58.891 -51.536  1.00  0.00     0.022 A 
HETATM   15  C   UNL     1     -40.384  58.908 -52.845  1.00  0.00     0.034 A 
ENDBRANCH   5   9
ENDBRANCH   2   3
ENDBRANCH   1   2
BRANCH   1  16
HETATM   16  O   UNL     1     -41.742  57.488 -58.115  1.00  0.00    -0.392 OA
HETATM   17  H   UNL     1     -41.207  56.862 -58.652  1.00  0.00     0.210 HD
ENDBRANCH   1  16
BRANCH   1  18
HETATM   18  C   UNL     1     -42.985  55.553 -57.199  1.00  0.00     0.157 C 
BRANCH  18  19
HETATM   19  N   UNL     1     -41.916  55.496 -56.205  1.00  0.00    -0.340 N 
HETATM   20  C   UNL     1     -42.033  54.721 -55.075  1.00  0.00     0.320 C 
HETATM   21  N   UNL     1     -40.868  54.738 -54.346  1.00  0.00    -0.306 N 
HETATM   22  O   UNL     1     -43.046  54.081 -54.831  1.00  0.00    -0.247 OA
HETATM   23  H   UNL     1     -40.051  54.869 -54.924  1.00  0.00     0.171 HD
HETATM   24  H   UNL     1     -41.278  56.277 -56.160  1.00  0.00     0.164 HD
BRANCH  21  25
HETATM   25  C   UNL     1     -40.667  54.057 -53.120  1.00  0.00     0.077 A 
HETATM   26  C   UNL     1     -40.243  52.733 -52.942  1.00  0.00     0.152 A 
HETATM   27 CL   UNL     1     -40.147  51.563 -54.205  1.00  0.00    -0.060 Cl
HETATM   28  N   UNL     1     -40.050  52.155 -51.728  1.00  0.00    -0.247 NA
HETATM   29  C   UNL     1     -40.296  52.909 -50.640  1.00  0.00     0.118 A 
HETATM   30  C   UNL     1     -40.764  54.209 -50.702  1.00  0.00     0.022 A 
HETATM   31  C   UNL     1     -40.959  54.782 -51.957  1.00  0.00     0.034 A 
ENDBRANCH  21  25
ENDBRANCH  18  19
ENDBRANCH   1  18
TORSDOF 7
ENDMDL
MODEL 7
REMARK VINA RESULT:      -7.2      2.384      2.787
REMARK  7 active torsions:
REMARK  status: ('A' for Active; 'I' for Inactive)
REMARK    1  A    between atoms: C_6  and  N_7 
REMARK       I    between atoms: N_7  and  C_8 
REMARK       I    between atoms: C_8  and  N_9 
REMARK    2  A    between atoms: N_9  and  C_10 
REMARK    3  A    between atoms: C_10  and  C_11 
REMARK    4  A    between atoms: C_11  and  O_12 
REMARK    5  A    between atoms: C_11  and  C_13 
REMARK    6  A    between atoms: C_13  and  N_14 
REMARK       I    between atoms: N_14  and  C_15 
REMARK       I    between atoms: C_15  and  N_16 
REMARK    7  A    between atoms: N_16  and  C_17 
ROOT
HETATM    1  C   UNL     1     -44.493  58.242 -51.583  1.00  0.00     0.153 C 
ENDROOT
BRANCH   1   2
HETATM    2  C   UNL     1     -44.833  58.469 -53.067  1.00  0.00     0.157 C 
BRANCH   2   3
HETATM    3  N   UNL     1     -43.986  57.686 -53.953  1.00  0.00    -0.340 N 
HETATM    4  C   UNL     1     -43.995  57.881 -55.315  1.00  0.00     0.320 C 
HETATM    5  N   UNL     1     -42.954  57.209 -55.917  1.00  0.00    -0.306 N 
HETATM    6  O   UNL     1     -44.815  58.601 -55.868  1.00  0.00    -0.247 OA
HETATM    7  H   UNL     1     -42.162  57.063 -55.311  1.00  0.00     0.171 HD
HETATM    8  H   UNL     1     -43.118  57.393 -53.530  1.00  0.00     0.164 HD
BRANCH   5   9
HETATM    9  C   UNL     1     -42.687  57.182 -57.307  1.00  0.00     0.077 A 
HETATM   10  C   UNL     1     -42.115  58.195 -58.085  1.00  0.00     0.152 A 
HETATM   11  N   UNL     1     -41.879  58.083 -59.420  1.00  0.00    -0.247 NA
HETATM   12 CL   UNL     1     -41.867  59.815 -57.552  1.00  0.00    -0.060 Cl
HETATM   13  C   UNL     1     -42.231  56.926 -60.014  1.00  0.00     0.118 A 
HETATM   14  C   UNL     1     -42.842  55.880 -59.348  1.00  0.00     0.022 A 
HETATM   15  C   UNL     1     -43.080  56.017 -57.983  1.00  0.00     0.034 A 
ENDBRANCH   5   9
ENDBRANCH   2   3
ENDBRANCH   1   2
BRANCH   1  16
HETATM   16  O   UNL     1     -45.388  57.241 -51.069  1.00  0.00    -0.392 OA
HETATM   17  H   UNL     1     -46.306  57.580 -51.159  1.00  0.00     0.210 HD
ENDBRANCH   1  16
BRANCH   1  18
HETATM   18  C   UNL     1     -43.013  57.873 -51.368  1.00  0.00     0.157 C 
BRANCH  18  19
HETATM   19  N   UNL     1     -42.809  56.434 -51.221  1.00  0.00    -0.340 N 
HETATM   20  C   UNL     1     -42.000  55.736 -52.087  1.00  0.00     0.320 C 
HETATM   21  N   UNL     1     -41.872  54.426 -51.691  1.00  0.00    -0.306 N 
HETATM   22  O   UNL     1     -41.451  56.276 -53.037  1.00  0.00    -0.247 OA
HETATM   23  H   UNL     1     -41.949  54.314 -50.691  1.00  0.00     0.171 HD
HETATM   24  H   UNL     1     -43.522  55.908 -50.737  1.00  0.00     0.164 HD
BRANCH  21  25
HETATM   25  C   UNL     1     -41.122  53.440 -52.377  1.00  0.00     0.077 A 
HETATM   26  C   UNL     1     -41.207  53.097 -53.734  1.00  0.00     0.152 A 
HETATM   27 CL   UNL     1     -42.458  53.626 -54.795  1.00  0.00    -0.060 Cl
HETATM   28  N   UNL     1     -40.433  52.151 -54.326  1.00  0.00    -0.247 NA
HETATM   29  C   UNL     1     -39.545  51.504 -53.548  1.00  0.00     0.118 A 
HETATM   30  C   UNL     1     -39.413  51.729 -52.190  1.00  0.00     0.022 A 
HETATM   31  C   UNL     1     -40.219  52.702 -51.601  1.00  0.00     0.034 A 
ENDBRANCH  21  25
ENDBRANCH  18  19
ENDBRANCH   1  18
TORSDOF 7
ENDMDL
MODEL 8
REMARK VINA RESULT:      -7.0      1.160      7.495
REMARK  7 active torsions:
REMARK  status: ('A' for Active; 'I' for Inactive)
REMARK    1  A    between atoms: C_6  and  N_7 
REMARK       I    between atoms: N_7  and  C_8 
REMARK       I    between atoms: C_8  and  N_9 
REMARK    2  A    between atoms: N_9  and  C_10 
REMARK    3  A    between atoms: C_10  and  C_11 
REMARK    4  A    between atoms: C_11  and  O_12 
REMARK    5  A    between atoms: C_11  and  C_13 
REMARK    6  A    between atoms: C_13  and  N_14 
REMARK       I    between atoms: N_14  and  C_15 
REMARK       I    between atoms: C_15  and  N_16 
REMARK    7  A    between atoms: N_16  and  C_17 
ROOT
HETATM    1  C   UNL     1     -45.023  59.027 -53.814  1.00  0.00     0.153 C 
ENDROOT
BRANCH   1   2
HETATM    2  C   UNL     1     -44.673  58.072 -52.659  1.00  0.00     0.157 C 
BRANCH   2   3
HETATM    3  N   UNL     1     -44.383  56.724 -53.124  1.00  0.00    -0.340 N 
HETATM    4  C   UNL     1     -43.143  56.154 -52.949  1.00  0.00     0.320 C 
HETATM    5  N   UNL     1     -43.172  54.809 -53.246  1.00  0.00    -0.306 N 
HETATM    6  O   UNL     1     -42.182  56.790 -52.540  1.00  0.00    -0.247 OA
HETATM    7  H   UNL     1     -44.079  54.387 -53.121  1.00  0.00     0.171 HD
HETATM    8  H   UNL     1     -45.184  56.111 -53.114  1.00  0.00     0.164 HD
BRANCH   5   9
HETATM    9  C   UNL     1     -42.064  53.931 -53.191  1.00  0.00     0.077 A 
HETATM   10  C   UNL     1     -41.409  53.455 -52.048  1.00  0.00     0.152 A 
HETATM   11  N   UNL     1     -40.354  52.597 -52.082  1.00  0.00    -0.247 NA
HETATM   12 CL   UNL     1     -41.650  54.070 -50.457  1.00  0.00    -0.060 Cl
HETATM   13  C   UNL     1     -39.920  52.200 -53.294  1.00  0.00     0.118 A 
HETATM   14  C   UNL     1     -40.465  52.644 -54.484  1.00  0.00     0.022 A 
HETATM   15  C   UNL     1     -41.542  53.525 -54.428  1.00  0.00     0.034 A 
ENDBRANCH   5   9
ENDBRANCH   2   3
ENDBRANCH   1   2
BRANCH   1  16
HETATM   16  O   UNL     1     -45.577  60.226 -53.248  1.00  0.00    -0.392 OA
HETATM   17  H   UNL     1     -46.005  60.734 -53.972  1.00  0.00     0.210 HD
ENDBRANCH   1  16
BRANCH   1  18
HETATM   18  C   UNL     1     -43.816  59.312 -54.728  1.00  0.00     0.157 C 
BRANCH  18  19
HETATM   19  N   UNL     1     -44.168  59.289 -56.145  1.00  0.00    -0.340 N 
HETATM   20  C   UNL     1     -44.190  58.113 -56.857  1.00  0.00     0.320 C 
HETATM   21  N   UNL     1     -44.653  58.320 -58.134  1.00  0.00    -0.306 N 
HETATM   22  O   UNL     1     -43.879  57.044 -56.350  1.00  0.00    -0.247 OA
HETATM   23  H   UNL     1     -45.305  59.089 -58.191  1.00  0.00     0.171 HD
HETATM   24  H   UNL     1     -44.036  60.141 -56.673  1.00  0.00     0.164 HD
BRANCH  21  25
HETATM   25  C   UNL     1     -44.780  57.315 -59.126  1.00  0.00     0.077 A 
HETATM   26  C   UNL     1     -43.751  56.709 -59.859  1.00  0.00     0.152 A 
HETATM   27 CL   UNL     1     -42.122  57.273 -59.900  1.00  0.00    -0.060 Cl
HETATM   28  N   UNL     1     -43.952  55.732 -60.781  1.00  0.00    -0.247 NA
HETATM   29  C   UNL     1     -45.221  55.341 -61.000  1.00  0.00     0.118 A 
HETATM   30  C   UNL     1     -46.314  55.906 -60.367  1.00  0.00     0.022 A 
HETATM   31  C   UNL     1     -46.087  56.910 -59.428  1.00  0.00     0.034 A 
ENDBRANCH  21  25
ENDBRANCH  18  19
ENDBRANCH   1  18
TORSDOF 7
ENDMDL
MODEL 9
REMARK VINA RESULT:      -7.0      2.922      6.538
REMARK  7 active torsions:
REMARK  status: ('A' for Active; 'I' for Inactive)
REMARK    1  A    between atoms: C_6  and  N_7 
REMARK       I    between atoms: N_7  and  C_8 
REMARK       I    between atoms: C_8  and  N_9 
REMARK    2  A    between atoms: N_9  and  C_10 
REMARK    3  A    between atoms: C_10  and  C_11 
REMARK    4  A    between atoms: C_11  and  O_12 
REMARK    5  A    between atoms: C_11  and  C_13 
REMARK    6  A    between atoms: C_13  and  N_14 
REMARK       I    between atoms: N_14  and  C_15 
REMARK       I    between atoms: C_15  and  N_16 
REMARK    7  A    between atoms: N_16  and  C_17 
ROOT
HETATM    1  C   UNL     1     -44.228  57.621 -58.046  1.00  0.00     0.153 C 
ENDROOT
BRANCH   1   2
HETATM    2  C   UNL     1     -43.121  56.551 -58.036  1.00  0.00     0.157 C 
BRANCH   2   3
HETATM    3  N   UNL     1     -43.343  55.535 -57.020  1.00  0.00    -0.340 N 
HETATM    4  C   UNL     1     -42.560  55.463 -55.890  1.00  0.00     0.320 C 
HETATM    5  N   UNL     1     -43.099  54.591 -54.971  1.00  0.00    -0.306 N 
HETATM    6  O   UNL     1     -41.550  56.138 -55.751  1.00  0.00    -0.247 OA
HETATM    7  H   UNL     1     -44.099  54.490 -55.046  1.00  0.00     0.171 HD
HETATM    8  H   UNL     1     -44.307  55.247 -56.938  1.00  0.00     0.164 HD
BRANCH   5   9
HETATM    9  C   UNL     1     -42.534  54.271 -53.713  1.00  0.00     0.077 A 
HETATM   10  C   UNL     1     -41.300  53.660 -53.463  1.00  0.00     0.152 A 
HETATM   11  N   UNL     1     -40.823  53.398 -52.216  1.00  0.00    -0.247 NA
HETATM   12 CL   UNL     1     -40.320  52.910 -54.666  1.00  0.00    -0.060 Cl
HETATM   13  C   UNL     1     -41.601  53.744 -51.173  1.00  0.00     0.118 A 
HETATM   14  C   UNL     1     -42.854  54.311 -51.308  1.00  0.00     0.022 A 
HETATM   15  C   UNL     1     -43.326  54.566 -52.593  1.00  0.00     0.034 A 
ENDBRANCH   5   9
ENDBRANCH   2   3
ENDBRANCH   1   2
BRANCH   1  16
HETATM   16  O   UNL     1     -45.213  57.250 -57.067  1.00  0.00    -0.392 OA
HETATM   17  H   UNL     1     -45.080  57.814 -56.274  1.00  0.00     0.210 HD
ENDBRANCH   1  16
BRANCH   1  18
HETATM   18  C   UNL     1     -43.675  59.040 -57.814  1.00  0.00     0.157 C 
BRANCH  18  19
HETATM   19  N   UNL     1     -42.597  59.068 -56.828  1.00  0.00    -0.340 N 
HETATM   20  C   UNL     1     -42.864  59.114 -55.479  1.00  0.00     0.320 C 
HETATM   21  N   UNL     1     -41.706  59.022 -54.746  1.00  0.00    -0.306 N 
HETATM   22  O   UNL     1     -44.007  59.174 -55.048  1.00  0.00    -0.247 OA
HETATM   23  H   UNL     1     -40.990  58.488 -55.217  1.00  0.00     0.171 HD
HETATM   24  H   UNL     1     -41.698  59.417 -57.129  1.00  0.00     0.164 HD
BRANCH  21  25
HETATM   25  C   UNL     1     -41.634  59.057 -53.332  1.00  0.00     0.077 A 
HETATM   26  C   UNL     1     -42.120  60.058 -52.480  1.00  0.00     0.152 A 
HETATM   27 CL   UNL     1     -42.664  61.606 -53.009  1.00  0.00    -0.060 Cl
HETATM   28  N   UNL     1     -42.033  60.009 -51.125  1.00  0.00    -0.247 NA
HETATM   29  C   UNL     1     -41.431  58.933 -50.584  1.00  0.00     0.118 A 
HETATM   30  C   UNL     1     -40.875  57.912 -51.333  1.00  0.00     0.022 A 
HETATM   31  C   UNL     1     -40.971  57.984 -52.722  1.00  0.00     0.034 A 
ENDBRANCH  21  25
ENDBRANCH  18  19
ENDBRANCH   1  18
TORSDOF 7
ENDMDL
MODEL 10
REMARK VINA RESULT:      -7.0      1.872      7.464
REMARK  7 active torsions:
REMARK  status: ('A' for Active; 'I' for Inactive)
REMARK    1  A    between atoms: C_6  and  N_7 
REMARK       I    between atoms: N_7  and  C_8 
REMARK       I    between atoms: C_8  and  N_9 
REMARK    2  A    between atoms: N_9  and  C_10 
REMARK    3  A    between atoms: C_10  and  C_11 
REMARK    4  A    between atoms: C_11  and  O_12 
REMARK    5  A    between atoms: C_11  and  C_13 
REMARK    6  A    between atoms: C_13  and  N_14 
REMARK       I    between atoms: N_14  and  C_15 
REMARK       I    between atoms: C_15  and  N_16 
REMARK    7  A    between atoms: N_16  and  C_17 
ROOT
HETATM    1  C   UNL     1     -44.081  58.397 -52.018  1.00  0.00     0.153 C 
ENDROOT
BRANCH   1   2
HETATM    2  C   UNL     1     -44.072  56.858 -52.031  1.00  0.00     0.157 C 
BRANCH   2   3
HETATM    3  N   UNL     1     -42.772  56.316 -52.394  1.00  0.00    -0.340 N 
HETATM    4  C   UNL     1     -42.483  54.979 -52.248  1.00  0.00     0.320 C 
HETATM    5  N   UNL     1     -41.298  54.659 -52.872  1.00  0.00    -0.306 N 
HETATM    6  O   UNL     1     -43.234  54.207 -51.668  1.00  0.00    -0.247 OA
HETATM    7  H   UNL     1     -41.068  55.269 -53.641  1.00  0.00     0.171 HD
HETATM    8  H   UNL     1     -42.324  56.810 -53.152  1.00  0.00     0.164 HD
BRANCH   5   9
HETATM    9  C   UNL     1     -40.702  53.375 -52.895  1.00  0.00     0.077 A 
HETATM   10  C   UNL     1     -40.107  52.691 -51.828  1.00  0.00     0.152 A 
HETATM   11  N   UNL     1     -39.566  51.448 -51.932  1.00  0.00    -0.247 NA
HETATM   12 CL   UNL     1     -39.729  53.400 -50.303  1.00  0.00    -0.060 Cl
HETATM   13  C   UNL     1     -39.604  50.858 -53.143  1.00  0.00     0.118 A 
HETATM   14  C   UNL     1     -40.126  51.462 -54.271  1.00  0.00     0.022 A 
HETATM   15  C   UNL     1     -40.670  52.737 -54.144  1.00  0.00     0.034 A 
ENDBRANCH   5   9
ENDBRANCH   2   3
ENDBRANCH   1   2
BRANCH   1  16
HETATM   16  O   UNL     1     -43.984  58.831 -50.651  1.00  0.00    -0.392 OA
HETATM   17  H   UNL     1     -43.031  58.879 -50.415  1.00  0.00     0.210 HD
ENDBRANCH   1  16
BRANCH   1  18
HETATM   18  C   UNL     1     -42.975  59.000 -52.905  1.00  0.00     0.157 C 
BRANCH  18  19
HETATM   19  N   UNL     1     -43.373  59.101 -54.307  1.00  0.00    -0.340 N 
HETATM   20  C   UNL     1     -42.772  58.334 -55.277  1.00  0.00     0.320 C 
HETATM   21  N   UNL     1     -43.381  58.517 -56.495  1.00  0.00    -0.306 N 
HETATM   22  O   UNL     1     -41.855  57.567 -55.019  1.00  0.00    -0.247 OA
HETATM   23  H   UNL     1     -44.359  58.749 -56.409  1.00  0.00     0.171 HD
HETATM   24  H   UNL     1     -43.807  59.962 -54.608  1.00  0.00     0.164 HD
BRANCH  21  25
HETATM   25  C   UNL     1     -42.989  57.887 -57.702  1.00  0.00     0.077 A 
HETATM   26  C   UNL     1     -42.197  58.426 -58.725  1.00  0.00     0.152 A 
HETATM   27 CL   UNL     1     -41.763  60.090 -58.846  1.00  0.00    -0.060 Cl
HETATM   28  N   UNL     1     -41.844  57.747 -59.848  1.00  0.00    -0.247 NA
HETATM   29  C   UNL     1     -42.301  56.487 -59.977  1.00  0.00     0.118 A 
HETATM   30  C   UNL     1     -43.128  55.877 -59.052  1.00  0.00     0.022 A 
HETATM   31  C   UNL     1     -43.482  56.592 -57.909  1.00  0.00     0.034 A 
ENDBRANCH  21  25
ENDBRANCH  18  19
ENDBRANCH   1  18
TORSDOF 7
ENDMDL
