MODEL 1
REMARK VINA RESULT:      -8.1      0.000      0.000
REMARK  4 active torsions:
REMARK  status: ('A' for Active; 'I' for Inactive)
REMARK    1  A    between atoms: O_2  and  C_3 
REMARK    2  A    between atoms: C_7  and  N_8 
REMARK       I    between atoms: N_8  and  C_9 
REMARK    3  A    between atoms: C_9  and  C_10 
REMARK    4  A    between atoms: C_12  and  C_13 
ROOT
HETATM    1  N   UNL     1     -42.292  57.051 -52.558  1.00  0.00    -0.323 N 
HETATM    2  C   UNL     1     -41.691  55.939 -51.992  1.00  0.00     0.256 C 
HETATM    3  O   UNL     1     -41.579  55.705 -50.796  1.00  0.00    -0.267 OA
HETATM    4  H   UNL     1     -42.200  57.164 -53.558  1.00  0.00     0.169 HD
ENDROOT
BRANCH   2   5
HETATM    5  C   UNL     1     -41.106  54.965 -52.960  1.00  0.00     0.033 A 
HETATM    6  C   UNL     1     -40.799  53.676 -52.498  1.00  0.00     0.029 A 
HETATM    7  C   UNL     1     -40.264  52.712 -53.364  1.00  0.00    -0.023 A 
HETATM    8  C   UNL     1     -40.037  53.061 -54.702  1.00  0.00     0.012 A 
HETATM    9  C   UNL     1     -40.356  54.338 -55.172  1.00  0.00     0.002 A 
HETATM   10  C   UNL     1     -40.899  55.288 -54.307  1.00  0.00     0.017 A 
BRANCH   7  11
HETATM   11  C   UNL     1     -39.949  51.371 -52.898  1.00  0.00    -0.002 A 
HETATM   12  C   UNL     1     -39.821  50.266 -53.717  1.00  0.00     0.153 A 
HETATM   13  O   UNL     1     -39.505  49.160 -52.994  1.00  0.00    -0.334 OA
HETATM   14  C   UNL     1     -39.422  49.548 -51.697  1.00  0.00     0.142 A 
HETATM   15  C   UNL     1     -39.680  50.894 -51.583  1.00  0.00     0.038 A 
ENDBRANCH   7  11
ENDBRANCH   2   5
BRANCH   1  16
HETATM   16  C   UNL     1     -42.973  58.087 -51.883  1.00  0.00     0.041 A 
HETATM   17  C   UNL     1     -44.344  58.093 -51.633  1.00  0.00     0.074 A 
HETATM   18  C   UNL     1     -44.931  59.172 -50.969  1.00  0.00     0.155 A 
HETATM   19  C   UNL     1     -44.186  60.274 -50.541  1.00  0.00     0.145 A 
HETATM   20  F   UNL     1     -46.255  59.137 -50.748  1.00  0.00    -0.203 F 
HETATM   21  C   UNL     1     -42.816  60.255 -50.794  1.00  0.00     0.155 A 
HETATM   22  C   UNL     1     -42.214  59.180 -51.454  1.00  0.00     0.074 A 
HETATM   23  F   UNL     1     -42.019  61.266 -50.419  1.00  0.00    -0.203 F 
BRANCH  19  24
HETATM   24  O   UNL     1     -44.897  61.259 -49.913  1.00  0.00    -0.350 OA
HETATM   25  C   UNL     1     -44.745  61.380 -48.506  1.00  0.00     0.210 C 
ENDBRANCH  19  24
ENDBRANCH   1  16
TORSDOF 4
ENDMDL
MODEL 2
REMARK VINA RESULT:      -8.1      4.940      6.704
REMARK  4 active torsions:
REMARK  status: ('A' for Active; 'I' for Inactive)
REMARK    1  A    between atoms: O_2  and  C_3 
REMARK    2  A    between atoms: C_7  and  N_8 
REMARK       I    between atoms: N_8  and  C_9 
REMARK    3  A    between atoms: C_9  and  C_10 
REMARK    4  A    between atoms: C_12  and  C_13 
ROOT
HETATM    1  N   UNL     1     -42.155  55.152 -56.059  1.00  0.00    -0.323 N 
HETATM    2  C   UNL     1     -42.711  54.617 -54.909  1.00  0.00     0.256 C 
HETATM    3  O   UNL     1     -43.882  54.702 -54.562  1.00  0.00    -0.267 OA
HETATM    4  H   UNL     1     -41.149  55.104 -56.148  1.00  0.00     0.169 HD
ENDROOT
BRANCH   2   5
HETATM    5  C   UNL     1     -41.759  53.899 -54.011  1.00  0.00     0.033 A 
HETATM    6  C   UNL     1     -41.710  54.278 -52.661  1.00  0.00     0.029 A 
HETATM    7  C   UNL     1     -40.850  53.629 -51.764  1.00  0.00    -0.023 A 
HETATM    8  C   UNL     1     -40.035  52.594 -52.243  1.00  0.00     0.012 A 
HETATM    9  C   UNL     1     -40.092  52.201 -53.583  1.00  0.00     0.002 A 
HETATM   10  C   UNL     1     -40.959  52.844 -54.466  1.00  0.00     0.017 A 
BRANCH   7  11
HETATM   11  C   UNL     1     -40.795  54.009 -50.361  1.00  0.00    -0.002 A 
HETATM   12  C   UNL     1     -41.236  55.218 -49.858  1.00  0.00     0.153 A 
HETATM   13  O   UNL     1     -41.071  55.272 -48.511  1.00  0.00    -0.334 OA
HETATM   14  C   UNL     1     -40.524  54.090 -48.134  1.00  0.00     0.142 A 
HETATM   15  C   UNL     1     -40.339  53.277 -49.227  1.00  0.00     0.038 A 
ENDBRANCH   7  11
ENDBRANCH   2   5
BRANCH   1  16
HETATM   16  C   UNL     1     -42.833  55.819 -57.102  1.00  0.00     0.041 A 
HETATM   17  C   UNL     1     -43.184  57.167 -57.074  1.00  0.00     0.074 A 
HETATM   18  C   UNL     1     -43.869  57.736 -58.150  1.00  0.00     0.155 A 
HETATM   19  C   UNL     1     -44.233  56.990 -59.275  1.00  0.00     0.145 A 
HETATM   20  F   UNL     1     -44.187  59.039 -58.083  1.00  0.00    -0.203 F 
HETATM   21  C   UNL     1     -43.875  55.645 -59.292  1.00  0.00     0.155 A 
HETATM   22  C   UNL     1     -43.184  55.063 -58.224  1.00  0.00     0.074 A 
HETATM   23  F   UNL     1     -44.178  54.850 -60.329  1.00  0.00    -0.203 F 
BRANCH  19  24
HETATM   24  O   UNL     1     -44.909  57.678 -60.244  1.00  0.00    -0.350 OA
HETATM   25  C   UNL     1     -46.320  57.525 -60.294  1.00  0.00     0.210 C 
ENDBRANCH  19  24
ENDBRANCH   1  16
TORSDOF 4
ENDMDL
MODEL 3
REMARK VINA RESULT:      -8.0      5.176      8.469
REMARK  4 active torsions:
REMARK  status: ('A' for Active; 'I' for Inactive)
REMARK    1  A    between atoms: O_2  and  C_3 
REMARK    2  A    between atoms: C_7  and  N_8 
REMARK       I    between atoms: N_8  and  C_9 
REMARK    3  A    between atoms: C_9  and  C_10 
REMARK    4  A    between atoms: C_12  and  C_13 
ROOT
HETATM    1  N   UNL     1     -41.065  54.135 -54.728  1.00  0.00    -0.323 N 
HETATM    2  C   UNL     1     -42.309  54.743 -54.731  1.00  0.00     0.256 C 
HETATM    3  O   UNL     1     -43.228  54.520 -53.953  1.00  0.00    -0.267 OA
HETATM    4  H   UNL     1     -40.454  54.336 -55.508  1.00  0.00     0.169 HD
ENDROOT
BRANCH   2   5
HETATM    5  C   UNL     1     -42.534  55.740 -55.820  1.00  0.00     0.033 A 
HETATM    6  C   UNL     1     -43.121  55.295 -57.013  1.00  0.00     0.029 A 
HETATM    7  C   UNL     1     -43.374  56.187 -58.065  1.00  0.00    -0.023 A 
HETATM    8  C   UNL     1     -43.024  57.535 -57.903  1.00  0.00     0.012 A 
HETATM    9  C   UNL     1     -42.454  57.987 -56.709  1.00  0.00     0.002 A 
HETATM   10  C   UNL     1     -42.217  57.095 -55.664  1.00  0.00     0.017 A 
BRANCH   7  11
HETATM   11  C   UNL     1     -43.988  55.739 -59.304  1.00  0.00    -0.002 A 
HETATM   12  C   UNL     1     -44.147  56.524 -60.430  1.00  0.00     0.153 A 
HETATM   13  O   UNL     1     -44.737  55.821 -61.432  1.00  0.00    -0.334 OA
HETATM   14  C   UNL     1     -44.959  54.570 -60.958  1.00  0.00     0.142 A 
HETATM   15  C   UNL     1     -44.514  54.464 -59.661  1.00  0.00     0.038 A 
ENDBRANCH   7  11
ENDBRANCH   2   5
BRANCH   1  16
HETATM   16  C   UNL     1     -40.571  53.211 -53.782  1.00  0.00     0.041 A 
HETATM   17  C   UNL     1     -40.446  53.474 -52.420  1.00  0.00     0.074 A 
HETATM   18  C   UNL     1     -39.931  52.499 -51.562  1.00  0.00     0.155 A 
HETATM   19  C   UNL     1     -39.521  51.247 -52.024  1.00  0.00     0.145 A 
HETATM   20  F   UNL     1     -39.828  52.794 -50.255  1.00  0.00    -0.203 F 
HETATM   21  C   UNL     1     -39.654  50.994 -53.388  1.00  0.00     0.155 A 
HETATM   22  C   UNL     1     -40.172  51.959 -54.258  1.00  0.00     0.074 A 
HETATM   23  F   UNL     1     -39.291  49.821 -53.923  1.00  0.00    -0.203 F 
BRANCH  19  24
HETATM   24  O   UNL     1     -39.030  50.398 -51.071  1.00  0.00    -0.350 OA
HETATM   25  C   UNL     1     -39.918  49.423 -50.542  1.00  0.00     0.210 C 
ENDBRANCH  19  24
ENDBRANCH   1  16
TORSDOF 4
ENDMDL
MODEL 4
REMARK VINA RESULT:      -7.9      5.140      8.423
REMARK  4 active torsions:
REMARK  status: ('A' for Active; 'I' for Inactive)
REMARK    1  A    between atoms: O_2  and  C_3 
REMARK    2  A    between atoms: C_7  and  N_8 
REMARK       I    between atoms: N_8  and  C_9 
REMARK    3  A    between atoms: C_9  and  C_10 
REMARK    4  A    between atoms: C_12  and  C_13 
ROOT
HETATM    1  N   UNL     1     -41.058  54.004 -54.794  1.00  0.00    -0.323 N 
HETATM    2  C   UNL     1     -42.270  54.668 -54.692  1.00  0.00     0.256 C 
HETATM    3  O   UNL     1     -43.137  54.471 -53.850  1.00  0.00    -0.267 OA
HETATM    4  H   UNL     1     -40.499  54.191 -55.614  1.00  0.00     0.169 HD
ENDROOT
BRANCH   2   5
HETATM    5  C   UNL     1     -42.528  55.695 -55.744  1.00  0.00     0.033 A 
HETATM    6  C   UNL     1     -43.073  55.270 -56.965  1.00  0.00     0.029 A 
HETATM    7  C   UNL     1     -43.354  56.191 -57.984  1.00  0.00    -0.023 A 
HETATM    8  C   UNL     1     -43.077  57.546 -57.762  1.00  0.00     0.012 A 
HETATM    9  C   UNL     1     -42.550  57.978 -56.542  1.00  0.00     0.002 A 
HETATM   10  C   UNL     1     -42.283  57.057 -55.528  1.00  0.00     0.017 A 
BRANCH   7  11
HETATM   11  C   UNL     1     -43.926  55.762 -59.251  1.00  0.00    -0.002 A 
HETATM   12  C   UNL     1     -43.792  56.448 -60.443  1.00  0.00     0.153 A 
HETATM   13  O   UNL     1     -44.420  55.791 -61.453  1.00  0.00    -0.334 OA
HETATM   14  C   UNL     1     -44.961  54.669 -60.917  1.00  0.00     0.142 A 
HETATM   15  C   UNL     1     -44.683  54.599 -59.572  1.00  0.00     0.038 A 
ENDBRANCH   7  11
ENDBRANCH   2   5
BRANCH   1  16
HETATM   16  C   UNL     1     -40.539  53.039 -53.903  1.00  0.00     0.041 A 
HETATM   17  C   UNL     1     -40.227  51.729 -54.260  1.00  0.00     0.074 A 
HETATM   18  C   UNL     1     -39.732  50.841 -53.303  1.00  0.00     0.155 A 
HETATM   19  C   UNL     1     -39.540  51.217 -51.971  1.00  0.00     0.145 A 
HETATM   20  F   UNL     1     -39.443  49.587 -53.689  1.00  0.00    -0.203 F 
HETATM   21  C   UNL     1     -39.853  52.530 -51.627  1.00  0.00     0.155 A 
HETATM   22  C   UNL     1     -40.345  53.432 -52.576  1.00  0.00     0.074 A 
HETATM   23  F   UNL     1     -39.698  52.984 -50.375  1.00  0.00    -0.203 F 
BRANCH  19  24
HETATM   24  O   UNL     1     -39.057  50.239 -51.146  1.00  0.00    -0.350 OA
HETATM   25  C   UNL     1     -40.005  49.470 -50.418  1.00  0.00     0.210 C 
ENDBRANCH  19  24
ENDBRANCH   1  16
TORSDOF 4
ENDMDL
MODEL 5
REMARK VINA RESULT:      -7.8      4.811      8.315
REMARK  4 active torsions:
REMARK  status: ('A' for Active; 'I' for Inactive)
REMARK    1  A    between atoms: O_2  and  C_3 
REMARK    2  A    between atoms: C_7  and  N_8 
REMARK       I    between atoms: N_8  and  C_9 
REMARK    3  A    between atoms: C_9  and  C_10 
REMARK    4  A    between atoms: C_12  and  C_13 
ROOT
HETATM    1  N   UNL     1     -41.887  54.487 -54.290  1.00  0.00    -0.323 N 
HETATM    2  C   UNL     1     -43.092  55.073 -53.939  1.00  0.00     0.256 C 
HETATM    3  O   UNL     1     -43.774  54.797 -52.960  1.00  0.00    -0.267 OA
HETATM    4  H   UNL     1     -41.502  54.734 -55.192  1.00  0.00     0.169 HD
ENDROOT
BRANCH   2   5
HETATM    5  C   UNL     1     -43.598  56.113 -54.881  1.00  0.00     0.033 A 
HETATM    6  C   UNL     1     -43.023  56.186 -56.159  1.00  0.00     0.029 A 
HETATM    7  C   UNL     1     -43.469  57.130 -57.094  1.00  0.00    -0.023 A 
HETATM    8  C   UNL     1     -44.500  58.005 -56.727  1.00  0.00     0.012 A 
HETATM    9  C   UNL     1     -45.089  57.927 -55.462  1.00  0.00     0.002 A 
HETATM   10  C   UNL     1     -44.647  56.977 -54.541  1.00  0.00     0.017 A 
BRANCH   7  11
HETATM   11  C   UNL     1     -42.885  57.209 -58.423  1.00  0.00    -0.002 A 
HETATM   12  C   UNL     1     -42.822  56.157 -59.317  1.00  0.00     0.153 A 
HETATM   13  O   UNL     1     -42.237  56.543 -60.480  1.00  0.00    -0.334 OA
HETATM   14  C   UNL     1     -41.921  57.855 -60.346  1.00  0.00     0.142 A 
HETATM   15  C   UNL     1     -42.301  58.315 -59.107  1.00  0.00     0.038 A 
ENDBRANCH   7  11
ENDBRANCH   2   5
BRANCH   1  16
HETATM   16  C   UNL     1     -41.158  53.530 -53.551  1.00  0.00     0.041 A 
HETATM   17  C   UNL     1     -40.895  53.626 -52.187  1.00  0.00     0.074 A 
HETATM   18  C   UNL     1     -40.150  52.634 -51.545  1.00  0.00     0.155 A 
HETATM   19  C   UNL     1     -39.641  51.529 -52.231  1.00  0.00     0.145 A 
HETATM   20  F   UNL     1     -39.920  52.765 -50.228  1.00  0.00    -0.203 F 
HETATM   21  C   UNL     1     -39.912  51.443 -53.594  1.00  0.00     0.155 A 
HETATM   22  C   UNL     1     -40.661  52.426 -54.250  1.00  0.00     0.074 A 
HETATM   23  F   UNL     1     -39.469  50.418 -54.335  1.00  0.00    -0.203 F 
BRANCH  19  24
HETATM   24  O   UNL     1     -38.923  50.644 -51.474  1.00  0.00    -0.350 OA
HETATM   25  C   UNL     1     -39.630  49.560 -50.887  1.00  0.00     0.210 C 
ENDBRANCH  19  24
ENDBRANCH   1  16
TORSDOF 4
ENDMDL
MODEL 6
REMARK VINA RESULT:      -7.8      3.878      4.962
REMARK  4 active torsions:
REMARK  status: ('A' for Active; 'I' for Inactive)
REMARK    1  A    between atoms: O_2  and  C_3 
REMARK    2  A    between atoms: C_7  and  N_8 
REMARK       I    between atoms: N_8  and  C_9 
REMARK    3  A    between atoms: C_9  and  C_10 
REMARK    4  A    between atoms: C_12  and  C_13 
ROOT
HETATM    1  N   UNL     1     -42.487  55.492 -54.366  1.00  0.00    -0.323 N 
HETATM    2  C   UNL     1     -41.558  55.885 -53.417  1.00  0.00     0.256 C 
HETATM    3  O   UNL     1     -41.104  57.013 -53.269  1.00  0.00    -0.267 OA
HETATM    4  H   UNL     1     -42.673  54.502 -54.444  1.00  0.00     0.169 HD
ENDROOT
BRANCH   2   5
HETATM    5  C   UNL     1     -41.057  54.800 -52.522  1.00  0.00     0.033 A 
HETATM    6  C   UNL     1     -40.734  53.563 -53.099  1.00  0.00     0.029 A 
HETATM    7  C   UNL     1     -40.241  52.511 -52.314  1.00  0.00    -0.023 A 
HETATM    8  C   UNL     1     -40.082  52.718 -50.937  1.00  0.00     0.012 A 
HETATM    9  C   UNL     1     -40.386  53.953 -50.359  1.00  0.00     0.002 A 
HETATM   10  C   UNL     1     -40.865  54.998 -51.149  1.00  0.00     0.017 A 
BRANCH   7  11
HETATM   11  C   UNL     1     -39.896  51.227 -52.902  1.00  0.00    -0.002 A 
HETATM   12  C   UNL     1     -39.530  50.107 -52.181  1.00  0.00     0.153 A 
HETATM   13  O   UNL     1     -39.286  49.056 -53.007  1.00  0.00    -0.334 OA
HETATM   14  C   UNL     1     -39.498  49.494 -54.273  1.00  0.00     0.142 A 
HETATM   15  C   UNL     1     -39.880  50.815 -54.266  1.00  0.00     0.038 A 
ENDBRANCH   7  11
ENDBRANCH   2   5
BRANCH   1  16
HETATM   16  C   UNL     1     -43.163  56.320 -55.289  1.00  0.00     0.041 A 
HETATM   17  C   UNL     1     -44.132  57.257 -54.938  1.00  0.00     0.074 A 
HETATM   18  C   UNL     1     -44.758  58.021 -55.925  1.00  0.00     0.155 A 
HETATM   19  C   UNL     1     -44.452  57.875 -57.281  1.00  0.00     0.145 A 
HETATM   20  F   UNL     1     -45.686  58.914 -55.544  1.00  0.00    -0.203 F 
HETATM   21  C   UNL     1     -43.481  56.936 -57.619  1.00  0.00     0.155 A 
HETATM   22  C   UNL     1     -42.841  56.168 -56.641  1.00  0.00     0.074 A 
HETATM   23  F   UNL     1     -43.118  56.728 -58.892  1.00  0.00    -0.203 F 
BRANCH  19  24
HETATM   24  O   UNL     1     -45.152  58.683 -58.133  1.00  0.00    -0.350 OA
HETATM   25  C   UNL     1     -46.229  58.100 -58.854  1.00  0.00     0.210 C 
ENDBRANCH  19  24
ENDBRANCH   1  16
TORSDOF 4
ENDMDL
MODEL 7
REMARK VINA RESULT:      -7.6      4.232      5.429
REMARK  4 active torsions:
REMARK  status: ('A' for Active; 'I' for Inactive)
REMARK    1  A    between atoms: O_2  and  C_3 
REMARK    2  A    between atoms: C_7  and  N_8 
REMARK       I    between atoms: N_8  and  C_9 
REMARK    3  A    between atoms: C_9  and  C_10 
REMARK    4  A    between atoms: C_12  and  C_13 
ROOT
HETATM    1  N   UNL     1     -42.441  55.383 -55.107  1.00  0.00    -0.323 N 
HETATM    2  C   UNL     1     -41.633  55.891 -54.103  1.00  0.00     0.256 C 
HETATM    3  O   UNL     1     -41.260  57.052 -53.990  1.00  0.00    -0.267 OA
HETATM    4  H   UNL     1     -42.563  54.380 -55.134  1.00  0.00     0.169 HD
ENDROOT
BRANCH   2   5
HETATM    5  C   UNL     1     -41.160  54.897 -53.095  1.00  0.00     0.033 A 
HETATM    6  C   UNL     1     -40.811  53.614 -53.544  1.00  0.00     0.029 A 
HETATM    7  C   UNL     1     -40.342  52.643 -52.648  1.00  0.00    -0.023 A 
HETATM    8  C   UNL     1     -40.233  52.977 -51.291  1.00  0.00     0.012 A 
HETATM    9  C   UNL     1     -40.563  54.258 -50.841  1.00  0.00     0.002 A 
HETATM   10  C   UNL     1     -41.018  55.222 -51.741  1.00  0.00     0.017 A 
BRANCH   7  11
HETATM   11  C   UNL     1     -39.971  51.313 -53.102  1.00  0.00    -0.002 A 
HETATM   12  C   UNL     1     -39.631  50.265 -52.268  1.00  0.00     0.153 A 
HETATM   13  O   UNL     1     -39.352  49.146 -52.985  1.00  0.00    -0.334 OA
HETATM   14  C   UNL     1     -39.515  49.464 -54.293  1.00  0.00     0.142 A 
HETATM   15  C   UNL     1     -39.900  50.778 -54.421  1.00  0.00     0.038 A 
ENDBRANCH   7  11
ENDBRANCH   2   5
BRANCH   1  16
HETATM   16  C   UNL     1     -43.071  56.108 -56.142  1.00  0.00     0.041 A 
HETATM   17  C   UNL     1     -42.916  55.833 -57.498  1.00  0.00     0.074 A 
HETATM   18  C   UNL     1     -43.570  56.618 -58.451  1.00  0.00     0.155 A 
HETATM   19  C   UNL     1     -44.385  57.695 -58.092  1.00  0.00     0.145 A 
HETATM   20  F   UNL     1     -43.395  56.318 -59.749  1.00  0.00    -0.203 F 
HETATM   21  C   UNL     1     -44.534  57.957 -56.733  1.00  0.00     0.155 A 
HETATM   22  C   UNL     1     -43.889  57.178 -55.767  1.00  0.00     0.074 A 
HETATM   23  F   UNL     1     -45.297  58.967 -56.292  1.00  0.00    -0.203 F 
BRANCH  19  24
HETATM   24  O   UNL     1     -44.952  58.377 -59.133  1.00  0.00    -0.350 OA
HETATM   25  C   UNL     1     -44.366  59.619 -59.499  1.00  0.00     0.210 C 
ENDBRANCH  19  24
ENDBRANCH   1  16
TORSDOF 4
ENDMDL
MODEL 8
REMARK VINA RESULT:      -7.5      1.720      2.892
REMARK  4 active torsions:
REMARK  status: ('A' for Active; 'I' for Inactive)
REMARK    1  A    between atoms: O_2  and  C_3 
REMARK    2  A    between atoms: C_7  and  N_8 
REMARK       I    between atoms: N_8  and  C_9 
REMARK    3  A    between atoms: C_9  and  C_10 
REMARK    4  A    between atoms: C_12  and  C_13 
ROOT
HETATM    1  N   UNL     1     -42.328  56.975 -51.480  1.00  0.00    -0.323 N 
HETATM    2  C   UNL     1     -42.028  55.939 -52.350  1.00  0.00     0.256 C 
HETATM    3  O   UNL     1     -42.375  55.852 -53.521  1.00  0.00    -0.267 OA
HETATM    4  H   UNL     1     -42.076  56.847 -50.510  1.00  0.00     0.169 HD
ENDROOT
BRANCH   2   5
HETATM    5  C   UNL     1     -41.231  54.821 -51.765  1.00  0.00     0.033 A 
HETATM    6  C   UNL     1     -41.002  53.686 -52.558  1.00  0.00     0.029 A 
HETATM    7  C   UNL     1     -40.244  52.612 -52.070  1.00  0.00    -0.023 A 
HETATM    8  C   UNL     1     -39.722  52.691 -50.772  1.00  0.00     0.012 A 
HETATM    9  C   UNL     1     -39.932  53.826 -49.984  1.00  0.00     0.002 A 
HETATM   10  C   UNL     1     -40.677  54.895 -50.481  1.00  0.00     0.017 A 
BRANCH   7  11
HETATM   11  C   UNL     1     -39.995  51.433 -52.885  1.00  0.00    -0.002 A 
HETATM   12  C   UNL     1     -39.612  50.203 -52.388  1.00  0.00     0.153 A 
HETATM   13  O   UNL     1     -39.474  49.296 -53.390  1.00  0.00    -0.334 OA
HETATM   14  C   UNL     1     -39.774  49.939 -54.546  1.00  0.00     0.142 A 
HETATM   15  C   UNL     1     -40.106  51.249 -54.294  1.00  0.00     0.038 A 
ENDBRANCH   7  11
ENDBRANCH   2   5
BRANCH   1  16
HETATM   16  C   UNL     1     -43.009  58.173 -51.786  1.00  0.00     0.041 A 
HETATM   17  C   UNL     1     -42.427  59.264 -52.426  1.00  0.00     0.074 A 
HETATM   18  C   UNL     1     -43.178  60.416 -52.673  1.00  0.00     0.155 A 
HETATM   19  C   UNL     1     -44.517  60.523 -52.289  1.00  0.00     0.145 A 
HETATM   20  F   UNL     1     -42.578  61.444 -53.294  1.00  0.00    -0.203 F 
HETATM   21  C   UNL     1     -45.089  59.425 -51.651  1.00  0.00     0.155 A 
HETATM   22  C   UNL     1     -44.350  58.264 -51.402  1.00  0.00     0.074 A 
HETATM   23  F   UNL     1     -46.367  59.433 -51.249  1.00  0.00    -0.203 F 
BRANCH  19  24
HETATM   24  O   UNL     1     -45.122  61.712 -52.588  1.00  0.00    -0.350 OA
HETATM   25  C   UNL     1     -46.119  61.704 -53.600  1.00  0.00     0.210 C 
ENDBRANCH  19  24
ENDBRANCH   1  16
TORSDOF 4
ENDMDL
MODEL 9
REMARK VINA RESULT:      -7.5      3.187      4.214
REMARK  4 active torsions:
REMARK  status: ('A' for Active; 'I' for Inactive)
REMARK    1  A    between atoms: O_2  and  C_3 
REMARK    2  A    between atoms: C_7  and  N_8 
REMARK       I    between atoms: N_8  and  C_9 
REMARK    3  A    between atoms: C_9  and  C_10 
REMARK    4  A    between atoms: C_12  and  C_13 
ROOT
HETATM    1  N   UNL     1     -41.213  56.587 -53.319  1.00  0.00    -0.323 N 
HETATM    2  C   UNL     1     -41.975  55.750 -52.521  1.00  0.00     0.256 C 
HETATM    3  O   UNL     1     -43.168  55.872 -52.273  1.00  0.00    -0.267 OA
HETATM    4  H   UNL     1     -40.215  56.427 -53.331  1.00  0.00     0.169 HD
ENDROOT
BRANCH   2   5
HETATM    5  C   UNL     1     -41.236  54.617 -51.891  1.00  0.00     0.033 A 
HETATM    6  C   UNL     1     -40.961  53.487 -52.677  1.00  0.00     0.029 A 
HETATM    7  C   UNL     1     -40.254  52.399 -52.147  1.00  0.00    -0.023 A 
HETATM    8  C   UNL     1     -39.829  52.458 -50.813  1.00  0.00     0.012 A 
HETATM    9  C   UNL     1     -40.085  53.587 -50.030  1.00  0.00     0.002 A 
HETATM   10  C   UNL     1     -40.779  54.671 -50.568  1.00  0.00     0.017 A 
BRANCH   7  11
HETATM   11  C   UNL     1     -39.957  51.226 -52.954  1.00  0.00    -0.002 A 
HETATM   12  C   UNL     1     -39.548  50.008 -52.447  1.00  0.00     0.153 A 
HETATM   13  O   UNL     1     -39.367  49.104 -53.444  1.00  0.00    -0.334 OA
HETATM   14  C   UNL     1     -39.665  49.735 -54.607  1.00  0.00     0.142 A 
HETATM   15  C   UNL     1     -40.038  51.036 -54.364  1.00  0.00     0.038 A 
ENDBRANCH   7  11
ENDBRANCH   2   5
BRANCH   1  16
HETATM   16  C   UNL     1     -41.668  57.688 -54.077  1.00  0.00     0.041 A 
HETATM   17  C   UNL     1     -41.692  59.002 -53.616  1.00  0.00     0.074 A 
HETATM   18  C   UNL     1     -42.176  60.024 -54.436  1.00  0.00     0.155 A 
HETATM   19  C   UNL     1     -42.655  59.776 -55.725  1.00  0.00     0.145 A 
HETATM   20  F   UNL     1     -42.181  61.277 -53.952  1.00  0.00    -0.203 F 
HETATM   21  C   UNL     1     -42.624  58.459 -56.175  1.00  0.00     0.155 A 
HETATM   22  C   UNL     1     -42.137  57.426 -55.368  1.00  0.00     0.074 A 
HETATM   23  F   UNL     1     -43.058  58.125 -57.399  1.00  0.00    -0.203 F 
BRANCH  19  24
HETATM   24  O   UNL     1     -43.106  60.872 -56.407  1.00  0.00    -0.350 OA
HETATM   25  C   UNL     1     -42.249  61.426 -57.396  1.00  0.00     0.210 C 
ENDBRANCH  19  24
ENDBRANCH   1  16
TORSDOF 4
ENDMDL
MODEL 10
REMARK VINA RESULT:      -7.4      1.284      2.202
REMARK  4 active torsions:
REMARK  status: ('A' for Active; 'I' for Inactive)
REMARK    1  A    between atoms: O_2  and  C_3 
REMARK    2  A    between atoms: C_7  and  N_8 
REMARK       I    between atoms: N_8  and  C_9 
REMARK    3  A    between atoms: C_9  and  C_10 
REMARK    4  A    between atoms: C_12  and  C_13 
ROOT
HETATM    1  N   UNL     1     -42.301  57.016 -52.204  1.00  0.00    -0.323 N 
HETATM    2  C   UNL     1     -41.841  56.871 -53.503  1.00  0.00     0.256 C 
HETATM    3  O   UNL     1     -41.930  57.698 -54.401  1.00  0.00    -0.267 OA
HETATM    4  H   UNL     1     -42.264  56.199 -51.610  1.00  0.00     0.169 HD
ENDROOT
BRANCH   2   5
HETATM    5  C   UNL     1     -41.208  55.556 -53.815  1.00  0.00     0.033 A 
HETATM    6  C   UNL     1     -41.032  54.640 -52.767  1.00  0.00     0.029 A 
HETATM    7  C   UNL     1     -40.460  53.381 -53.002  1.00  0.00    -0.023 A 
HETATM    8  C   UNL     1     -40.063  53.056 -54.306  1.00  0.00     0.012 A 
HETATM    9  C   UNL     1     -40.251  53.957 -55.357  1.00  0.00     0.002 A 
HETATM   10  C   UNL     1     -40.831  55.203 -55.117  1.00  0.00     0.017 A 
BRANCH   7  11
HETATM   11  C   UNL     1     -40.279  52.422 -51.924  1.00  0.00    -0.002 A 
HETATM   12  C   UNL     1     -39.635  51.207 -52.056  1.00  0.00     0.153 A 
HETATM   13  O   UNL     1     -39.609  50.540 -50.873  1.00  0.00    -0.334 OA
HETATM   14  C   UNL     1     -40.235  51.328 -49.964  1.00  0.00     0.142 A 
HETATM   15  C   UNL     1     -40.661  52.495 -50.554  1.00  0.00     0.038 A 
ENDBRANCH   7  11
ENDBRANCH   2   5
BRANCH   1  16
HETATM   16  C   UNL     1     -42.878  58.169 -51.630  1.00  0.00     0.041 A 
HETATM   17  C   UNL     1     -42.155  59.289 -51.224  1.00  0.00     0.074 A 
HETATM   18  C   UNL     1     -42.814  60.378 -50.650  1.00  0.00     0.155 A 
HETATM   19  C   UNL     1     -44.198  60.389 -50.455  1.00  0.00     0.145 A 
HETATM   20  F   UNL     1     -42.080  61.438 -50.273  1.00  0.00    -0.203 F 
HETATM   21  C   UNL     1     -44.909  59.265 -50.868  1.00  0.00     0.155 A 
HETATM   22  C   UNL     1     -44.264  58.169 -51.448  1.00  0.00     0.074 A 
HETATM   23  F   UNL     1     -46.240  59.185 -50.725  1.00  0.00    -0.203 F 
BRANCH  19  24
HETATM   24  O   UNL     1     -44.702  61.520 -49.875  1.00  0.00    -0.350 OA
HETATM   25  C   UNL     1     -45.099  61.435 -48.513  1.00  0.00     0.210 C 
ENDBRANCH  19  24
ENDBRANCH   1  16
TORSDOF 4
ENDMDL
