MODEL 1
REMARK VINA RESULT:      -7.8      0.000      0.000
REMARK  5 active torsions:
REMARK  status: ('A' for Active; 'I' for Inactive)
REMARK    1  A    between atoms: C_2  and  O_3 
REMARK    2  A    between atoms: O_3  and  C_4 
REMARK    3  A    between atoms: C_4  and  C_5 
REMARK    4  A    between atoms: C_6  and  C_7 
REMARK    5  A    between atoms: C_22  and  N_23 
ROOT
HETATM    1  C   UNL     1     -41.375  54.999 -51.116  1.00  0.00     0.075 A 
HETATM    2  C   UNL     1     -41.410  54.784 -52.510  1.00  0.00     0.011 A 
HETATM    3  C   UNL     1     -40.920  53.547 -52.984  1.00  0.00     0.074 A 
HETATM    4  C   UNL     1     -40.428  52.613 -52.071  1.00  0.00     0.096 A 
HETATM    5  N   UNL     1     -40.401  52.838 -50.733  1.00  0.00    -0.250 NA
HETATM    6  C   UNL     1     -40.866  54.020 -50.263  1.00  0.00     0.048 A 
HETATM    7  C   UNL     1     -40.796  54.206 -48.774  1.00  0.00     0.071 C 
HETATM    8  C   UNL     1     -40.893  53.154 -54.419  1.00  0.00     0.260 A 
HETATM    9  O   UNL     1     -41.339  53.850 -55.320  1.00  0.00    -0.267 OA
HETATM   10  N   UNL     1     -40.334  51.933 -54.718  1.00  0.00    -0.312 N 
HETATM   11  C   UNL     1     -39.845  51.016 -53.828  1.00  0.00     0.102 A 
HETATM   12  C   UNL     1     -39.890  51.318 -52.513  1.00  0.00     0.098 A 
HETATM   13  C   UNL     1     -39.404  50.325 -51.469  1.00  0.00     0.025 C 
HETATM   14  N   UNL     1     -39.002  49.502 -50.603  1.00  0.00    -0.096 N 
HETATM   15  H   UNL     1     -40.364  51.685 -55.699  1.00  0.00     0.170 HD
ENDROOT
BRANCH  11  16
HETATM   16  N   UNL     1     -39.361  49.845 -54.357  1.00  0.00    -0.287 NA
HETATM   17  H   UNL     1     -39.588  49.021 -53.807  1.00  0.00     0.125 HD
HETATM   18  H   UNL     1     -39.541  49.696 -55.349  1.00  0.00     0.125 HD
ENDBRANCH  11  16
BRANCH   2  19
HETATM   19  C   UNL     1     -41.941  55.830 -53.400  1.00  0.00    -0.024 A 
HETATM   20  C   UNL     1     -41.107  56.849 -53.887  1.00  0.00     0.014 A 
HETATM   21  C   UNL     1     -41.612  57.847 -54.726  1.00  0.00     0.024 A 
HETATM   22  C   UNL     1     -42.959  57.839 -55.076  1.00  0.00     0.034 A 
HETATM   23 CL   UNL     1     -43.583  59.068 -56.106  1.00  0.00    -0.084 Cl
HETATM   24  C   UNL     1     -43.807  56.843 -54.596  1.00  0.00     0.024 A 
HETATM   25  C   UNL     1     -43.299  55.843 -53.762  1.00  0.00     0.014 A 
ENDBRANCH   2  19
BRANCH   1  26
HETATM   26  C   UNL     1     -41.816  56.278 -50.539  1.00  0.00     0.296 C 
HETATM   27  O   UNL     1     -42.978  56.541 -50.293  1.00  0.00    -0.259 OA
BRANCH  26  28
HETATM   28  O   UNL     1     -40.725  57.063 -50.394  1.00  0.00    -0.318 OA
BRANCH  28  29
HETATM   29  C   UNL     1     -40.940  58.478 -50.520  1.00  0.00     0.174 C 
HETATM   30  C   UNL     1     -39.626  59.140 -50.886  1.00  0.00     0.034 C 
ENDBRANCH  28  29
ENDBRANCH  26  28
ENDBRANCH   1  26
TORSDOF 5
ENDMDL
MODEL 2
REMARK VINA RESULT:      -7.4      0.854      1.677
REMARK  5 active torsions:
REMARK  status: ('A' for Active; 'I' for Inactive)
REMARK    1  A    between atoms: C_2  and  O_3 
REMARK    2  A    between atoms: O_3  and  C_4 
REMARK    3  A    between atoms: C_4  and  C_5 
REMARK    4  A    between atoms: C_6  and  C_7 
REMARK    5  A    between atoms: C_22  and  N_23 
ROOT
HETATM    1  C   UNL     1     -41.303  55.208 -51.175  1.00  0.00     0.075 A 
HETATM    2  C   UNL     1     -41.326  54.980 -52.567  1.00  0.00     0.011 A 
HETATM    3  C   UNL     1     -40.871  53.723 -53.022  1.00  0.00     0.074 A 
HETATM    4  C   UNL     1     -40.423  52.782 -52.093  1.00  0.00     0.096 A 
HETATM    5  N   UNL     1     -40.407  53.020 -50.758  1.00  0.00    -0.250 NA
HETATM    6  C   UNL     1     -40.839  54.221 -50.305  1.00  0.00     0.048 A 
HETATM    7  C   UNL     1     -40.783  54.419 -48.817  1.00  0.00     0.071 C 
HETATM    8  C   UNL     1     -40.838  53.314 -54.453  1.00  0.00     0.260 A 
HETATM    9  O   UNL     1     -41.248  54.016 -55.367  1.00  0.00    -0.267 OA
HETATM   10  N   UNL     1     -40.316  52.073 -54.732  1.00  0.00    -0.312 N 
HETATM   11  C   UNL     1     -39.870  51.149 -53.827  1.00  0.00     0.102 A 
HETATM   12  C   UNL     1     -39.922  51.466 -52.515  1.00  0.00     0.098 A 
HETATM   13  C   UNL     1     -39.485  50.468 -51.455  1.00  0.00     0.025 C 
HETATM   14  N   UNL     1     -39.122  49.641 -50.576  1.00  0.00    -0.096 N 
HETATM   15  H   UNL     1     -40.340  51.816 -55.711  1.00  0.00     0.170 HD
ENDROOT
BRANCH  11  16
HETATM   16  N   UNL     1     -39.417  49.958 -54.338  1.00  0.00    -0.287 NA
HETATM   17  H   UNL     1     -38.468  50.000 -54.699  1.00  0.00     0.125 HD
HETATM   18  H   UNL     1     -39.559  49.138 -53.750  1.00  0.00     0.125 HD
ENDBRANCH  11  16
BRANCH   2  19
HETATM   19  C   UNL     1     -41.809  56.034 -53.474  1.00  0.00    -0.024 A 
HETATM   20  C   UNL     1     -43.096  55.965 -54.033  1.00  0.00     0.014 A 
HETATM   21  C   UNL     1     -43.553  56.961 -54.902  1.00  0.00     0.024 A 
HETATM   22  C   UNL     1     -42.722  58.029 -55.227  1.00  0.00     0.034 A 
HETATM   23 CL   UNL     1     -43.282  59.254 -56.298  1.00  0.00    -0.084 Cl
HETATM   24  C   UNL     1     -41.438  58.111 -54.693  1.00  0.00     0.024 A 
HETATM   25  C   UNL     1     -40.984  57.118 -53.820  1.00  0.00     0.014 A 
ENDBRANCH   2  19
BRANCH   1  26
HETATM   26  C   UNL     1     -41.709  56.506 -50.616  1.00  0.00     0.296 C 
HETATM   27  O   UNL     1     -40.922  57.342 -50.212  1.00  0.00    -0.259 OA
BRANCH  26  28
HETATM   28  O   UNL     1     -43.060  56.548 -50.606  1.00  0.00    -0.318 OA
BRANCH  28  29
HETATM   29  C   UNL     1     -43.660  57.803 -50.962  1.00  0.00     0.174 C 
HETATM   30  C   UNL     1     -45.109  57.562 -51.338  1.00  0.00     0.034 C 
ENDBRANCH  28  29
ENDBRANCH  26  28
ENDBRANCH   1  26
TORSDOF 5
ENDMDL
MODEL 3
REMARK VINA RESULT:      -7.3      4.561      7.833
REMARK  5 active torsions:
REMARK  status: ('A' for Active; 'I' for Inactive)
REMARK    1  A    between atoms: C_2  and  O_3 
REMARK    2  A    between atoms: O_3  and  C_4 
REMARK    3  A    between atoms: C_4  and  C_5 
REMARK    4  A    between atoms: C_6  and  C_7 
REMARK    5  A    between atoms: C_22  and  N_23 
ROOT
HETATM    1  C   UNL     1     -43.704  57.950 -55.495  1.00  0.00     0.075 A 
HETATM    2  C   UNL     1     -43.468  57.207 -54.319  1.00  0.00     0.011 A 
HETATM    3  C   UNL     1     -44.079  57.666 -53.132  1.00  0.00     0.074 A 
HETATM    4  C   UNL     1     -44.870  58.816 -53.173  1.00  0.00     0.096 A 
HETATM    5  N   UNL     1     -45.086  59.518 -54.313  1.00  0.00    -0.250 NA
HETATM    6  C   UNL     1     -44.505  59.092 -55.460  1.00  0.00     0.048 A 
HETATM    7  C   UNL     1     -44.777  59.923 -56.680  1.00  0.00     0.071 C 
HETATM    8  C   UNL     1     -43.944  56.997 -51.809  1.00  0.00     0.260 A 
HETATM    9  O   UNL     1     -43.326  55.956 -51.638  1.00  0.00    -0.267 OA
HETATM   10  N   UNL     1     -44.562  57.604 -50.741  1.00  0.00    -0.312 N 
HETATM   11  C   UNL     1     -45.334  58.733 -50.774  1.00  0.00     0.102 A 
HETATM   12  C   UNL     1     -45.515  59.346 -51.962  1.00  0.00     0.098 A 
HETATM   13  C   UNL     1     -46.398  60.579 -52.076  1.00  0.00     0.025 C 
HETATM   14  N   UNL     1     -47.129  61.601 -52.171  1.00  0.00    -0.096 N 
HETATM   15  H   UNL     1     -44.476  57.103 -49.865  1.00  0.00     0.170 HD
ENDROOT
BRANCH  11  16
HETATM   16  N   UNL     1     -45.878  59.139 -49.580  1.00  0.00    -0.287 NA
HETATM   17  H   UNL     1     -46.178  60.111 -49.575  1.00  0.00     0.125 HD
HETATM   18  H   UNL     1     -46.587  58.525 -49.181  1.00  0.00     0.125 HD
ENDBRANCH  11  16
BRANCH   2  19
HETATM   19  C   UNL     1     -42.612  56.010 -54.368  1.00  0.00    -0.024 A 
HETATM   20  C   UNL     1     -41.218  56.118 -54.236  1.00  0.00     0.014 A 
HETATM   21  C   UNL     1     -40.404  54.982 -54.291  1.00  0.00     0.024 A 
HETATM   22  C   UNL     1     -40.979  53.730 -54.489  1.00  0.00     0.034 A 
HETATM   23 CL   UNL     1     -39.978  52.331 -54.559  1.00  0.00    -0.084 Cl
HETATM   24  C   UNL     1     -42.358  53.601 -54.633  1.00  0.00     0.024 A 
HETATM   25  C   UNL     1     -43.171  54.736 -54.572  1.00  0.00     0.014 A 
ENDBRANCH   2  19
BRANCH   1  26
HETATM   26  C   UNL     1     -43.065  57.575 -56.765  1.00  0.00     0.296 C 
HETATM   27  O   UNL     1     -42.005  58.034 -57.147  1.00  0.00    -0.259 OA
BRANCH  26  28
HETATM   28  O   UNL     1     -43.883  56.703 -57.397  1.00  0.00    -0.318 OA
BRANCH  28  29
HETATM   29  C   UNL     1     -43.241  55.643 -58.124  1.00  0.00     0.174 C 
HETATM   30  C   UNL     1     -43.426  55.888 -59.608  1.00  0.00     0.034 C 
ENDBRANCH  28  29
ENDBRANCH  26  28
ENDBRANCH   1  26
TORSDOF 5
ENDMDL
MODEL 4
REMARK VINA RESULT:      -6.9      4.414      7.154
REMARK  5 active torsions:
REMARK  status: ('A' for Active; 'I' for Inactive)
REMARK    1  A    between atoms: C_2  and  O_3 
REMARK    2  A    between atoms: O_3  and  C_4 
REMARK    3  A    between atoms: C_4  and  C_5 
REMARK    4  A    between atoms: C_6  and  C_7 
REMARK    5  A    between atoms: C_22  and  N_23 
ROOT
HETATM    1  C   UNL     1     -42.264  58.724 -55.430  1.00  0.00     0.075 A 
HETATM    2  C   UNL     1     -42.485  57.347 -55.643  1.00  0.00     0.011 A 
HETATM    3  C   UNL     1     -42.916  56.953 -56.929  1.00  0.00     0.074 A 
HETATM    4  C   UNL     1     -43.109  57.927 -57.911  1.00  0.00     0.096 A 
HETATM    5  N   UNL     1     -42.893  59.247 -57.687  1.00  0.00    -0.250 NA
HETATM    6  C   UNL     1     -42.480  59.641 -56.459  1.00  0.00     0.048 A 
HETATM    7  C   UNL     1     -42.272  61.117 -56.280  1.00  0.00     0.071 C 
HETATM    8  C   UNL     1     -43.184  55.545 -57.325  1.00  0.00     0.260 A 
HETATM    9  O   UNL     1     -43.008  54.588 -56.585  1.00  0.00    -0.267 OA
HETATM   10  N   UNL     1     -43.651  55.337 -58.603  1.00  0.00    -0.312 N 
HETATM   11  C   UNL     1     -43.846  56.287 -59.568  1.00  0.00     0.102 A 
HETATM   12  C   UNL     1     -43.574  57.573 -59.260  1.00  0.00     0.098 A 
HETATM   13  C   UNL     1     -43.727  58.672 -60.299  1.00  0.00     0.025 C 
HETATM   14  N   UNL     1     -43.853  59.583 -61.161  1.00  0.00    -0.096 N 
HETATM   15  H   UNL     1     -43.789  54.365 -58.847  1.00  0.00     0.170 HD
ENDROOT
BRANCH  11  16
HETATM   16  N   UNL     1     -44.291  55.840 -60.787  1.00  0.00    -0.287 NA
HETATM   17  H   UNL     1     -44.983  56.447 -61.220  1.00  0.00     0.125 HD
HETATM   18  H   UNL     1     -43.569  55.561 -61.451  1.00  0.00     0.125 HD
ENDBRANCH  11  16
BRANCH   2  19
HETATM   19  C   UNL     1     -42.263  56.391 -54.545  1.00  0.00    -0.024 A 
HETATM   20  C   UNL     1     -43.315  56.023 -53.690  1.00  0.00     0.014 A 
HETATM   21  C   UNL     1     -43.104  55.122 -52.643  1.00  0.00     0.024 A 
HETATM   22  C   UNL     1     -41.835  54.589 -52.435  1.00  0.00     0.034 A 
HETATM   23 CL   UNL     1     -41.572  53.482 -51.144  1.00  0.00    -0.084 Cl
HETATM   24  C   UNL     1     -40.774  54.949 -53.263  1.00  0.00     0.024 A 
HETATM   25  C   UNL     1     -40.988  55.846 -54.314  1.00  0.00     0.014 A 
ENDBRANCH   2  19
BRANCH   1  26
HETATM   26  C   UNL     1     -41.865  59.229 -54.108  1.00  0.00     0.296 C 
HETATM   27  O   UNL     1     -40.707  59.345 -53.753  1.00  0.00    -0.259 OA
BRANCH  26  28
HETATM   28  O   UNL     1     -42.991  59.475 -53.402  1.00  0.00    -0.318 OA
BRANCH  28  29
HETATM   29  C   UNL     1     -42.881  59.372 -51.973  1.00  0.00     0.174 C 
HETATM   30  C   UNL     1     -44.151  58.747 -51.430  1.00  0.00     0.034 C 
ENDBRANCH  28  29
ENDBRANCH  26  28
ENDBRANCH   1  26
TORSDOF 5
ENDMDL
MODEL 5
REMARK VINA RESULT:      -6.8      4.059      6.405
REMARK  5 active torsions:
REMARK  status: ('A' for Active; 'I' for Inactive)
REMARK    1  A    between atoms: C_2  and  O_3 
REMARK    2  A    between atoms: O_3  and  C_4 
REMARK    3  A    between atoms: C_4  and  C_5 
REMARK    4  A    between atoms: C_6  and  C_7 
REMARK    5  A    between atoms: C_22  and  N_23 
ROOT
HETATM    1  C   UNL     1     -44.161  58.259 -52.683  1.00  0.00     0.075 A 
HETATM    2  C   UNL     1     -43.301  57.178 -52.967  1.00  0.00     0.011 A 
HETATM    3  C   UNL     1     -43.082  56.867 -54.327  1.00  0.00     0.074 A 
HETATM    4  C   UNL     1     -43.720  57.625 -55.311  1.00  0.00     0.096 A 
HETATM    5  N   UNL     1     -44.545  58.662 -55.019  1.00  0.00    -0.250 NA
HETATM    6  C   UNL     1     -44.766  58.972 -53.719  1.00  0.00     0.048 A 
HETATM    7  C   UNL     1     -45.698  60.122 -53.469  1.00  0.00     0.071 C 
HETATM    8  C   UNL     1     -42.199  55.768 -54.802  1.00  0.00     0.260 A 
HETATM    9  O   UNL     1     -41.540  55.059 -54.054  1.00  0.00    -0.267 OA
HETATM   10  N   UNL     1     -42.137  55.564 -56.160  1.00  0.00    -0.312 N 
HETATM   11  C   UNL     1     -42.763  56.300 -57.129  1.00  0.00     0.102 A 
HETATM   12  C   UNL     1     -43.541  57.333 -56.741  1.00  0.00     0.098 A 
HETATM   13  C   UNL     1     -44.229  58.218 -57.767  1.00  0.00     0.025 C 
HETATM   14  N   UNL     1     -44.799  58.953 -58.618  1.00  0.00    -0.096 N 
HETATM   15  H   UNL     1     -41.501  54.830 -56.447  1.00  0.00     0.170 HD
ENDROOT
BRANCH  11  16
HETATM   16  N   UNL     1     -42.528  55.929 -58.430  1.00  0.00    -0.287 NA
HETATM   17  H   UNL     1     -41.675  55.389 -58.555  1.00  0.00     0.125 HD
HETATM   18  H   UNL     1     -43.314  55.508 -58.923  1.00  0.00     0.125 HD
ENDBRANCH  11  16
BRANCH   2  19
HETATM   19  C   UNL     1     -42.677  56.428 -51.864  1.00  0.00    -0.024 A 
HETATM   20  C   UNL     1     -43.303  55.293 -51.323  1.00  0.00     0.014 A 
HETATM   21  C   UNL     1     -42.715  54.585 -50.270  1.00  0.00     0.024 A 
HETATM   22  C   UNL     1     -41.501  55.014 -49.742  1.00  0.00     0.034 A 
HETATM   23 CL   UNL     1     -40.778  54.146 -48.444  1.00  0.00    -0.084 Cl
HETATM   24  C   UNL     1     -40.869  56.144 -50.256  1.00  0.00     0.024 A 
HETATM   25  C   UNL     1     -41.454  56.847 -51.312  1.00  0.00     0.014 A 
ENDBRANCH   2  19
BRANCH   1  26
HETATM   26  C   UNL     1     -44.487  58.620 -51.295  1.00  0.00     0.296 C 
HETATM   27  O   UNL     1     -45.414  58.137 -50.673  1.00  0.00    -0.259 OA
BRANCH  26  28
HETATM   28  O   UNL     1     -43.617  59.577 -50.902  1.00  0.00    -0.318 OA
BRANCH  28  29
HETATM   29  C   UNL     1     -44.174  60.681 -50.170  1.00  0.00     0.174 C 
HETATM   30  C   UNL     1     -43.317  61.908 -50.410  1.00  0.00     0.034 C 
ENDBRANCH  28  29
ENDBRANCH  26  28
ENDBRANCH   1  26
TORSDOF 5
ENDMDL
MODEL 6
REMARK VINA RESULT:      -6.8      2.072      4.560
REMARK  5 active torsions:
REMARK  status: ('A' for Active; 'I' for Inactive)
REMARK    1  A    between atoms: C_2  and  O_3 
REMARK    2  A    between atoms: O_3  and  C_4 
REMARK    3  A    between atoms: C_4  and  C_5 
REMARK    4  A    between atoms: C_6  and  C_7 
REMARK    5  A    between atoms: C_22  and  N_23 
ROOT
HETATM    1  C   UNL     1     -41.805  55.195 -53.660  1.00  0.00     0.075 A 
HETATM    2  C   UNL     1     -41.740  56.052 -52.541  1.00  0.00     0.011 A 
HETATM    3  C   UNL     1     -41.403  55.469 -51.300  1.00  0.00     0.074 A 
HETATM    4  C   UNL     1     -41.161  54.095 -51.235  1.00  0.00     0.096 A 
HETATM    5  N   UNL     1     -41.231  53.286 -52.321  1.00  0.00    -0.250 NA
HETATM    6  C   UNL     1     -41.554  53.830 -53.519  1.00  0.00     0.048 A 
HETATM    7  C   UNL     1     -41.623  52.874 -54.675  1.00  0.00     0.071 C 
HETATM    8  C   UNL     1     -41.279  56.228 -50.026  1.00  0.00     0.260 A 
HETATM    9  O   UNL     1     -41.412  57.441 -49.945  1.00  0.00    -0.267 OA
HETATM   10  N   UNL     1     -40.996  55.500 -48.894  1.00  0.00    -0.312 N 
HETATM   11  C   UNL     1     -40.763  54.154 -48.823  1.00  0.00     0.102 A 
HETATM   12  C   UNL     1     -40.825  53.435 -49.965  1.00  0.00     0.098 A 
HETATM   13  C   UNL     1     -40.533  51.943 -49.963  1.00  0.00     0.025 C 
HETATM   14  N   UNL     1     -40.291  50.706 -49.962  1.00  0.00    -0.096 N 
HETATM   15  H   UNL     1     -40.887  56.053 -48.054  1.00  0.00     0.170 HD
ENDROOT
BRANCH  11  16
HETATM   16  N   UNL     1     -40.467  53.647 -47.582  1.00  0.00    -0.287 NA
HETATM   17  H   UNL     1     -40.971  54.097 -46.823  1.00  0.00     0.125 HD
HETATM   18  H   UNL     1     -40.491  52.631 -47.498  1.00  0.00     0.125 HD
ENDBRANCH  11  16
BRANCH   2  19
HETATM   19  C   UNL     1     -42.017  57.489 -52.702  1.00  0.00    -0.024 A 
HETATM   20  C   UNL     1     -43.257  58.028 -52.319  1.00  0.00     0.014 A 
HETATM   21  C   UNL     1     -43.524  59.391 -52.480  1.00  0.00     0.024 A 
HETATM   22  C   UNL     1     -42.557  60.224 -53.034  1.00  0.00     0.034 A 
HETATM   23 CL   UNL     1     -42.887  61.901 -53.234  1.00  0.00    -0.084 Cl
HETATM   24  C   UNL     1     -41.326  59.709 -53.430  1.00  0.00     0.024 A 
HETATM   25  C   UNL     1     -41.057  58.348 -53.265  1.00  0.00     0.014 A 
ENDBRANCH   2  19
BRANCH   1  26
HETATM   26  C   UNL     1     -42.199  55.706 -54.981  1.00  0.00     0.296 C 
HETATM   27  O   UNL     1     -41.405  55.989 -55.858  1.00  0.00    -0.259 OA
BRANCH  26  28
HETATM   28  O   UNL     1     -43.546  55.831 -54.991  1.00  0.00    -0.318 OA
BRANCH  28  29
HETATM   29  C   UNL     1     -44.083  56.850 -55.849  1.00  0.00     0.174 C 
HETATM   30  C   UNL     1     -45.230  57.536 -55.133  1.00  0.00     0.034 C 
ENDBRANCH  28  29
ENDBRANCH  26  28
ENDBRANCH   1  26
TORSDOF 5
ENDMDL
MODEL 7
REMARK VINA RESULT:      -6.8      2.597      4.749
REMARK  5 active torsions:
REMARK  status: ('A' for Active; 'I' for Inactive)
REMARK    1  A    between atoms: C_2  and  O_3 
REMARK    2  A    between atoms: O_3  and  C_4 
REMARK    3  A    between atoms: C_4  and  C_5 
REMARK    4  A    between atoms: C_6  and  C_7 
REMARK    5  A    between atoms: C_22  and  N_23 
ROOT
HETATM    1  C   UNL     1     -42.836  56.420 -54.491  1.00  0.00     0.075 A 
HETATM    2  C   UNL     1     -42.509  56.515 -53.122  1.00  0.00     0.011 A 
HETATM    3  C   UNL     1     -41.820  55.426 -52.545  1.00  0.00     0.074 A 
HETATM    4  C   UNL     1     -41.505  54.321 -53.339  1.00  0.00     0.096 A 
HETATM    5  N   UNL     1     -41.828  54.246 -54.654  1.00  0.00    -0.250 NA
HETATM    6  C   UNL     1     -42.490  55.283 -55.222  1.00  0.00     0.048 A 
HETATM    7  C   UNL     1     -42.826  55.127 -56.677  1.00  0.00     0.071 C 
HETATM    8  C   UNL     1     -41.391  55.368 -51.122  1.00  0.00     0.260 A 
HETATM    9  O   UNL     1     -41.554  56.283 -50.327  1.00  0.00    -0.267 OA
HETATM   10  N   UNL     1     -40.776  54.210 -50.705  1.00  0.00    -0.312 N 
HETATM   11  C   UNL     1     -40.469  53.123 -51.477  1.00  0.00     0.102 A 
HETATM   12  C   UNL     1     -40.805  53.153 -52.784  1.00  0.00     0.098 A 
HETATM   13  C   UNL     1     -40.453  51.997 -53.706  1.00  0.00     0.025 C 
HETATM   14  N   UNL     1     -40.161  51.039 -54.471  1.00  0.00    -0.096 N 
HETATM   15  H   UNL     1     -40.468  54.220 -49.741  1.00  0.00     0.170 HD
ENDROOT
BRANCH  11  16
HETATM   16  N   UNL     1     -39.822  52.087 -50.848  1.00  0.00    -0.287 NA
HETATM   17  H   UNL     1     -39.947  52.077 -49.839  1.00  0.00     0.125 HD
HETATM   18  H   UNL     1     -39.962  51.163 -51.253  1.00  0.00     0.125 HD
ENDBRANCH  11  16
BRANCH   2  19
HETATM   19  C   UNL     1     -42.888  57.717 -52.360  1.00  0.00    -0.024 A 
HETATM   20  C   UNL     1     -44.141  57.802 -51.730  1.00  0.00     0.014 A 
HETATM   21  C   UNL     1     -44.505  58.946 -51.014  1.00  0.00     0.024 A 
HETATM   22  C   UNL     1     -43.622  60.019 -50.931  1.00  0.00     0.034 A 
HETATM   23 CL   UNL     1     -44.070  61.429 -50.051  1.00  0.00    -0.084 Cl
HETATM   24  C   UNL     1     -42.379  59.961 -51.557  1.00  0.00     0.024 A 
HETATM   25  C   UNL     1     -42.014  58.814 -52.268  1.00  0.00     0.014 A 
ENDBRANCH   2  19
BRANCH   1  26
HETATM   26  C   UNL     1     -43.598  57.484 -55.161  1.00  0.00     0.296 C 
HETATM   27  O   UNL     1     -44.814  57.519 -55.201  1.00  0.00    -0.259 OA
BRANCH  26  28
HETATM   28  O   UNL     1     -42.712  58.333 -55.727  1.00  0.00    -0.318 OA
BRANCH  28  29
HETATM   29  C   UNL     1     -43.106  58.924 -56.976  1.00  0.00     0.174 C 
HETATM   30  C   UNL     1     -42.103  58.527 -58.041  1.00  0.00     0.034 C 
ENDBRANCH  28  29
ENDBRANCH  26  28
ENDBRANCH   1  26
TORSDOF 5
ENDMDL
MODEL 8
REMARK VINA RESULT:      -6.7      4.725      7.321
REMARK  5 active torsions:
REMARK  status: ('A' for Active; 'I' for Inactive)
REMARK    1  A    between atoms: C_2  and  O_3 
REMARK    2  A    between atoms: O_3  and  C_4 
REMARK    3  A    between atoms: C_4  and  C_5 
REMARK    4  A    between atoms: C_6  and  C_7 
REMARK    5  A    between atoms: C_22  and  N_23 
ROOT
HETATM    1  C   UNL     1     -43.729  57.795 -54.223  1.00  0.00     0.075 A 
HETATM    2  C   UNL     1     -43.380  56.917 -55.271  1.00  0.00     0.011 A 
HETATM    3  C   UNL     1     -43.889  57.210 -56.556  1.00  0.00     0.074 A 
HETATM    4  C   UNL     1     -44.705  58.329 -56.726  1.00  0.00     0.096 A 
HETATM    5  N   UNL     1     -45.032  59.162 -55.706  1.00  0.00    -0.250 NA
HETATM    6  C   UNL     1     -44.552  58.894 -54.468  1.00  0.00     0.048 A 
HETATM    7  C   UNL     1     -44.963  59.850 -53.386  1.00  0.00     0.071 C 
HETATM    8  C   UNL     1     -43.611  56.397 -57.770  1.00  0.00     0.260 A 
HETATM    9  O   UNL     1     -42.872  55.422 -57.778  1.00  0.00    -0.267 OA
HETATM   10  N   UNL     1     -44.228  56.789 -58.935  1.00  0.00    -0.312 N 
HETATM   11  C   UNL     1     -45.033  57.882 -59.108  1.00  0.00     0.102 A 
HETATM   12  C   UNL     1     -45.276  58.669 -58.038  1.00  0.00     0.098 A 
HETATM   13  C   UNL     1     -46.126  59.923 -58.171  1.00  0.00     0.025 C 
HETATM   14  N   UNL     1     -46.829  60.963 -58.281  1.00  0.00    -0.096 N 
HETATM   15  H   UNL     1     -43.989  56.233 -59.747  1.00  0.00     0.170 HD
ENDROOT
BRANCH  11  16
HETATM   16  N   UNL     1     -45.516  58.094 -60.375  1.00  0.00    -0.287 NA
HETATM   17  H   UNL     1     -46.527  58.186 -60.420  1.00  0.00     0.125 HD
HETATM   18  H   UNL     1     -45.049  58.822 -60.914  1.00  0.00     0.125 HD
ENDBRANCH  11  16
BRANCH   2  19
HETATM   19  C   UNL     1     -42.518  55.755 -54.997  1.00  0.00    -0.024 A 
HETATM   20  C   UNL     1     -41.119  55.870 -55.051  1.00  0.00     0.014 A 
HETATM   21  C   UNL     1     -40.300  54.765 -54.799  1.00  0.00     0.024 A 
HETATM   22  C   UNL     1     -40.875  53.533 -54.502  1.00  0.00     0.034 A 
HETATM   23 CL   UNL     1     -39.868  52.171 -54.195  1.00  0.00    -0.084 Cl
HETATM   24  C   UNL     1     -42.260  53.394 -54.454  1.00  0.00     0.024 A 
HETATM   25  C   UNL     1     -43.077  54.500 -54.701  1.00  0.00     0.014 A 
ENDBRANCH   2  19
BRANCH   1  26
HETATM   26  C   UNL     1     -43.287  57.538 -52.845  1.00  0.00     0.296 C 
HETATM   27  O   UNL     1     -42.239  57.952 -52.386  1.00  0.00    -0.259 OA
BRANCH  26  28
HETATM   28  O   UNL     1     -44.215  56.754 -52.252  1.00  0.00    -0.318 OA
BRANCH  28  29
HETATM   29  C   UNL     1     -43.879  56.241 -50.954  1.00  0.00     0.174 C 
HETATM   30  C   UNL     1     -43.444  54.796 -51.097  1.00  0.00     0.034 C 
ENDBRANCH  28  29
ENDBRANCH  26  28
ENDBRANCH   1  26
TORSDOF 5
ENDMDL
MODEL 9
REMARK VINA RESULT:      -6.5      4.072      6.829
REMARK  5 active torsions:
REMARK  status: ('A' for Active; 'I' for Inactive)
REMARK    1  A    between atoms: C_2  and  O_3 
REMARK    2  A    between atoms: O_3  and  C_4 
REMARK    3  A    between atoms: C_4  and  C_5 
REMARK    4  A    between atoms: C_6  and  C_7 
REMARK    5  A    between atoms: C_22  and  N_23 
ROOT
HETATM    1  C   UNL     1     -42.517  55.852 -54.700  1.00  0.00     0.075 A 
HETATM    2  C   UNL     1     -42.215  57.227 -54.784  1.00  0.00     0.011 A 
HETATM    3  C   UNL     1     -42.411  57.856 -56.033  1.00  0.00     0.074 A 
HETATM    4  C   UNL     1     -42.880  57.101 -57.110  1.00  0.00     0.096 A 
HETATM    5  N   UNL     1     -43.164  55.779 -57.011  1.00  0.00    -0.250 NA
HETATM    6  C   UNL     1     -42.980  55.161 -55.820  1.00  0.00     0.048 A 
HETATM    7  C   UNL     1     -43.303  53.695 -55.785  1.00  0.00     0.071 C 
HETATM    8  C   UNL     1     -42.154  59.298 -56.292  1.00  0.00     0.260 A 
HETATM    9  O   UNL     1     -41.792  60.087 -55.430  1.00  0.00    -0.267 OA
HETATM   10  N   UNL     1     -42.345  59.742 -57.580  1.00  0.00    -0.312 N 
HETATM   11  C   UNL     1     -42.799  59.006 -58.640  1.00  0.00     0.102 A 
HETATM   12  C   UNL     1     -43.084  57.702 -58.436  1.00  0.00     0.098 A 
HETATM   13  C   UNL     1     -43.634  56.840 -59.561  1.00  0.00     0.025 C 
HETATM   14  N   UNL     1     -44.091  56.125 -60.493  1.00  0.00    -0.096 N 
HETATM   15  H   UNL     1     -42.192  60.734 -57.711  1.00  0.00     0.170 HD
ENDROOT
BRANCH  11  16
HETATM   16  N   UNL     1     -42.942  59.673 -59.833  1.00  0.00    -0.287 NA
HETATM   17  H   UNL     1     -42.782  59.090 -60.651  1.00  0.00     0.125 HD
HETATM   18  H   UNL     1     -43.788  60.233 -59.931  1.00  0.00     0.125 HD
ENDBRANCH  11  16
BRANCH   2  19
HETATM   19  C   UNL     1     -41.718  57.942 -53.596  1.00  0.00    -0.024 A 
HETATM   20  C   UNL     1     -40.340  58.113 -53.386  1.00  0.00     0.014 A 
HETATM   21  C   UNL     1     -39.867  58.785 -52.254  1.00  0.00     0.024 A 
HETATM   22  C   UNL     1     -40.770  59.282 -51.319  1.00  0.00     0.034 A 
HETATM   23 CL   UNL     1     -40.189  60.106 -49.924  1.00  0.00    -0.084 Cl
HETATM   24  C   UNL     1     -42.140  59.114 -51.502  1.00  0.00     0.024 A 
HETATM   25  C   UNL     1     -42.612  58.448 -52.636  1.00  0.00     0.014 A 
ENDBRANCH   2  19
BRANCH   1  26
HETATM   26  C   UNL     1     -42.294  55.105 -53.453  1.00  0.00     0.296 C 
HETATM   27  O   UNL     1     -43.156  54.919 -52.615  1.00  0.00    -0.259 OA
BRANCH  26  28
HETATM   28  O   UNL     1     -40.994  54.734 -53.421  1.00  0.00    -0.318 OA
BRANCH  28  29
HETATM   29  C   UNL     1     -40.722  53.410 -52.935  1.00  0.00     0.174 C 
HETATM   30  C   UNL     1     -40.213  52.563 -54.084  1.00  0.00     0.034 C 
ENDBRANCH  28  29
ENDBRANCH  26  28
ENDBRANCH   1  26
TORSDOF 5
ENDMDL
MODEL 10
REMARK VINA RESULT:      -6.4      2.353      3.642
REMARK  5 active torsions:
REMARK  status: ('A' for Active; 'I' for Inactive)
REMARK    1  A    between atoms: C_2  and  O_3 
REMARK    2  A    between atoms: O_3  and  C_4 
REMARK    3  A    between atoms: C_4  and  C_5 
REMARK    4  A    between atoms: C_6  and  C_7 
REMARK    5  A    between atoms: C_22  and  N_23 
ROOT
HETATM    1  C   UNL     1     -42.075  58.303 -52.178  1.00  0.00     0.075 A 
HETATM    2  C   UNL     1     -42.360  57.253 -53.076  1.00  0.00     0.011 A 
HETATM    3  C   UNL     1     -41.926  55.958 -52.714  1.00  0.00     0.074 A 
HETATM    4  C   UNL     1     -41.242  55.780 -51.510  1.00  0.00     0.096 A 
HETATM    5  N   UNL     1     -40.976  56.802 -50.659  1.00  0.00    -0.250 NA
HETATM    6  C   UNL     1     -41.384  58.049 -50.992  1.00  0.00     0.048 A 
HETATM    7  C   UNL     1     -41.045  59.133 -50.010  1.00  0.00     0.071 C 
HETATM    8  C   UNL     1     -42.153  54.740 -53.538  1.00  0.00     0.260 A 
HETATM    9  O   UNL     1     -42.782  54.740 -54.588  1.00  0.00    -0.267 OA
HETATM   10  N   UNL     1     -41.619  53.563 -53.067  1.00  0.00    -0.312 N 
HETATM   11  C   UNL     1     -40.944  53.383 -51.892  1.00  0.00     0.102 A 
HETATM   12  C   UNL     1     -40.754  54.456 -51.095  1.00  0.00     0.098 A 
HETATM   13  C   UNL     1     -40.050  54.317 -49.755  1.00  0.00     0.025 C 
HETATM   14  N   UNL     1     -39.468  54.201 -48.643  1.00  0.00    -0.096 N 
HETATM   15  H   UNL     1     -41.822  52.751 -53.637  1.00  0.00     0.170 HD
ENDROOT
BRANCH  11  16
HETATM   16  N   UNL     1     -40.528  52.105 -51.613  1.00  0.00    -0.287 NA
HETATM   17  H   UNL     1     -41.232  51.394 -51.797  1.00  0.00     0.125 HD
HETATM   18  H   UNL     1     -39.619  51.839 -51.990  1.00  0.00     0.125 HD
ENDBRANCH  11  16
BRANCH   2  19
HETATM   19  C   UNL     1     -43.081  57.535 -54.328  1.00  0.00    -0.024 A 
HETATM   20  C   UNL     1     -42.381  57.850 -55.504  1.00  0.00     0.014 A 
HETATM   21  C   UNL     1     -43.066  58.127 -56.691  1.00  0.00     0.024 A 
HETATM   22  C   UNL     1     -44.457  58.100 -56.709  1.00  0.00     0.034 A 
HETATM   23 CL   UNL     1     -45.301  58.443 -58.169  1.00  0.00    -0.084 Cl
HETATM   24  C   UNL     1     -45.172  57.801 -55.552  1.00  0.00     0.024 A 
HETATM   25  C   UNL     1     -44.486  57.519 -54.367  1.00  0.00     0.014 A 
ENDBRANCH   2  19
BRANCH   1  26
HETATM   26  C   UNL     1     -42.442  59.690 -52.497  1.00  0.00     0.296 C 
HETATM   27  O   UNL     1     -41.741  60.439 -53.150  1.00  0.00    -0.259 OA
BRANCH  26  28
HETATM   28  O   UNL     1     -43.631  59.949 -51.906  1.00  0.00    -0.318 OA
BRANCH  28  29
HETATM   29  C   UNL     1     -44.532  60.796 -52.636  1.00  0.00     0.174 C 
HETATM   30  C   UNL     1     -45.948  60.295 -52.430  1.00  0.00     0.034 C 
ENDBRANCH  28  29
ENDBRANCH  26  28
ENDBRANCH   1  26
TORSDOF 5
ENDMDL
