MODEL 1
REMARK VINA RESULT:      -8.2      0.000      0.000
REMARK  8 active torsions:
REMARK  status: ('A' for Active; 'I' for Inactive)
REMARK    1  A    between atoms: C_2  and  O_3 
REMARK    2  A    between atoms: O_3  and  C_4 
REMARK    3  A    between atoms: C_4  and  C_5 
REMARK    4  A    between atoms: C_6  and  N_7 
REMARK       I    between atoms: N_7  and  C_8 
REMARK    5  A    between atoms: C_8  and  C_9 
REMARK    6  A    between atoms: C_9  and  N_10 
REMARK    7  A    between atoms: C_22  and  C_23 
REMARK    8  A    between atoms: C_26  and  N_27 
ROOT
HETATM    1  C   UNL     1     -42.311  55.684 -51.699  1.00  0.00     0.085 A 
HETATM    2  C   UNL     1     -42.393  57.065 -51.804  1.00  0.00     0.093 A 
HETATM    3  S   UNL     1     -41.483  57.699 -53.092  1.00  0.00    -0.082 SA
HETATM    4  C   UNL     1     -40.906  56.157 -53.518  1.00  0.00     0.065 A 
HETATM    5  C   UNL     1     -41.405  55.159 -52.700  1.00  0.00    -0.000 A 
ENDROOT
BRANCH   2   6
HETATM    6  N   UNL     1     -43.187  57.922 -51.046  1.00  0.00    -0.319 N 
HETATM    7  C   UNL     1     -44.403  58.392 -51.487  1.00  0.00     0.248 C 
HETATM    8  O   UNL     1     -44.842  58.293 -52.631  1.00  0.00    -0.271 OA
HETATM    9  H   UNL     1     -42.668  58.458 -50.343  1.00  0.00     0.169 HD
BRANCH   7  10
HETATM   10  C   UNL     1     -45.253  59.077 -50.424  1.00  0.00     0.337 C 
BRANCH  10  11
HETATM   11  N   UNL     1     -44.585  60.308 -49.736  1.00  0.00    -0.060 N 
HETATM   12  H   UNL     1     -43.800  59.858 -49.238  1.00  0.00     0.280 HD
HETATM   13  C   UNL     1     -45.410  60.965 -48.636  1.00  0.00     0.263 C 
HETATM   14  C   UNL     1     -46.308  62.140 -49.098  1.00  0.00     0.262 C 
HETATM   15  N   UNL     1     -45.572  63.135 -49.988  1.00  0.00    -0.072 N 
HETATM   16  H   UNL     1     -44.917  63.673 -49.403  1.00  0.00     0.279 HD
HETATM   17  C   UNL     1     -46.550  64.159 -50.541  1.00  0.00     0.269 C 
HETATM   18  C   UNL     1     -44.789  62.496 -51.128  1.00  0.00     0.262 C 
HETATM   19  C   UNL     1     -43.912  61.302 -50.673  1.00  0.00     0.263 C 
ENDBRANCH  10  11
ENDBRANCH   7  10
ENDBRANCH   2   6
BRANCH   1  20
HETATM   20  C   UNL     1     -43.032  54.970 -50.641  1.00  0.00     0.297 C 
HETATM   21  O   UNL     1     -44.256  55.040 -50.551  1.00  0.00    -0.259 OA
BRANCH  20  22
HETATM   22  O   UNL     1     -42.222  54.304 -49.781  1.00  0.00    -0.318 OA
BRANCH  22  23
HETATM   23  C   UNL     1     -41.264  55.078 -49.042  1.00  0.00     0.174 C 
HETATM   24  C   UNL     1     -40.310  54.141 -48.331  1.00  0.00     0.034 C 
ENDBRANCH  22  23
ENDBRANCH  20  22
ENDBRANCH   1  20
BRANCH   5  25
HETATM   25  C   UNL     1     -40.993  53.783 -52.947  1.00  0.00    -0.024 A 
HETATM   26  C   UNL     1     -40.143  53.137 -52.036  1.00  0.00     0.015 A 
HETATM   27  C   UNL     1     -39.706  51.833 -52.280  1.00  0.00     0.037 A 
HETATM   28  C   UNL     1     -40.127  51.170 -53.439  1.00  0.00     0.102 A 
HETATM   29  C   UNL     1     -40.979  51.806 -54.354  1.00  0.00     0.037 A 
HETATM   30  C   UNL     1     -41.407  53.114 -54.107  1.00  0.00     0.015 A 
BRANCH  28  31
HETATM   31  N   UNL     1     -39.665  49.801 -53.702  1.00  0.00    -0.116 N 
HETATM   32  O   UNL     1     -39.428  49.081 -52.723  1.00  0.00    -0.532 OA
HETATM   33  O   UNL     1     -39.545  49.456 -54.884  1.00  0.00    -0.532 OA
ENDBRANCH  28  31
ENDBRANCH   5  25
TORSDOF 8
ENDMDL
MODEL 2
REMARK VINA RESULT:      -7.7      3.290      4.651
REMARK  8 active torsions:
REMARK  status: ('A' for Active; 'I' for Inactive)
REMARK    1  A    between atoms: C_2  and  O_3 
REMARK    2  A    between atoms: O_3  and  C_4 
REMARK    3  A    between atoms: C_4  and  C_5 
REMARK    4  A    between atoms: C_6  and  N_7 
REMARK       I    between atoms: N_7  and  C_8 
REMARK    5  A    between atoms: C_8  and  C_9 
REMARK    6  A    between atoms: C_9  and  N_10 
REMARK    7  A    between atoms: C_22  and  C_23 
REMARK    8  A    between atoms: C_26  and  N_27 
ROOT
HETATM    1  C   UNL     1     -41.553  56.145 -52.906  1.00  0.00     0.085 A 
HETATM    2  C   UNL     1     -41.785  57.266 -52.122  1.00  0.00     0.093 A 
HETATM    3  S   UNL     1     -41.254  57.089 -50.517  1.00  0.00    -0.082 SA
HETATM    4  C   UNL     1     -40.746  55.491 -50.801  1.00  0.00     0.065 A 
HETATM    5  C   UNL     1     -40.964  55.089 -52.107  1.00  0.00    -0.000 A 
ENDROOT
BRANCH   2   6
HETATM    6  N   UNL     1     -42.302  58.491 -52.535  1.00  0.00    -0.319 N 
HETATM    7  C   UNL     1     -41.537  59.443 -53.170  1.00  0.00     0.248 C 
HETATM    8  O   UNL     1     -40.312  59.433 -53.272  1.00  0.00    -0.271 OA
HETATM    9  H   UNL     1     -43.143  58.782 -52.027  1.00  0.00     0.169 HD
BRANCH   7  10
HETATM   10  C   UNL     1     -42.324  60.587 -53.799  1.00  0.00     0.337 C 
BRANCH  10  11
HETATM   11  N   UNL     1     -42.229  60.678 -55.354  1.00  0.00    -0.060 N 
HETATM   12  H   UNL     1     -41.268  61.035 -55.476  1.00  0.00     0.280 HD
HETATM   13  C   UNL     1     -43.116  61.736 -55.999  1.00  0.00     0.263 C 
HETATM   14  C   UNL     1     -44.512  61.239 -56.453  1.00  0.00     0.262 C 
HETATM   15  N   UNL     1     -44.451  59.932 -57.234  1.00  0.00    -0.072 N 
HETATM   16  H   UNL     1     -44.056  60.128 -58.166  1.00  0.00     0.279 HD
HETATM   17  C   UNL     1     -45.857  59.417 -57.496  1.00  0.00     0.269 C 
HETATM   18  C   UNL     1     -43.614  58.844 -56.574  1.00  0.00     0.262 C 
HETATM   19  C   UNL     1     -42.229  59.346 -56.093  1.00  0.00     0.263 C 
ENDBRANCH  10  11
ENDBRANCH   7  10
ENDBRANCH   2   6
BRANCH   1  20
HETATM   20  C   UNL     1     -41.949  56.123 -54.317  1.00  0.00     0.297 C 
HETATM   21  O   UNL     1     -41.116  56.253 -55.211  1.00  0.00    -0.259 OA
BRANCH  20  22
HETATM   22  O   UNL     1     -43.287  56.009 -54.506  1.00  0.00    -0.318 OA
BRANCH  22  23
HETATM   23  C   UNL     1     -43.853  54.690 -54.450  1.00  0.00     0.174 C 
HETATM   24  C   UNL     1     -43.464  53.930 -55.702  1.00  0.00     0.034 C 
ENDBRANCH  22  23
ENDBRANCH  20  22
ENDBRANCH   1  20
BRANCH   5  25
HETATM   25  C   UNL     1     -40.579  53.739 -52.495  1.00  0.00    -0.024 A 
HETATM   26  C   UNL     1     -40.615  53.366 -53.848  1.00  0.00     0.015 A 
HETATM   27  C   UNL     1     -40.289  52.064 -54.232  1.00  0.00     0.037 A 
HETATM   28  C   UNL     1     -39.918  51.130 -53.257  1.00  0.00     0.102 A 
HETATM   29  C   UNL     1     -39.875  51.493 -51.903  1.00  0.00     0.037 A 
HETATM   30  C   UNL     1     -40.210  52.797 -51.525  1.00  0.00     0.015 A 
BRANCH  28  31
HETATM   31  N   UNL     1     -39.580  49.758 -53.655  1.00  0.00    -0.116 N 
HETATM   32  O   UNL     1     -39.344  48.942 -52.754  1.00  0.00    -0.532 OA
HETATM   33  O   UNL     1     -39.555  49.505 -54.867  1.00  0.00    -0.532 OA
ENDBRANCH  28  31
ENDBRANCH   5  25
TORSDOF 8
ENDMDL
MODEL 3
REMARK VINA RESULT:      -7.5      1.612      2.901
REMARK  8 active torsions:
REMARK  status: ('A' for Active; 'I' for Inactive)
REMARK    1  A    between atoms: C_2  and  O_3 
REMARK    2  A    between atoms: O_3  and  C_4 
REMARK    3  A    between atoms: C_4  and  C_5 
REMARK    4  A    between atoms: C_6  and  N_7 
REMARK       I    between atoms: N_7  and  C_8 
REMARK    5  A    between atoms: C_8  and  C_9 
REMARK    6  A    between atoms: C_9  and  N_10 
REMARK    7  A    between atoms: C_22  and  C_23 
REMARK    8  A    between atoms: C_26  and  N_27 
ROOT
HETATM    1  C   UNL     1     -42.344  55.828 -52.602  1.00  0.00     0.085 A 
HETATM    2  C   UNL     1     -42.482  56.991 -51.857  1.00  0.00     0.093 A 
HETATM    3  S   UNL     1     -41.359  57.117 -50.588  1.00  0.00    -0.082 SA
HETATM    4  C   UNL     1     -40.687  55.599 -50.957  1.00  0.00     0.065 A 
HETATM    5  C   UNL     1     -41.298  54.997 -52.042  1.00  0.00    -0.000 A 
ENDROOT
BRANCH   2   6
HETATM    6  N   UNL     1     -43.352  58.051 -52.102  1.00  0.00    -0.319 N 
HETATM    7  C   UNL     1     -44.555  58.190 -51.447  1.00  0.00     0.248 C 
HETATM    8  O   UNL     1     -45.096  57.338 -50.745  1.00  0.00    -0.271 OA
HETATM    9  H   UNL     1     -43.228  58.489 -53.020  1.00  0.00     0.169 HD
BRANCH   7  10
HETATM   10  C   UNL     1     -45.235  59.542 -51.629  1.00  0.00     0.337 C 
BRANCH  10  11
HETATM   11  N   UNL     1     -44.322  60.781 -51.371  1.00  0.00    -0.060 N 
HETATM   12  H   UNL     1     -43.489  60.535 -51.930  1.00  0.00     0.280 HD
HETATM   13  C   UNL     1     -43.801  60.919 -49.946  1.00  0.00     0.263 C 
HETATM   14  C   UNL     1     -44.672  61.792 -49.008  1.00  0.00     0.262 C 
HETATM   15  N   UNL     1     -45.082  63.116 -49.641  1.00  0.00    -0.072 N 
HETATM   16  H   UNL     1     -44.254  63.728 -49.682  1.00  0.00     0.279 HD
HETATM   17  C   UNL     1     -46.069  63.840 -48.739  1.00  0.00     0.269 C 
HETATM   18  C   UNL     1     -45.658  62.989 -51.045  1.00  0.00     0.262 C 
HETATM   19  C   UNL     1     -44.804  62.093 -51.977  1.00  0.00     0.263 C 
ENDBRANCH  10  11
ENDBRANCH   7  10
ENDBRANCH   2   6
BRANCH   1  20
HETATM   20  C   UNL     1     -43.233  55.556 -53.735  1.00  0.00     0.297 C 
HETATM   21  O   UNL     1     -43.956  54.561 -53.748  1.00  0.00    -0.259 OA
BRANCH  20  22
HETATM   22  O   UNL     1     -43.124  56.455 -54.743  1.00  0.00    -0.318 OA
BRANCH  22  23
HETATM   23  C   UNL     1     -42.142  56.193 -55.759  1.00  0.00     0.174 C 
HETATM   24  C   UNL     1     -42.792  55.422 -56.890  1.00  0.00     0.034 C 
ENDBRANCH  22  23
ENDBRANCH  20  22
ENDBRANCH   1  20
BRANCH   5  25
HETATM   25  C   UNL     1     -40.826  53.687 -52.472  1.00  0.00    -0.024 A 
HETATM   26  C   UNL     1     -40.947  53.311 -53.819  1.00  0.00     0.015 A 
HETATM   27  C   UNL     1     -40.538  52.044 -54.238  1.00  0.00     0.037 A 
HETATM   28  C   UNL     1     -39.998  51.149 -53.305  1.00  0.00     0.102 A 
HETATM   29  C   UNL     1     -39.868  51.517 -51.958  1.00  0.00     0.037 A 
HETATM   30  C   UNL     1     -40.288  52.786 -51.544  1.00  0.00     0.015 A 
BRANCH  28  31
HETATM   31  N   UNL     1     -39.571  49.814 -53.741  1.00  0.00    -0.116 N 
HETATM   32  O   UNL     1     -39.517  49.601 -54.960  1.00  0.00    -0.532 OA
HETATM   33  O   UNL     1     -39.292  48.988 -52.862  1.00  0.00    -0.532 OA
ENDBRANCH  28  31
ENDBRANCH   5  25
TORSDOF 8
ENDMDL
MODEL 4
REMARK VINA RESULT:      -7.3      2.160      2.808
REMARK  8 active torsions:
REMARK  status: ('A' for Active; 'I' for Inactive)
REMARK    1  A    between atoms: C_2  and  O_3 
REMARK    2  A    between atoms: O_3  and  C_4 
REMARK    3  A    between atoms: C_4  and  C_5 
REMARK    4  A    between atoms: C_6  and  N_7 
REMARK       I    between atoms: N_7  and  C_8 
REMARK    5  A    between atoms: C_8  and  C_9 
REMARK    6  A    between atoms: C_9  and  N_10 
REMARK    7  A    between atoms: C_22  and  C_23 
REMARK    8  A    between atoms: C_26  and  N_27 
ROOT
HETATM    1  C   UNL     1     -41.914  56.159 -53.415  1.00  0.00     0.085 A 
HETATM    2  C   UNL     1     -42.338  57.138 -54.304  1.00  0.00     0.093 A 
HETATM    3  S   UNL     1     -42.272  56.646 -55.930  1.00  0.00    -0.082 SA
HETATM    4  C   UNL     1     -41.626  55.132 -55.505  1.00  0.00     0.065 A 
HETATM    5  C   UNL     1     -41.467  54.986 -54.138  1.00  0.00    -0.000 A 
ENDROOT
BRANCH   2   6
HETATM    6  N   UNL     1     -42.871  58.385 -53.993  1.00  0.00    -0.319 N 
HETATM    7  C   UNL     1     -42.105  59.527 -53.940  1.00  0.00     0.248 C 
HETATM    8  O   UNL     1     -40.877  59.573 -53.956  1.00  0.00    -0.271 OA
HETATM    9  H   UNL     1     -43.746  58.344 -53.460  1.00  0.00     0.169 HD
BRANCH   7  10
HETATM   10  C   UNL     1     -42.894  60.830 -53.868  1.00  0.00     0.337 C 
BRANCH  10  11
HETATM   11  N   UNL     1     -42.870  61.541 -52.480  1.00  0.00    -0.060 N 
HETATM   12  H   UNL     1     -41.856  61.565 -52.284  1.00  0.00     0.280 HD
HETATM   13  C   UNL     1     -43.463  60.740 -51.328  1.00  0.00     0.263 C 
HETATM   14  C   UNL     1     -44.966  60.996 -51.052  1.00  0.00     0.262 C 
HETATM   15  N   UNL     1     -45.318  62.478 -51.011  1.00  0.00    -0.072 N 
HETATM   16  H   UNL     1     -44.940  62.879 -50.141  1.00  0.00     0.279 HD
HETATM   17  C   UNL     1     -46.825  62.652 -50.911  1.00  0.00     0.269 C 
HETATM   18  C   UNL     1     -44.779  63.284 -52.187  1.00  0.00     0.262 C 
HETATM   19  C   UNL     1     -43.284  63.007 -52.483  1.00  0.00     0.263 C 
ENDBRANCH  10  11
ENDBRANCH   7  10
ENDBRANCH   2   6
BRANCH   1  20
HETATM   20  C   UNL     1     -41.903  56.414 -51.972  1.00  0.00     0.297 C 
HETATM   21  O   UNL     1     -42.802  55.991 -51.247  1.00  0.00    -0.259 OA
BRANCH  20  22
HETATM   22  O   UNL     1     -40.866  57.184 -51.562  1.00  0.00    -0.318 OA
BRANCH  22  23
HETATM   23  C   UNL     1     -41.107  58.096 -50.478  1.00  0.00     0.174 C 
HETATM   24  C   UNL     1     -40.112  59.236 -50.556  1.00  0.00     0.034 C 
ENDBRANCH  22  23
ENDBRANCH  20  22
ENDBRANCH   1  20
BRANCH   5  25
HETATM   25  C   UNL     1     -40.919  53.737 -53.628  1.00  0.00    -0.024 A 
HETATM   26  C   UNL     1     -40.761  52.642 -54.492  1.00  0.00     0.015 A 
HETATM   27  C   UNL     1     -40.276  51.424 -54.010  1.00  0.00     0.037 A 
HETATM   28  C   UNL     1     -39.941  51.303 -52.655  1.00  0.00     0.102 A 
HETATM   29  C   UNL     1     -40.091  52.393 -51.785  1.00  0.00     0.037 A 
HETATM   30  C   UNL     1     -40.585  53.607 -52.273  1.00  0.00     0.015 A 
BRANCH  28  31
HETATM   31  N   UNL     1     -39.437  50.024 -52.143  1.00  0.00    -0.116 N 
HETATM   32  O   UNL     1     -39.347  49.083 -52.943  1.00  0.00    -0.532 OA
HETATM   33  O   UNL     1     -39.131  49.968 -50.944  1.00  0.00    -0.532 OA
ENDBRANCH  28  31
ENDBRANCH   5  25
TORSDOF 8
ENDMDL
MODEL 5
REMARK VINA RESULT:      -7.3      2.944      4.171
REMARK  8 active torsions:
REMARK  status: ('A' for Active; 'I' for Inactive)
REMARK    1  A    between atoms: C_2  and  O_3 
REMARK    2  A    between atoms: O_3  and  C_4 
REMARK    3  A    between atoms: C_4  and  C_5 
REMARK    4  A    between atoms: C_6  and  N_7 
REMARK       I    between atoms: N_7  and  C_8 
REMARK    5  A    between atoms: C_8  and  C_9 
REMARK    6  A    between atoms: C_9  and  N_10 
REMARK    7  A    between atoms: C_22  and  C_23 
REMARK    8  A    between atoms: C_26  and  N_27 
ROOT
HETATM    1  C   UNL     1     -41.937  56.050 -52.766  1.00  0.00     0.085 A 
HETATM    2  C   UNL     1     -42.092  57.193 -51.995  1.00  0.00     0.093 A 
HETATM    3  S   UNL     1     -41.203  57.154 -50.546  1.00  0.00    -0.082 SA
HETATM    4  C   UNL     1     -40.626  55.589 -50.875  1.00  0.00     0.065 A 
HETATM    5  C   UNL     1     -41.091  55.094 -52.081  1.00  0.00    -0.000 A 
ENDROOT
BRANCH   2   6
HETATM    6  N   UNL     1     -42.798  58.346 -52.328  1.00  0.00    -0.319 N 
HETATM    7  C   UNL     1     -42.218  59.408 -52.984  1.00  0.00     0.248 C 
HETATM    8  O   UNL     1     -41.014  59.567 -53.174  1.00  0.00    -0.271 OA
HETATM    9  H   UNL     1     -43.629  58.507 -51.751  1.00  0.00     0.169 HD
BRANCH   7  10
HETATM   10  C   UNL     1     -43.196  60.449 -53.516  1.00  0.00     0.337 C 
BRANCH  10  11
HETATM   11  N   UNL     1     -44.663  59.949 -53.689  1.00  0.00    -0.060 N 
HETATM   12  H   UNL     1     -44.706  59.200 -52.979  1.00  0.00     0.280 HD
HETATM   13  C   UNL     1     -44.958  59.244 -55.008  1.00  0.00     0.263 C 
HETATM   14  C   UNL     1     -45.496  60.157 -56.138  1.00  0.00     0.262 C 
HETATM   15  N   UNL     1     -46.616  61.079 -55.673  1.00  0.00    -0.072 N 
HETATM   16  H   UNL     1     -47.465  60.513 -55.528  1.00  0.00     0.279 HD
HETATM   17  C   UNL     1     -46.974  62.060 -56.779  1.00  0.00     0.269 C 
HETATM   18  C   UNL     1     -46.313  61.836 -54.386  1.00  0.00     0.262 C 
HETATM   19  C   UNL     1     -45.749  60.929 -53.263  1.00  0.00     0.263 C 
ENDBRANCH  10  11
ENDBRANCH   7  10
ENDBRANCH   2   6
BRANCH   1  20
HETATM   20  C   UNL     1     -42.633  55.913 -54.049  1.00  0.00     0.297 C 
HETATM   21  O   UNL     1     -43.624  55.193 -54.158  1.00  0.00    -0.259 OA
BRANCH  20  22
HETATM   22  O   UNL     1     -42.048  56.596 -55.063  1.00  0.00    -0.318 OA
BRANCH  22  23
HETATM   23  C   UNL     1     -42.528  56.344 -56.393  1.00  0.00     0.174 C 
HETATM   24  C   UNL     1     -42.462  57.627 -57.197  1.00  0.00     0.034 C 
ENDBRANCH  22  23
ENDBRANCH  20  22
ENDBRANCH   1  20
BRANCH   5  25
HETATM   25  C   UNL     1     -40.679  53.759 -52.493  1.00  0.00    -0.024 A 
HETATM   26  C   UNL     1     -40.699  53.413 -53.853  1.00  0.00     0.015 A 
HETATM   27  C   UNL     1     -40.347  52.125 -54.260  1.00  0.00     0.037 A 
HETATM   28  C   UNL     1     -39.967  51.178 -53.301  1.00  0.00     0.102 A 
HETATM   29  C   UNL     1     -39.940  51.514 -51.940  1.00  0.00     0.037 A 
HETATM   30  C   UNL     1     -40.301  52.805 -51.539  1.00  0.00     0.015 A 
BRANCH  28  31
HETATM   31  N   UNL     1     -39.601  49.820 -53.724  1.00  0.00    -0.116 N 
HETATM   32  O   UNL     1     -39.603  49.581 -54.940  1.00  0.00    -0.532 OA
HETATM   33  O   UNL     1     -39.314  49.004 -52.840  1.00  0.00    -0.532 OA
ENDBRANCH  28  31
ENDBRANCH   5  25
TORSDOF 8
ENDMDL
MODEL 6
REMARK VINA RESULT:      -7.1      2.256      3.365
REMARK  8 active torsions:
REMARK  status: ('A' for Active; 'I' for Inactive)
REMARK    1  A    between atoms: C_2  and  O_3 
REMARK    2  A    between atoms: O_3  and  C_4 
REMARK    3  A    between atoms: C_4  and  C_5 
REMARK    4  A    between atoms: C_6  and  N_7 
REMARK       I    between atoms: N_7  and  C_8 
REMARK    5  A    between atoms: C_8  and  C_9 
REMARK    6  A    between atoms: C_9  and  N_10 
REMARK    7  A    between atoms: C_22  and  C_23 
REMARK    8  A    between atoms: C_26  and  N_27 
ROOT
HETATM    1  C   UNL     1     -41.576  56.043 -52.683  1.00  0.00     0.085 A 
HETATM    2  C   UNL     1     -41.829  57.137 -51.868  1.00  0.00     0.093 A 
HETATM    3  S   UNL     1     -41.299  56.923 -50.267  1.00  0.00    -0.082 SA
HETATM    4  C   UNL     1     -40.765  55.343 -50.595  1.00  0.00     0.065 A 
HETATM    5  C   UNL     1     -40.973  54.974 -51.913  1.00  0.00    -0.000 A 
ENDROOT
BRANCH   2   6
HETATM    6  N   UNL     1     -42.364  58.365 -52.248  1.00  0.00    -0.319 N 
HETATM    7  C   UNL     1     -41.599  59.371 -52.793  1.00  0.00     0.248 C 
HETATM    8  O   UNL     1     -40.371  59.405 -52.827  1.00  0.00    -0.271 OA
HETATM    9  H   UNL     1     -43.240  58.603 -51.773  1.00  0.00     0.169 HD
BRANCH   7  10
HETATM   10  C   UNL     1     -42.389  60.521 -53.407  1.00  0.00     0.337 C 
BRANCH  10  11
HETATM   11  N   UNL     1     -42.960  61.552 -52.384  1.00  0.00    -0.060 N 
HETATM   12  H   UNL     1     -42.186  61.606 -51.702  1.00  0.00     0.280 HD
HETATM   13  C   UNL     1     -44.154  61.068 -51.570  1.00  0.00     0.263 C 
HETATM   14  C   UNL     1     -45.542  61.408 -52.170  1.00  0.00     0.262 C 
HETATM   15  N   UNL     1     -45.654  62.860 -52.618  1.00  0.00    -0.072 N 
HETATM   16  H   UNL     1     -45.708  63.456 -51.779  1.00  0.00     0.279 HD
HETATM   17  C   UNL     1     -46.970  63.078 -53.348  1.00  0.00     0.269 C 
HETATM   18  C   UNL     1     -44.495  63.343 -53.480  1.00  0.00     0.262 C 
HETATM   19  C   UNL     1     -43.107  62.979 -52.897  1.00  0.00     0.263 C 
ENDBRANCH  10  11
ENDBRANCH   7  10
ENDBRANCH   2   6
BRANCH   1  20
HETATM   20  C   UNL     1     -41.969  56.055 -54.095  1.00  0.00     0.297 C 
HETATM   21  O   UNL     1     -41.136  56.230 -54.983  1.00  0.00    -0.259 OA
BRANCH  20  22
HETATM   22  O   UNL     1     -43.303  55.917 -54.292  1.00  0.00    -0.318 OA
BRANCH  22  23
HETATM   23  C   UNL     1     -43.819  54.582 -54.414  1.00  0.00     0.174 C 
HETATM   24  C   UNL     1     -43.370  53.994 -55.736  1.00  0.00     0.034 C 
ENDBRANCH  22  23
ENDBRANCH  20  22
ENDBRANCH   1  20
BRANCH   5  25
HETATM   25  C   UNL     1     -40.565  53.642 -52.338  1.00  0.00    -0.024 A 
HETATM   26  C   UNL     1     -40.532  53.327 -53.706  1.00  0.00     0.015 A 
HETATM   27  C   UNL     1     -40.183  52.042 -54.127  1.00  0.00     0.037 A 
HETATM   28  C   UNL     1     -39.860  51.068 -53.175  1.00  0.00     0.102 A 
HETATM   29  C   UNL     1     -39.886  51.373 -51.806  1.00  0.00     0.037 A 
HETATM   30  C   UNL     1     -40.244  52.660 -51.391  1.00  0.00     0.015 A 
BRANCH  28  31
HETATM   31  N   UNL     1     -39.499  49.714 -53.614  1.00  0.00    -0.116 N 
HETATM   32  O   UNL     1     -39.438  49.506 -54.833  1.00  0.00    -0.532 OA
HETATM   33  O   UNL     1     -39.276  48.869 -52.737  1.00  0.00    -0.532 OA
ENDBRANCH  28  31
ENDBRANCH   5  25
TORSDOF 8
ENDMDL
MODEL 7
REMARK VINA RESULT:      -6.9      1.340      2.059
REMARK  8 active torsions:
REMARK  status: ('A' for Active; 'I' for Inactive)
REMARK    1  A    between atoms: C_2  and  O_3 
REMARK    2  A    between atoms: O_3  and  C_4 
REMARK    3  A    between atoms: C_4  and  C_5 
REMARK    4  A    between atoms: C_6  and  N_7 
REMARK       I    between atoms: N_7  and  C_8 
REMARK    5  A    between atoms: C_8  and  C_9 
REMARK    6  A    between atoms: C_9  and  N_10 
REMARK    7  A    between atoms: C_22  and  C_23 
REMARK    8  A    between atoms: C_26  and  N_27 
ROOT
HETATM    1  C   UNL     1     -41.502  56.269 -52.537  1.00  0.00     0.085 A 
HETATM    2  C   UNL     1     -41.843  57.475 -53.135  1.00  0.00     0.093 A 
HETATM    3  S   UNL     1     -41.829  57.412 -54.833  1.00  0.00    -0.082 SA
HETATM    4  C   UNL     1     -41.315  55.792 -54.827  1.00  0.00     0.065 A 
HETATM    5  C   UNL     1     -41.163  55.288 -53.547  1.00  0.00    -0.000 A 
ENDROOT
BRANCH   2   6
HETATM    6  N   UNL     1     -42.263  58.641 -52.501  1.00  0.00    -0.319 N 
HETATM    7  C   UNL     1     -43.582  58.884 -52.194  1.00  0.00     0.248 C 
HETATM    8  O   UNL     1     -44.547  58.239 -52.597  1.00  0.00    -0.271 OA
HETATM    9  H   UNL     1     -41.620  59.431 -52.613  1.00  0.00     0.169 HD
BRANCH   7  10
HETATM   10  C   UNL     1     -43.819  60.063 -51.257  1.00  0.00     0.337 C 
BRANCH  10  11
HETATM   11  N   UNL     1     -45.299  60.262 -50.806  1.00  0.00    -0.060 N 
HETATM   12  H   UNL     1     -45.688  59.321 -50.974  1.00  0.00     0.280 HD
HETATM   13  C   UNL     1     -46.130  61.184 -51.690  1.00  0.00     0.263 C 
HETATM   14  C   UNL     1     -46.154  62.671 -51.254  1.00  0.00     0.262 C 
HETATM   15  N   UNL     1     -46.421  62.847 -49.764  1.00  0.00    -0.072 N 
HETATM   16  H   UNL     1     -47.411  62.626 -49.582  1.00  0.00     0.279 HD
HETATM   17  C   UNL     1     -46.260  64.308 -49.377  1.00  0.00     0.269 C 
HETATM   18  C   UNL     1     -45.558  61.973 -48.863  1.00  0.00     0.262 C 
HETATM   19  C   UNL     1     -45.509  60.492 -49.315  1.00  0.00     0.263 C 
ENDBRANCH  10  11
ENDBRANCH   7  10
ENDBRANCH   2   6
BRANCH   1  20
HETATM   20  C   UNL     1     -41.461  56.144 -51.077  1.00  0.00     0.297 C 
HETATM   21  O   UNL     1     -40.700  56.835 -50.403  1.00  0.00    -0.259 OA
BRANCH  20  22
HETATM   22  O   UNL     1     -42.279  55.179 -50.589  1.00  0.00    -0.318 OA
BRANCH  22  23
HETATM   23  C   UNL     1     -43.603  55.094 -51.141  1.00  0.00     0.174 C 
HETATM   24  C   UNL     1     -44.461  54.227 -50.241  1.00  0.00     0.034 C 
ENDBRANCH  22  23
ENDBRANCH  20  22
ENDBRANCH   1  20
BRANCH   5  25
HETATM   25  C   UNL     1     -40.724  53.908 -53.388  1.00  0.00    -0.024 A 
HETATM   26  C   UNL     1     -40.851  53.009 -54.458  1.00  0.00     0.015 A 
HETATM   27  C   UNL     1     -40.473  51.673 -54.308  1.00  0.00     0.037 A 
HETATM   28  C   UNL     1     -39.960  51.235 -53.081  1.00  0.00     0.102 A 
HETATM   29  C   UNL     1     -39.826  52.126 -52.006  1.00  0.00     0.037 A 
HETATM   30  C   UNL     1     -40.213  53.461 -52.161  1.00  0.00     0.015 A 
BRANCH  28  31
HETATM   31  N   UNL     1     -39.568  49.830 -52.918  1.00  0.00    -0.116 N 
HETATM   32  O   UNL     1     -39.620  49.351 -51.777  1.00  0.00    -0.532 OA
HETATM   33  O   UNL     1     -39.212  49.214 -53.931  1.00  0.00    -0.532 OA
ENDBRANCH  28  31
ENDBRANCH   5  25
TORSDOF 8
ENDMDL
MODEL 8
REMARK VINA RESULT:      -6.9      5.002      6.838
REMARK  8 active torsions:
REMARK  status: ('A' for Active; 'I' for Inactive)
REMARK    1  A    between atoms: C_2  and  O_3 
REMARK    2  A    between atoms: O_3  and  C_4 
REMARK    3  A    between atoms: C_4  and  C_5 
REMARK    4  A    between atoms: C_6  and  N_7 
REMARK       I    between atoms: N_7  and  C_8 
REMARK    5  A    between atoms: C_8  and  C_9 
REMARK    6  A    between atoms: C_9  and  N_10 
REMARK    7  A    between atoms: C_22  and  C_23 
REMARK    8  A    between atoms: C_26  and  N_27 
ROOT
HETATM    1  C   UNL     1     -43.230  56.609 -54.823  1.00  0.00     0.085 A 
HETATM    2  C   UNL     1     -43.479  56.869 -56.163  1.00  0.00     0.093 A 
HETATM    3  S   UNL     1     -42.965  55.624 -57.199  1.00  0.00    -0.082 SA
HETATM    4  C   UNL     1     -42.344  54.721 -55.899  1.00  0.00     0.065 A 
HETATM    5  C   UNL     1     -42.531  55.348 -54.680  1.00  0.00    -0.000 A 
ENDROOT
BRANCH   2   6
HETATM    6  N   UNL     1     -44.161  57.960 -56.697  1.00  0.00    -0.319 N 
HETATM    7  C   UNL     1     -43.517  59.009 -57.312  1.00  0.00     0.248 C 
HETATM    8  O   UNL     1     -42.306  59.221 -57.295  1.00  0.00    -0.271 OA
HETATM    9  H   UNL     1     -45.090  58.111 -56.291  1.00  0.00     0.169 HD
BRANCH   7  10
HETATM   10  C   UNL     1     -44.425  59.961 -58.081  1.00  0.00     0.337 C 
BRANCH  10  11
HETATM   11  N   UNL     1     -44.595  59.633 -59.597  1.00  0.00    -0.060 N 
HETATM   12  H   UNL     1     -44.649  60.581 -60.003  1.00  0.00     0.280 HD
HETATM   13  C   UNL     1     -45.917  58.977 -59.976  1.00  0.00     0.263 C 
HETATM   14  C   UNL     1     -45.904  57.428 -59.991  1.00  0.00     0.262 C 
HETATM   15  N   UNL     1     -44.701  56.851 -60.728  1.00  0.00    -0.072 N 
HETATM   16  H   UNL     1     -44.834  57.005 -61.738  1.00  0.00     0.279 HD
HETATM   17  C   UNL     1     -44.661  55.341 -60.555  1.00  0.00     0.269 C 
HETATM   18  C   UNL     1     -43.365  57.457 -60.318  1.00  0.00     0.262 C 
HETATM   19  C   UNL     1     -43.383  59.006 -60.275  1.00  0.00     0.263 C 
ENDBRANCH  10  11
ENDBRANCH   7  10
ENDBRANCH   2   6
BRANCH   1  20
HETATM   20  C   UNL     1     -43.607  57.578 -53.790  1.00  0.00     0.297 C 
HETATM   21  O   UNL     1     -44.642  57.441 -53.141  1.00  0.00    -0.259 OA
BRANCH  20  22
HETATM   22  O   UNL     1     -42.750  58.623 -53.683  1.00  0.00    -0.318 OA
BRANCH  22  23
HETATM   23  C   UNL     1     -41.808  58.597 -52.599  1.00  0.00     0.174 C 
HETATM   24  C   UNL     1     -40.406  58.485 -53.162  1.00  0.00     0.034 C 
ENDBRANCH  22  23
ENDBRANCH  20  22
ENDBRANCH   1  20
BRANCH   5  25
HETATM   25  C   UNL     1     -42.045  54.689 -53.474  1.00  0.00    -0.024 A 
HETATM   26  C   UNL     1     -40.742  54.169 -53.443  1.00  0.00     0.015 A 
HETATM   27  C   UNL     1     -40.276  53.499 -52.310  1.00  0.00     0.037 A 
HETATM   28  C   UNL     1     -41.117  53.353 -51.200  1.00  0.00     0.102 A 
HETATM   29  C   UNL     1     -42.420  53.872 -51.220  1.00  0.00     0.037 A 
HETATM   30  C   UNL     1     -42.882  54.536 -52.361  1.00  0.00     0.015 A 
BRANCH  28  31
HETATM   31  N   UNL     1     -40.633  52.643 -50.009  1.00  0.00    -0.116 N 
HETATM   32  O   UNL     1     -40.626  53.264 -48.937  1.00  0.00    -0.532 OA
HETATM   33  O   UNL     1     -40.265  51.470 -50.153  1.00  0.00    -0.532 OA
ENDBRANCH  28  31
ENDBRANCH   5  25
TORSDOF 8
ENDMDL
MODEL 9
REMARK VINA RESULT:      -6.8      4.821      6.021
REMARK  8 active torsions:
REMARK  status: ('A' for Active; 'I' for Inactive)
REMARK    1  A    between atoms: C_2  and  O_3 
REMARK    2  A    between atoms: O_3  and  C_4 
REMARK    3  A    between atoms: C_4  and  C_5 
REMARK    4  A    between atoms: C_6  and  N_7 
REMARK       I    between atoms: N_7  and  C_8 
REMARK    5  A    between atoms: C_8  and  C_9 
REMARK    6  A    between atoms: C_9  and  N_10 
REMARK    7  A    between atoms: C_22  and  C_23 
REMARK    8  A    between atoms: C_26  and  N_27 
ROOT
HETATM    1  C   UNL     1     -42.153  55.717 -54.740  1.00  0.00     0.085 A 
HETATM    2  C   UNL     1     -42.370  57.085 -54.644  1.00  0.00     0.093 A 
HETATM    3  S   UNL     1     -41.578  57.803 -53.323  1.00  0.00    -0.082 SA
HETATM    4  C   UNL     1     -40.963  56.305 -52.804  1.00  0.00     0.065 A 
HETATM    5  C   UNL     1     -41.343  55.261 -53.629  1.00  0.00    -0.000 A 
ENDROOT
BRANCH   2   6
HETATM    6  N   UNL     1     -43.066  57.892 -55.540  1.00  0.00    -0.319 N 
HETATM    7  C   UNL     1     -44.424  58.099 -55.452  1.00  0.00     0.248 C 
HETATM    8  O   UNL     1     -45.204  57.473 -54.737  1.00  0.00    -0.271 OA
HETATM    9  H   UNL     1     -42.599  58.011 -56.444  1.00  0.00     0.169 HD
BRANCH   7  10
HETATM   10  C   UNL     1     -44.963  59.224 -56.328  1.00  0.00     0.337 C 
BRANCH  10  11
HETATM   11  N   UNL     1     -44.846  58.979 -57.864  1.00  0.00    -0.060 N 
HETATM   12  H   UNL     1     -43.999  58.390 -57.910  1.00  0.00     0.280 HD
HETATM   13  C   UNL     1     -44.503  60.209 -58.696  1.00  0.00     0.263 C 
HETATM   14  C   UNL     1     -45.721  60.986 -59.256  1.00  0.00     0.262 C 
HETATM   15  N   UNL     1     -46.756  60.077 -59.907  1.00  0.00    -0.072 N 
HETATM   16  H   UNL     1     -46.375  59.737 -60.802  1.00  0.00     0.279 HD
HETATM   17  C   UNL     1     -47.993  60.879 -60.277  1.00  0.00     0.269 C 
HETATM   18  C   UNL     1     -47.152  58.871 -59.063  1.00  0.00     0.262 C 
HETATM   19  C   UNL     1     -45.937  58.110 -58.478  1.00  0.00     0.263 C 
ENDBRANCH  10  11
ENDBRANCH   7  10
ENDBRANCH   2   6
BRANCH   1  20
HETATM   20  C   UNL     1     -42.763  54.937 -55.820  1.00  0.00     0.297 C 
HETATM   21  O   UNL     1     -43.539  54.015 -55.575  1.00  0.00    -0.259 OA
BRANCH  20  22
HETATM   22  O   UNL     1     -42.343  55.297 -57.058  1.00  0.00    -0.318 OA
BRANCH  22  23
HETATM   23  C   UNL     1     -43.339  55.413 -58.086  1.00  0.00     0.174 C 
HETATM   24  C   UNL     1     -42.786  56.249 -59.222  1.00  0.00     0.034 C 
ENDBRANCH  22  23
ENDBRANCH  20  22
ENDBRANCH   1  20
BRANCH   5  25
HETATM   25  C   UNL     1     -40.890  53.914 -53.304  1.00  0.00    -0.024 A 
HETATM   26  C   UNL     1     -40.695  53.551 -51.963  1.00  0.00     0.015 A 
HETATM   27  C   UNL     1     -40.221  52.278 -51.638  1.00  0.00     0.037 A 
HETATM   28  C   UNL     1     -39.948  51.361 -52.660  1.00  0.00     0.102 A 
HETATM   29  C   UNL     1     -40.144  51.714 -54.004  1.00  0.00     0.037 A 
HETATM   30  C   UNL     1     -40.611  52.993 -54.323  1.00  0.00     0.015 A 
BRANCH  28  31
HETATM   31  N   UNL     1     -39.444  50.024 -52.323  1.00  0.00    -0.116 N 
HETATM   32  O   UNL     1     -39.358  49.197 -53.241  1.00  0.00    -0.532 OA
HETATM   33  O   UNL     1     -39.137  49.810 -51.143  1.00  0.00    -0.532 OA
ENDBRANCH  28  31
ENDBRANCH   5  25
TORSDOF 8
ENDMDL
MODEL 10
REMARK VINA RESULT:      -6.7      2.753      3.263
REMARK  8 active torsions:
REMARK  status: ('A' for Active; 'I' for Inactive)
REMARK    1  A    between atoms: C_2  and  O_3 
REMARK    2  A    between atoms: O_3  and  C_4 
REMARK    3  A    between atoms: C_4  and  C_5 
REMARK    4  A    between atoms: C_6  and  N_7 
REMARK       I    between atoms: N_7  and  C_8 
REMARK    5  A    between atoms: C_8  and  C_9 
REMARK    6  A    between atoms: C_9  and  N_10 
REMARK    7  A    between atoms: C_22  and  C_23 
REMARK    8  A    between atoms: C_26  and  N_27 
ROOT
HETATM    1  C   UNL     1     -42.250  55.944 -52.987  1.00  0.00     0.085 A 
HETATM    2  C   UNL     1     -42.434  57.133 -53.680  1.00  0.00     0.093 A 
HETATM    3  S   UNL     1     -41.702  57.138 -55.214  1.00  0.00    -0.082 SA
HETATM    4  C   UNL     1     -41.070  55.577 -54.982  1.00  0.00     0.065 A 
HETATM    5  C   UNL     1     -41.416  55.041 -53.754  1.00  0.00    -0.000 A 
ENDROOT
BRANCH   2   6
HETATM    6  N   UNL     1     -43.202  58.226 -53.290  1.00  0.00    -0.319 N 
HETATM    7  C   UNL     1     -44.478  58.441 -53.759  1.00  0.00     0.248 C 
HETATM    8  O   UNL     1     -45.013  57.848 -54.694  1.00  0.00    -0.271 OA
HETATM    9  H   UNL     1     -42.653  59.021 -52.948  1.00  0.00     0.169 HD
BRANCH   7  10
HETATM   10  C   UNL     1     -45.266  59.514 -53.015  1.00  0.00     0.337 C 
BRANCH  10  11
HETATM   11  N   UNL     1     -45.146  60.952 -53.608  1.00  0.00    -0.060 N 
HETATM   12  H   UNL     1     -45.567  61.516 -52.851  1.00  0.00     0.280 HD
HETATM   13  C   UNL     1     -46.022  61.229 -54.824  1.00  0.00     0.263 C 
HETATM   14  C   UNL     1     -45.345  60.976 -56.195  1.00  0.00     0.262 C 
HETATM   15  N   UNL     1     -43.952  61.587 -56.291  1.00  0.00    -0.072 N 
HETATM   16  H   UNL     1     -44.050  62.611 -56.363  1.00  0.00     0.279 HD
HETATM   17  C   UNL     1     -43.284  61.156 -57.586  1.00  0.00     0.269 C 
HETATM   18  C   UNL     1     -43.045  61.271 -55.108  1.00  0.00     0.262 C 
HETATM   19  C   UNL     1     -43.729  61.497 -53.736  1.00  0.00     0.263 C 
ENDBRANCH  10  11
ENDBRANCH   7  10
ENDBRANCH   2   6
BRANCH   1  20
HETATM   20  C   UNL     1     -42.812  55.767 -51.645  1.00  0.00     0.297 C 
HETATM   21  O   UNL     1     -43.654  54.899 -51.421  1.00  0.00    -0.259 OA
BRANCH  20  22
HETATM   22  O   UNL     1     -42.359  56.668 -50.739  1.00  0.00    -0.318 OA
BRANCH  22  23
HETATM   23  C   UNL     1     -41.080  56.413 -50.136  1.00  0.00     0.174 C 
HETATM   24  C   UNL     1     -41.215  55.270 -49.150  1.00  0.00     0.034 C 
ENDBRANCH  22  23
ENDBRANCH  20  22
ENDBRANCH   1  20
BRANCH   5  25
HETATM   25  C   UNL     1     -40.941  53.706 -53.416  1.00  0.00    -0.024 A 
HETATM   26  C   UNL     1     -40.437  53.452 -52.131  1.00  0.00     0.015 A 
HETATM   27  C   UNL     1     -39.939  52.189 -51.804  1.00  0.00     0.037 A 
HETATM   28  C   UNL     1     -39.951  51.172 -52.767  1.00  0.00     0.102 A 
HETATM   29  C   UNL     1     -40.456  51.415 -54.053  1.00  0.00     0.037 A 
HETATM   30  C   UNL     1     -40.946  52.685 -54.375  1.00  0.00     0.015 A 
BRANCH  28  31
HETATM   31  N   UNL     1     -39.424  49.844 -52.429  1.00  0.00    -0.116 N 
HETATM   32  O   UNL     1     -39.356  49.008 -53.340  1.00  0.00    -0.532 OA
HETATM   33  O   UNL     1     -39.079  49.648 -51.257  1.00  0.00    -0.532 OA
ENDBRANCH  28  31
ENDBRANCH   5  25
TORSDOF 8
ENDMDL
