MODEL 1
REMARK VINA RESULT:      -8.9      0.000      0.000
REMARK  5 active torsions:
REMARK  status: ('A' for Active; 'I' for Inactive)
REMARK    1  A    between atoms: C_7  and  C_8 
REMARK    2  A    between atoms: C_8  and  N_9 
REMARK    3  A    between atoms: C_13  and  C_14 
REMARK    4  A    between atoms: C_17  and  C_18 
REMARK    5  A    between atoms: C_18  and  N_19 
ROOT
HETATM    1  N   UNL     1     -41.408  54.867 -50.667  1.00  0.00    -0.067 N 
HETATM    2  H   UNL     1     -41.605  55.081 -49.681  1.00  0.00     0.280 HD
HETATM    3  C   UNL     1     -41.205  56.183 -51.384  1.00  0.00     0.236 C 
HETATM    4  C   UNL     1     -42.503  56.984 -51.420  1.00  0.00     0.040 C 
HETATM    5  C   UNL     1     -43.678  56.208 -52.022  1.00  0.00     0.060 C 
HETATM    6  C   UNL     1     -43.835  54.871 -51.288  1.00  0.00     0.040 C 
HETATM    7  C   UNL     1     -42.551  54.052 -51.220  1.00  0.00     0.236 C 
ENDROOT
BRANCH   5   8
HETATM    8  C   UNL     1     -43.494  56.015 -53.503  1.00  0.00     0.134 A 
HETATM    9  N   UNL     1     -43.394  57.007 -54.455  1.00  0.00    -0.323 N 
HETATM   10  C   UNL     1     -43.443  58.431 -54.228  1.00  0.00     0.159 C 
HETATM   11  C   UNL     1     -43.231  56.357 -55.656  1.00  0.00     0.155 A 
HETATM   12  N   UNL     1     -43.201  55.058 -55.436  1.00  0.00    -0.133 NA
HETATM   13  N   UNL     1     -43.373  54.849 -54.102  1.00  0.00    -0.134 NA
BRANCH  11  14
HETATM   14  C   UNL     1     -43.100  56.981 -57.005  1.00  0.00     0.315 C 
BRANCH  14  15
HETATM   15  N   UNL     1     -44.103  56.389 -57.983  1.00  0.00    -0.064 N 
HETATM   16  H   UNL     1     -44.732  55.824 -57.389  1.00  0.00     0.280 HD
HETATM   17  C   UNL     1     -44.972  57.443 -58.631  1.00  0.00     0.235 C 
HETATM   18  C   UNL     1     -46.074  56.764 -59.431  1.00  0.00     0.028 C 
HETATM   19  C   UNL     1     -45.501  55.796 -60.460  1.00  0.00     0.003 C 
HETATM   20  C   UNL     1     -44.563  54.787 -59.808  1.00  0.00     0.028 C 
HETATM   21  C   UNL     1     -43.472  55.468 -58.993  1.00  0.00     0.235 C 
ENDBRANCH  14  15
ENDBRANCH  11  14
ENDBRANCH   5   8
BRANCH   1  22
HETATM   22  C   UNL     1     -40.140  54.018 -50.661  1.00  0.00     0.273 C 
BRANCH  22  23
HETATM   23  C   UNL     1     -40.040  53.052 -51.811  1.00  0.00    -0.032 A 
HETATM   24  C   UNL     1     -40.226  53.487 -53.132  1.00  0.00     0.012 A 
HETATM   25  C   UNL     1     -40.172  52.571 -54.183  1.00  0.00     0.043 A 
HETATM   26  C   UNL     1     -39.933  51.226 -53.922  1.00  0.00     0.122 A 
HETATM   27  C   UNL     1     -39.727  50.767 -52.620  1.00  0.00    -0.023 A 
HETATM   28  F   UNL     1     -39.908  50.363 -54.946  1.00  0.00    -0.206 F 
HETATM   29  C   UNL     1     -39.501  49.309 -52.357  1.00  0.00     0.051 C 
HETATM   30  C   UNL     1     -39.790  51.688 -51.566  1.00  0.00     0.018 A 
ENDBRANCH  22  23
ENDBRANCH   1  22
TORSDOF 5
ENDMDL
MODEL 2
REMARK VINA RESULT:      -8.8      0.601      1.440
REMARK  5 active torsions:
REMARK  status: ('A' for Active; 'I' for Inactive)
REMARK    1  A    between atoms: C_7  and  C_8 
REMARK    2  A    between atoms: C_8  and  N_9 
REMARK    3  A    between atoms: C_13  and  C_14 
REMARK    4  A    between atoms: C_17  and  C_18 
REMARK    5  A    between atoms: C_18  and  N_19 
ROOT
HETATM    1  N   UNL     1     -41.522  55.161 -50.284  1.00  0.00    -0.067 N 
HETATM    2  H   UNL     1     -41.699  55.402 -49.300  1.00  0.00     0.280 HD
HETATM    3  C   UNL     1     -41.255  56.451 -51.025  1.00  0.00     0.236 C 
HETATM    4  C   UNL     1     -42.509  57.320 -51.066  1.00  0.00     0.040 C 
HETATM    5  C   UNL     1     -43.728  56.598 -51.645  1.00  0.00     0.060 C 
HETATM    6  C   UNL     1     -43.951  55.284 -50.886  1.00  0.00     0.040 C 
HETATM    7  C   UNL     1     -42.712  54.399 -50.813  1.00  0.00     0.236 C 
ENDROOT
BRANCH   5   8
HETATM    8  C   UNL     1     -43.568  56.370 -53.124  1.00  0.00     0.134 A 
HETATM    9  N   UNL     1     -43.355  57.333 -54.085  1.00  0.00    -0.323 N 
HETATM   10  C   UNL     1     -43.239  58.756 -53.873  1.00  0.00     0.159 C 
HETATM   11  C   UNL     1     -43.268  56.656 -55.279  1.00  0.00     0.155 A 
HETATM   12  N   UNL     1     -43.388  55.365 -55.046  1.00  0.00    -0.133 NA
HETATM   13  N   UNL     1     -43.583  55.191 -53.710  1.00  0.00    -0.134 NA
BRANCH  11  14
HETATM   14  C   UNL     1     -43.066  57.247 -56.635  1.00  0.00     0.315 C 
BRANCH  14  15
HETATM   15  N   UNL     1     -43.971  56.584 -57.662  1.00  0.00    -0.064 N 
HETATM   16  H   UNL     1     -44.614  56.005 -57.097  1.00  0.00     0.280 HD
HETATM   17  C   UNL     1     -44.838  57.580 -58.398  1.00  0.00     0.235 C 
HETATM   18  C   UNL     1     -45.850  56.830 -59.252  1.00  0.00     0.028 C 
HETATM   19  C   UNL     1     -45.164  55.864 -60.212  1.00  0.00     0.003 C 
HETATM   20  C   UNL     1     -44.230  54.917 -59.468  1.00  0.00     0.028 C 
HETATM   21  C   UNL     1     -43.230  55.668 -58.599  1.00  0.00     0.235 C 
ENDBRANCH  14  15
ENDBRANCH  11  14
ENDBRANCH   5   8
BRANCH   1  22
HETATM   22  C   UNL     1     -40.302  54.244 -50.272  1.00  0.00     0.273 C 
BRANCH  22  23
HETATM   23  C   UNL     1     -40.195  53.346 -51.475  1.00  0.00    -0.032 A 
HETATM   24  C   UNL     1     -39.898  51.983 -51.329  1.00  0.00     0.012 A 
HETATM   25  C   UNL     1     -39.761  51.173 -52.457  1.00  0.00     0.043 A 
HETATM   26  C   UNL     1     -39.920  51.716 -53.727  1.00  0.00     0.122 A 
HETATM   27  C   UNL     1     -40.235  53.064 -53.903  1.00  0.00    -0.023 A 
HETATM   28  F   UNL     1     -39.763  50.923 -54.794  1.00  0.00    -0.206 F 
HETATM   29  C   UNL     1     -40.373  53.637 -55.281  1.00  0.00     0.051 C 
HETATM   30  C   UNL     1     -40.363  53.878 -52.769  1.00  0.00     0.018 A 
ENDBRANCH  22  23
ENDBRANCH   1  22
TORSDOF 5
ENDMDL
MODEL 3
REMARK VINA RESULT:      -8.6      1.262      2.006
REMARK  5 active torsions:
REMARK  status: ('A' for Active; 'I' for Inactive)
REMARK    1  A    between atoms: C_7  and  C_8 
REMARK    2  A    between atoms: C_8  and  N_9 
REMARK    3  A    between atoms: C_13  and  C_14 
REMARK    4  A    between atoms: C_17  and  C_18 
REMARK    5  A    between atoms: C_18  and  N_19 
ROOT
HETATM    1  N   UNL     1     -42.535  56.272 -50.381  1.00  0.00    -0.067 N 
HETATM    2  H   UNL     1     -42.477  56.864 -49.543  1.00  0.00     0.280 HD
HETATM    3  C   UNL     1     -41.471  56.746 -51.345  1.00  0.00     0.236 C 
HETATM    4  C   UNL     1     -41.786  58.151 -51.849  1.00  0.00     0.040 C 
HETATM    5  C   UNL     1     -43.180  58.274 -52.469  1.00  0.00     0.060 C 
HETATM    6  C   UNL     1     -44.228  57.761 -51.474  1.00  0.00     0.040 C 
HETATM    7  C   UNL     1     -43.934  56.364 -50.938  1.00  0.00     0.236 C 
ENDROOT
BRANCH   5   8
HETATM    8  C   UNL     1     -43.252  57.545 -53.784  1.00  0.00     0.134 A 
HETATM    9  N   UNL     1     -42.775  57.990 -54.997  1.00  0.00    -0.323 N 
HETATM   10  C   UNL     1     -42.107  59.242 -55.257  1.00  0.00     0.159 C 
HETATM   11  C   UNL     1     -43.060  56.991 -55.899  1.00  0.00     0.155 A 
HETATM   12  N   UNL     1     -43.643  55.996 -55.262  1.00  0.00    -0.133 NA
HETATM   13  N   UNL     1     -43.769  56.346 -53.953  1.00  0.00    -0.134 NA
BRANCH  11  14
HETATM   14  C   UNL     1     -42.771  56.994 -57.364  1.00  0.00     0.315 C 
BRANCH  14  15
HETATM   15  N   UNL     1     -43.953  56.459 -58.156  1.00  0.00    -0.064 N 
HETATM   16  H   UNL     1     -44.496  55.915 -57.466  1.00  0.00     0.280 HD
HETATM   17  C   UNL     1     -44.871  57.558 -58.641  1.00  0.00     0.235 C 
HETATM   18  C   UNL     1     -46.123  56.939 -59.243  1.00  0.00     0.028 C 
HETATM   19  C   UNL     1     -45.781  55.959 -60.359  1.00  0.00     0.003 C 
HETATM   20  C   UNL     1     -44.792  54.901 -59.882  1.00  0.00     0.028 C 
HETATM   21  C   UNL     1     -43.548  55.523 -59.264  1.00  0.00     0.235 C 
ENDBRANCH  14  15
ENDBRANCH  11  14
ENDBRANCH   5   8
BRANCH   1  22
HETATM   22  C   UNL     1     -42.278  54.847 -49.900  1.00  0.00     0.273 C 
BRANCH  22  23
HETATM   23  C   UNL     1     -41.516  53.994 -50.879  1.00  0.00    -0.032 A 
HETATM   24  C   UNL     1     -40.362  53.303 -50.482  1.00  0.00     0.012 A 
HETATM   25  C   UNL     1     -39.643  52.551 -51.412  1.00  0.00     0.043 A 
HETATM   26  C   UNL     1     -40.071  52.486 -52.734  1.00  0.00     0.122 A 
HETATM   27  C   UNL     1     -41.226  53.148 -53.153  1.00  0.00    -0.023 A 
HETATM   28  F   UNL     1     -39.353  51.775 -53.612  1.00  0.00    -0.206 F 
HETATM   29  C   UNL     1     -41.654  53.090 -54.589  1.00  0.00     0.051 C 
HETATM   30  C   UNL     1     -41.941  53.909 -52.219  1.00  0.00     0.018 A 
ENDBRANCH  22  23
ENDBRANCH   1  22
TORSDOF 5
ENDMDL
MODEL 4
REMARK VINA RESULT:      -8.5      3.448      6.118
REMARK  5 active torsions:
REMARK  status: ('A' for Active; 'I' for Inactive)
REMARK    1  A    between atoms: C_7  and  C_8 
REMARK    2  A    between atoms: C_8  and  N_9 
REMARK    3  A    between atoms: C_13  and  C_14 
REMARK    4  A    between atoms: C_17  and  C_18 
REMARK    5  A    between atoms: C_18  and  N_19 
ROOT
HETATM    1  N   UNL     1     -41.709  55.132 -53.227  1.00  0.00    -0.067 N 
HETATM    2  H   UNL     1     -41.349  54.766 -54.117  1.00  0.00     0.280 HD
HETATM    3  C   UNL     1     -43.190  54.833 -53.181  1.00  0.00     0.236 C 
HETATM    4  C   UNL     1     -43.936  55.628 -54.249  1.00  0.00     0.040 C 
HETATM    5  C   UNL     1     -43.678  57.135 -54.173  1.00  0.00     0.060 C 
HETATM    6  C   UNL     1     -42.167  57.397 -54.196  1.00  0.00     0.040 C 
HETATM    7  C   UNL     1     -41.390  56.605 -53.150  1.00  0.00     0.236 C 
ENDROOT
BRANCH   5   8
HETATM    8  C   UNL     1     -44.331  57.733 -52.956  1.00  0.00     0.134 A 
HETATM    9  N   UNL     1     -44.978  58.947 -52.883  1.00  0.00    -0.323 N 
HETATM   10  C   UNL     1     -45.165  59.892 -53.957  1.00  0.00     0.159 C 
HETATM   11  C   UNL     1     -45.411  59.062 -51.583  1.00  0.00     0.155 A 
HETATM   12  N   UNL     1     -45.075  57.972 -50.924  1.00  0.00    -0.133 NA
HETATM   13  N   UNL     1     -44.397  57.154 -51.775  1.00  0.00    -0.134 NA
BRANCH  11  14
HETATM   14  C   UNL     1     -46.148  60.212 -50.979  1.00  0.00     0.315 C 
BRANCH  14  15
HETATM   15  N   UNL     1     -45.214  61.096 -50.169  1.00  0.00    -0.064 N 
HETATM   16  H   UNL     1     -44.537  60.436 -49.753  1.00  0.00     0.280 HD
HETATM   17  C   UNL     1     -44.406  62.035 -51.036  1.00  0.00     0.235 C 
HETATM   18  C   UNL     1     -43.360  62.734 -50.181  1.00  0.00     0.028 C 
HETATM   19  C   UNL     1     -43.997  63.464 -49.004  1.00  0.00     0.003 C 
HETATM   20  C   UNL     1     -44.874  62.527 -48.182  1.00  0.00     0.028 C 
HETATM   21  C   UNL     1     -45.908  61.814 -49.042  1.00  0.00     0.235 C 
ENDBRANCH  14  15
ENDBRANCH  11  14
ENDBRANCH   5   8
BRANCH   1  22
HETATM   22  C   UNL     1     -40.942  54.393 -52.134  1.00  0.00     0.273 C 
BRANCH  22  23
HETATM   23  C   UNL     1     -40.457  53.027 -52.538  1.00  0.00    -0.032 A 
HETATM   24  C   UNL     1     -40.414  52.650 -53.888  1.00  0.00     0.012 A 
HETATM   25  C   UNL     1     -40.001  51.365 -54.243  1.00  0.00     0.043 A 
HETATM   26  C   UNL     1     -39.631  50.457 -53.256  1.00  0.00     0.122 A 
HETATM   27  C   UNL     1     -39.646  50.809 -51.906  1.00  0.00    -0.023 A 
HETATM   28  F   UNL     1     -39.260  49.223 -53.620  1.00  0.00    -0.206 F 
HETATM   29  C   UNL     1     -39.273  49.806 -50.857  1.00  0.00     0.051 C 
HETATM   30  C   UNL     1     -40.069  52.097 -51.553  1.00  0.00     0.018 A 
ENDBRANCH  22  23
ENDBRANCH   1  22
TORSDOF 5
ENDMDL
MODEL 5
REMARK VINA RESULT:      -8.4      2.305      3.162
REMARK  5 active torsions:
REMARK  status: ('A' for Active; 'I' for Inactive)
REMARK    1  A    between atoms: C_7  and  C_8 
REMARK    2  A    between atoms: C_8  and  N_9 
REMARK    3  A    between atoms: C_13  and  C_14 
REMARK    4  A    between atoms: C_17  and  C_18 
REMARK    5  A    between atoms: C_18  and  N_19 
ROOT
HETATM    1  N   UNL     1     -41.942  55.501 -53.396  1.00  0.00    -0.067 N 
HETATM    2  H   UNL     1     -42.070  55.099 -52.459  1.00  0.00     0.280 HD
HETATM    3  C   UNL     1     -40.936  56.623 -53.274  1.00  0.00     0.236 C 
HETATM    4  C   UNL     1     -41.501  57.769 -52.440  1.00  0.00     0.040 C 
HETATM    5  C   UNL     1     -42.843  58.292 -52.961  1.00  0.00     0.060 C 
HETATM    6  C   UNL     1     -43.828  57.124 -53.097  1.00  0.00     0.040 C 
HETATM    7  C   UNL     1     -43.286  55.954 -53.911  1.00  0.00     0.236 C 
ENDROOT
BRANCH   5   8
HETATM    8  C   UNL     1     -42.666  59.028 -54.262  1.00  0.00     0.134 A 
HETATM    9  N   UNL     1     -43.653  59.330 -55.175  1.00  0.00    -0.323 N 
HETATM   10  C   UNL     1     -45.055  59.006 -55.072  1.00  0.00     0.159 C 
HETATM   11  C   UNL     1     -43.024  60.008 -56.193  1.00  0.00     0.155 A 
HETATM   12  N   UNL     1     -41.746  60.135 -55.895  1.00  0.00    -0.133 NA
HETATM   13  N   UNL     1     -41.526  59.518 -54.701  1.00  0.00    -0.134 NA
BRANCH  11  14
HETATM   14  C   UNL     1     -43.648  60.535 -57.443  1.00  0.00     0.315 C 
BRANCH  14  15
HETATM   15  N   UNL     1     -43.349  59.631 -58.628  1.00  0.00    -0.064 N 
HETATM   16  H   UNL     1     -44.143  59.784 -59.270  1.00  0.00     0.280 HD
HETATM   17  C   UNL     1     -42.109  60.056 -59.382  1.00  0.00     0.235 C 
HETATM   18  C   UNL     1     -41.992  59.237 -60.659  1.00  0.00     0.028 C 
HETATM   19  C   UNL     1     -41.985  57.741 -60.364  1.00  0.00     0.003 C 
HETATM   20  C   UNL     1     -43.198  57.336 -59.534  1.00  0.00     0.028 C 
HETATM   21  C   UNL     1     -43.324  58.170 -58.266  1.00  0.00     0.235 C 
ENDBRANCH  14  15
ENDBRANCH  11  14
ENDBRANCH   5   8
BRANCH   1  22
HETATM   22  C   UNL     1     -41.426  54.362 -54.270  1.00  0.00     0.273 C 
BRANCH  22  23
HETATM   23  C   UNL     1     -40.803  53.229 -53.500  1.00  0.00    -0.032 A 
HETATM   24  C   UNL     1     -40.558  53.345 -52.124  1.00  0.00     0.012 A 
HETATM   25  C   UNL     1     -39.941  52.301 -51.433  1.00  0.00     0.043 A 
HETATM   26  C   UNL     1     -39.569  51.144 -52.110  1.00  0.00     0.122 A 
HETATM   27  C   UNL     1     -39.816  50.993 -53.475  1.00  0.00    -0.023 A 
HETATM   28  F   UNL     1     -38.958  50.165 -51.429  1.00  0.00    -0.206 F 
HETATM   29  C   UNL     1     -39.380  49.751 -54.191  1.00  0.00     0.051 C 
HETATM   30  C   UNL     1     -40.428  52.046 -54.167  1.00  0.00     0.018 A 
ENDBRANCH  22  23
ENDBRANCH   1  22
TORSDOF 5
ENDMDL
MODEL 6
REMARK VINA RESULT:      -8.4      1.941      2.858
REMARK  5 active torsions:
REMARK  status: ('A' for Active; 'I' for Inactive)
REMARK    1  A    between atoms: C_7  and  C_8 
REMARK    2  A    between atoms: C_8  and  N_9 
REMARK    3  A    between atoms: C_13  and  C_14 
REMARK    4  A    between atoms: C_17  and  C_18 
REMARK    5  A    between atoms: C_18  and  N_19 
ROOT
HETATM    1  N   UNL     1     -42.675  56.211 -50.320  1.00  0.00    -0.067 N 
HETATM    2  H   UNL     1     -42.804  56.500 -49.342  1.00  0.00     0.280 HD
HETATM    3  C   UNL     1     -41.358  56.781 -50.792  1.00  0.00     0.236 C 
HETATM    4  C   UNL     1     -41.418  58.305 -50.850  1.00  0.00     0.040 C 
HETATM    5  C   UNL     1     -42.578  58.834 -51.697  1.00  0.00     0.060 C 
HETATM    6  C   UNL     1     -43.892  58.214 -51.206  1.00  0.00     0.040 C 
HETATM    7  C   UNL     1     -43.860  56.692 -51.121  1.00  0.00     0.236 C 
ENDROOT
BRANCH   5   8
HETATM    8  C   UNL     1     -42.344  58.564 -53.159  1.00  0.00     0.134 A 
HETATM    9  N   UNL     1     -42.801  59.320 -54.217  1.00  0.00    -0.323 N 
HETATM   10  C   UNL     1     -43.593  60.524 -54.141  1.00  0.00     0.159 C 
HETATM   11  C   UNL     1     -42.338  58.693 -55.351  1.00  0.00     0.155 A 
HETATM   12  N   UNL     1     -41.621  57.646 -54.996  1.00  0.00    -0.133 NA
HETATM   13  N   UNL     1     -41.635  57.563 -53.637  1.00  0.00    -0.134 NA
BRANCH  11  14
HETATM   14  C   UNL     1     -42.581  59.102 -56.766  1.00  0.00     0.315 C 
BRANCH  14  15
HETATM   15  N   UNL     1     -42.464  57.914 -57.707  1.00  0.00    -0.064 N 
HETATM   16  H   UNL     1     -41.661  57.377 -57.340  1.00  0.00     0.280 HD
HETATM   17  C   UNL     1     -43.658  56.990 -57.626  1.00  0.00     0.235 C 
HETATM   18  C   UNL     1     -43.378  55.733 -58.435  1.00  0.00     0.028 C 
HETATM   19  C   UNL     1     -43.023  56.066 -59.879  1.00  0.00     0.003 C 
HETATM   20  C   UNL     1     -41.869  57.060 -59.949  1.00  0.00     0.028 C 
HETATM   21  C   UNL     1     -42.144  58.310 -59.124  1.00  0.00     0.235 C 
ENDBRANCH  14  15
ENDBRANCH  11  14
ENDBRANCH   5   8
BRANCH   1  22
HETATM   22  C   UNL     1     -42.666  54.685 -50.302  1.00  0.00     0.273 C 
BRANCH  22  23
HETATM   23  C   UNL     1     -42.035  54.059 -51.517  1.00  0.00    -0.032 A 
HETATM   24  C   UNL     1     -40.843  53.329 -51.412  1.00  0.00     0.012 A 
HETATM   25  C   UNL     1     -40.249  52.791 -52.555  1.00  0.00     0.043 A 
HETATM   26  C   UNL     1     -40.841  52.979 -53.800  1.00  0.00     0.122 A 
HETATM   27  C   UNL     1     -42.037  53.685 -53.933  1.00  0.00    -0.023 A 
HETATM   28  F   UNL     1     -40.241  52.472 -54.884  1.00  0.00    -0.206 F 
HETATM   29  C   UNL     1     -42.643  53.902 -55.287  1.00  0.00     0.051 C 
HETATM   30  C   UNL     1     -42.626  54.231 -52.785  1.00  0.00     0.018 A 
ENDBRANCH  22  23
ENDBRANCH   1  22
TORSDOF 5
ENDMDL
MODEL 7
REMARK VINA RESULT:      -8.3      1.898      2.787
REMARK  5 active torsions:
REMARK  status: ('A' for Active; 'I' for Inactive)
REMARK    1  A    between atoms: C_7  and  C_8 
REMARK    2  A    between atoms: C_8  and  N_9 
REMARK    3  A    between atoms: C_13  and  C_14 
REMARK    4  A    between atoms: C_17  and  C_18 
REMARK    5  A    between atoms: C_18  and  N_19 
ROOT
HETATM    1  N   UNL     1     -42.017  55.278 -53.913  1.00  0.00    -0.067 N 
HETATM    2  H   UNL     1     -41.951  55.091 -52.904  1.00  0.00     0.280 HD
HETATM    3  C   UNL     1     -41.080  56.423 -54.223  1.00  0.00     0.236 C 
HETATM    4  C   UNL     1     -41.563  57.711 -53.565  1.00  0.00     0.040 C 
HETATM    5  C   UNL     1     -43.007  58.072 -53.926  1.00  0.00     0.060 C 
HETATM    6  C   UNL     1     -43.922  56.879 -53.622  1.00  0.00     0.040 C 
HETATM    7  C   UNL     1     -43.458  55.571 -54.253  1.00  0.00     0.236 C 
ENDROOT
BRANCH   5   8
HETATM    8  C   UNL     1     -43.111  58.504 -55.364  1.00  0.00     0.134 A 
HETATM    9  N   UNL     1     -44.250  58.513 -56.139  1.00  0.00    -0.323 N 
HETATM   10  C   UNL     1     -45.575  58.113 -55.732  1.00  0.00     0.159 C 
HETATM   11  C   UNL     1     -43.861  58.989 -57.370  1.00  0.00     0.155 A 
HETATM   12  N   UNL     1     -42.576  59.278 -57.327  1.00  0.00    -0.133 NA
HETATM   13  N   UNL     1     -42.112  58.968 -56.085  1.00  0.00    -0.134 NA
BRANCH  11  14
HETATM   14  C   UNL     1     -44.720  59.167 -58.577  1.00  0.00     0.315 C 
BRANCH  14  15
HETATM   15  N   UNL     1     -45.141  57.824 -59.153  1.00  0.00    -0.064 N 
HETATM   16  H   UNL     1     -45.141  57.188 -58.339  1.00  0.00     0.280 HD
HETATM   17  C   UNL     1     -46.559  57.837 -59.677  1.00  0.00     0.235 C 
HETATM   18  C   UNL     1     -46.972  56.420 -60.045  1.00  0.00     0.028 C 
HETATM   19  C   UNL     1     -46.008  55.801 -61.050  1.00  0.00     0.003 C 
HETATM   20  C   UNL     1     -44.570  55.865 -60.547  1.00  0.00     0.028 C 
HETATM   21  C   UNL     1     -44.165  57.281 -60.162  1.00  0.00     0.235 C 
ENDBRANCH  14  15
ENDBRANCH  11  14
ENDBRANCH   5   8
BRANCH   1  22
HETATM   22  C   UNL     1     -41.590  53.985 -54.603  1.00  0.00     0.273 C 
BRANCH  22  23
HETATM   23  C   UNL     1     -40.912  52.997 -53.693  1.00  0.00    -0.032 A 
HETATM   24  C   UNL     1     -40.703  53.294 -52.338  1.00  0.00     0.012 A 
HETATM   25  C   UNL     1     -40.035  52.383 -51.518  1.00  0.00     0.043 A 
HETATM   26  C   UNL     1     -39.577  51.180 -52.044  1.00  0.00     0.122 A 
HETATM   27  C   UNL     1     -39.787  50.849 -53.383  1.00  0.00    -0.023 A 
HETATM   28  F   UNL     1     -38.920  50.333 -51.242  1.00  0.00    -0.206 F 
HETATM   29  C   UNL     1     -39.258  49.561 -53.938  1.00  0.00     0.051 C 
HETATM   30  C   UNL     1     -40.450  51.769 -54.206  1.00  0.00     0.018 A 
ENDBRANCH  22  23
ENDBRANCH   1  22
TORSDOF 5
ENDMDL
MODEL 8
REMARK VINA RESULT:      -8.3      2.897      3.909
REMARK  5 active torsions:
REMARK  status: ('A' for Active; 'I' for Inactive)
REMARK    1  A    between atoms: C_7  and  C_8 
REMARK    2  A    between atoms: C_8  and  N_9 
REMARK    3  A    between atoms: C_13  and  C_14 
REMARK    4  A    between atoms: C_17  and  C_18 
REMARK    5  A    between atoms: C_18  and  N_19 
ROOT
HETATM    1  N   UNL     1     -41.872  55.259 -52.760  1.00  0.00    -0.067 N 
HETATM    2  H   UNL     1     -42.270  54.516 -52.171  1.00  0.00     0.280 HD
HETATM    3  C   UNL     1     -41.317  56.321 -51.838  1.00  0.00     0.236 C 
HETATM    4  C   UNL     1     -42.440  57.007 -51.066  1.00  0.00     0.040 C 
HETATM    5  C   UNL     1     -43.533  57.583 -51.969  1.00  0.00     0.060 C 
HETATM    6  C   UNL     1     -44.052  56.485 -52.906  1.00  0.00     0.040 C 
HETATM    7  C   UNL     1     -42.953  55.769 -53.682  1.00  0.00     0.236 C 
ENDROOT
BRANCH   5   8
HETATM    8  C   UNL     1     -43.027  58.777 -52.733  1.00  0.00     0.134 A 
HETATM    9  N   UNL     1     -43.733  59.526 -53.649  1.00  0.00    -0.323 N 
HETATM   10  C   UNL     1     -45.100  59.322 -54.062  1.00  0.00     0.159 C 
HETATM   11  C   UNL     1     -42.867  60.506 -54.077  1.00  0.00     0.155 A 
HETATM   12  N   UNL     1     -41.725  60.374 -53.434  1.00  0.00    -0.133 NA
HETATM   13  N   UNL     1     -41.823  59.296 -52.609  1.00  0.00    -0.134 NA
BRANCH  11  14
HETATM   14  C   UNL     1     -43.140  61.564 -55.094  1.00  0.00     0.315 C 
BRANCH  14  15
HETATM   15  N   UNL     1     -42.344  61.319 -56.366  1.00  0.00    -0.064 N 
HETATM   16  H   UNL     1     -41.364  61.258 -56.045  1.00  0.00     0.280 HD
HETATM   17  C   UNL     1     -42.662  59.983 -57.000  1.00  0.00     0.235 C 
HETATM   18  C   UNL     1     -41.690  59.724 -58.141  1.00  0.00     0.028 C 
HETATM   19  C   UNL     1     -41.717  60.852 -59.165  1.00  0.00     0.003 C 
HETATM   20  C   UNL     1     -41.475  62.204 -58.504  1.00  0.00     0.028 C 
HETATM   21  C   UNL     1     -42.437  62.454 -57.351  1.00  0.00     0.235 C 
ENDBRANCH  14  15
ENDBRANCH  11  14
ENDBRANCH   5   8
BRANCH   1  22
HETATM   22  C   UNL     1     -40.779  54.590 -53.587  1.00  0.00     0.273 C 
BRANCH  22  23
HETATM   23  C   UNL     1     -40.400  53.214 -53.111  1.00  0.00    -0.032 A 
HETATM   24  C   UNL     1     -40.175  52.962 -51.750  1.00  0.00     0.012 A 
HETATM   25  C   UNL     1     -39.784  51.690 -51.329  1.00  0.00     0.043 A 
HETATM   26  C   UNL     1     -39.616  50.671 -52.261  1.00  0.00     0.122 A 
HETATM   27  C   UNL     1     -39.849  50.888 -53.619  1.00  0.00    -0.023 A 
HETATM   28  F   UNL     1     -39.218  49.466 -51.835  1.00  0.00    -0.206 F 
HETATM   29  C   UNL     1     -39.633  49.784 -54.611  1.00  0.00     0.051 C 
HETATM   30  C   UNL     1     -40.234  52.168 -54.040  1.00  0.00     0.018 A 
ENDBRANCH  22  23
ENDBRANCH   1  22
TORSDOF 5
ENDMDL
MODEL 9
REMARK VINA RESULT:      -8.2      1.751      2.652
REMARK  5 active torsions:
REMARK  status: ('A' for Active; 'I' for Inactive)
REMARK    1  A    between atoms: C_7  and  C_8 
REMARK    2  A    between atoms: C_8  and  N_9 
REMARK    3  A    between atoms: C_13  and  C_14 
REMARK    4  A    between atoms: C_17  and  C_18 
REMARK    5  A    between atoms: C_18  and  N_19 
ROOT
HETATM    1  N   UNL     1     -41.743  56.193 -49.931  1.00  0.00    -0.067 N 
HETATM    2  H   UNL     1     -42.125  56.592 -49.064  1.00  0.00     0.280 HD
HETATM    3  C   UNL     1     -41.117  57.325 -50.714  1.00  0.00     0.236 C 
HETATM    4  C   UNL     1     -42.182  58.311 -51.185  1.00  0.00     0.040 C 
HETATM    5  C   UNL     1     -43.308  57.650 -51.984  1.00  0.00     0.060 C 
HETATM    6  C   UNL     1     -43.900  56.492 -51.171  1.00  0.00     0.040 C 
HETATM    7  C   UNL     1     -42.859  55.496 -50.671  1.00  0.00     0.236 C 
ENDROOT
BRANCH   5   8
HETATM    8  C   UNL     1     -42.817  57.193 -53.331  1.00  0.00     0.134 A 
HETATM    9  N   UNL     1     -43.588  56.938 -54.444  1.00  0.00    -0.323 N 
HETATM   10  C   UNL     1     -45.022  57.058 -54.547  1.00  0.00     0.159 C 
HETATM   11  C   UNL     1     -42.708  56.555 -55.429  1.00  0.00     0.155 A 
HETATM   12  N   UNL     1     -41.482  56.609 -54.949  1.00  0.00    -0.133 NA
HETATM   13  N   UNL     1     -41.553  56.996 -53.645  1.00  0.00    -0.134 NA
BRANCH  11  14
HETATM   14  C   UNL     1     -43.043  56.145 -56.825  1.00  0.00     0.315 C 
BRANCH  14  15
HETATM   15  N   UNL     1     -42.413  57.086 -57.839  1.00  0.00    -0.064 N 
HETATM   16  H   UNL     1     -41.397  56.999 -57.668  1.00  0.00     0.280 HD
HETATM   17  C   UNL     1     -42.638  56.636 -59.265  1.00  0.00     0.235 C 
HETATM   18  C   UNL     1     -41.814  57.504 -60.203  1.00  0.00     0.028 C 
HETATM   19  C   UNL     1     -42.136  58.983 -60.022  1.00  0.00     0.003 C 
HETATM   20  C   UNL     1     -41.983  59.408 -58.566  1.00  0.00     0.028 C 
HETATM   21  C   UNL     1     -42.794  58.526 -57.627  1.00  0.00     0.235 C 
ENDBRANCH  14  15
ENDBRANCH  11  14
ENDBRANCH   5   8
BRANCH   1  22
HETATM   22  C   UNL     1     -40.709  55.160 -49.492  1.00  0.00     0.273 C 
BRANCH  22  23
HETATM   23  C   UNL     1     -40.541  54.011 -50.449  1.00  0.00    -0.032 A 
HETATM   24  C   UNL     1     -40.339  52.706 -49.976  1.00  0.00     0.012 A 
HETATM   25  C   UNL     1     -40.143  51.659 -50.877  1.00  0.00     0.043 A 
HETATM   26  C   UNL     1     -40.149  51.908 -52.245  1.00  0.00     0.122 A 
HETATM   27  C   UNL     1     -40.366  53.192 -52.745  1.00  0.00    -0.023 A 
HETATM   28  F   UNL     1     -39.937  50.890 -53.089  1.00  0.00    -0.206 F 
HETATM   29  C   UNL     1     -40.338  53.445 -54.223  1.00  0.00     0.051 C 
HETATM   30  C   UNL     1     -40.554  54.244 -51.838  1.00  0.00     0.018 A 
ENDBRANCH  22  23
ENDBRANCH   1  22
TORSDOF 5
ENDMDL
MODEL 10
REMARK VINA RESULT:      -8.0      1.974      3.574
REMARK  5 active torsions:
REMARK  status: ('A' for Active; 'I' for Inactive)
REMARK    1  A    between atoms: C_7  and  C_8 
REMARK    2  A    between atoms: C_8  and  N_9 
REMARK    3  A    between atoms: C_13  and  C_14 
REMARK    4  A    between atoms: C_17  and  C_18 
REMARK    5  A    between atoms: C_18  and  N_19 
ROOT
HETATM    1  N   UNL     1     -43.199  56.100 -53.915  1.00  0.00    -0.067 N 
HETATM    2  H   UNL     1     -43.202  56.363 -52.921  1.00  0.00     0.280 HD
HETATM    3  C   UNL     1     -41.886  56.564 -54.503  1.00  0.00     0.236 C 
HETATM    4  C   UNL     1     -41.807  58.088 -54.513  1.00  0.00     0.040 C 
HETATM    5  C   UNL     1     -42.990  58.752 -55.222  1.00  0.00     0.060 C 
HETATM    6  C   UNL     1     -44.302  58.238 -54.617  1.00  0.00     0.040 C 
HETATM    7  C   UNL     1     -44.406  56.717 -54.578  1.00  0.00     0.236 C 
ENDROOT
BRANCH   5   8
HETATM    8  C   UNL     1     -42.929  58.517 -56.707  1.00  0.00     0.134 A 
HETATM    9  N   UNL     1     -43.651  59.182 -57.675  1.00  0.00    -0.323 N 
HETATM   10  C   UNL     1     -44.609  60.239 -57.464  1.00  0.00     0.159 C 
HETATM   11  C   UNL     1     -43.261  58.634 -58.874  1.00  0.00     0.155 A 
HETATM   12  N   UNL     1     -42.339  57.720 -58.645  1.00  0.00    -0.133 NA
HETATM   13  N   UNL     1     -42.142  57.643 -57.301  1.00  0.00    -0.134 NA
BRANCH  11  14
HETATM   14  C   UNL     1     -43.768  58.989 -60.232  1.00  0.00     0.315 C 
BRANCH  14  15
HETATM   15  N   UNL     1     -44.914  58.079 -60.644  1.00  0.00    -0.064 N 
HETATM   16  H   UNL     1     -44.870  58.067 -61.677  1.00  0.00     0.280 HD
HETATM   17  C   UNL     1     -44.708  56.649 -60.199  1.00  0.00     0.235 C 
HETATM   18  C   UNL     1     -45.783  55.769 -60.818  1.00  0.00     0.028 C 
HETATM   19  C   UNL     1     -47.181  56.269 -60.473  1.00  0.00     0.003 C 
HETATM   20  C   UNL     1     -47.353  57.735 -60.853  1.00  0.00     0.028 C 
HETATM   21  C   UNL     1     -46.265  58.611 -60.247  1.00  0.00     0.235 C 
ENDBRANCH  14  15
ENDBRANCH  11  14
ENDBRANCH   5   8
BRANCH   1  22
HETATM   22  C   UNL     1     -43.333  54.580 -53.941  1.00  0.00     0.273 C 
BRANCH  22  23
HETATM   23  C   UNL     1     -42.134  53.847 -53.403  1.00  0.00    -0.032 A 
HETATM   24  C   UNL     1     -41.341  53.052 -54.244  1.00  0.00     0.012 A 
HETATM   25  C   UNL     1     -40.257  52.346 -53.721  1.00  0.00     0.043 A 
HETATM   26  C   UNL     1     -39.963  52.429 -52.364  1.00  0.00     0.122 A 
HETATM   27  C   UNL     1     -40.722  53.226 -51.506  1.00  0.00    -0.023 A 
HETATM   28  F   UNL     1     -38.931  51.725 -51.882  1.00  0.00    -0.206 F 
HETATM   29  C   UNL     1     -40.407  53.279 -50.042  1.00  0.00     0.051 C 
HETATM   30  C   UNL     1     -41.815  53.928 -52.033  1.00  0.00     0.018 A 
ENDBRANCH  22  23
ENDBRANCH   1  22
TORSDOF 5
ENDMDL
