MODEL 1
REMARK VINA RESULT:      -7.4      0.000      0.000
REMARK  6 active torsions:
REMARK  status: ('A' for Active; 'I' for Inactive)
REMARK    1  A    between atoms: C_6  and  C_7 
REMARK       I    between atoms: C_7  and  N_8 
REMARK    2  A    between atoms: N_8  and  C_9 
REMARK    3  A    between atoms: C_9  and  C_10 
REMARK    4  A    between atoms: C_10  and  O_11 
REMARK    5  A    between atoms: C_10  and  C_12 
REMARK    6  A    between atoms: C_15  and  O_16 
ROOT
HETATM    1  C   UNL     1     -40.801  54.399 -54.114  1.00  0.00     0.258 C 
HETATM    2  N   UNL     1     -42.142  54.610 -54.350  1.00  0.00    -0.350 N 
HETATM    3  O   UNL     1     -39.918  54.949 -54.763  1.00  0.00    -0.267 OA
HETATM    4  H   UNL     1     -42.801  54.096 -53.767  1.00  0.00     0.163 HD
ENDROOT
BRANCH   2   5
HETATM    5  C   UNL     1     -42.669  55.483 -55.407  1.00  0.00     0.114 C 
HETATM    6  C   UNL     1     -43.308  54.666 -56.533  1.00  0.00     0.035 C 
BRANCH   5   7
HETATM    7  C   UNL     1     -43.610  56.572 -54.819  1.00  0.00     0.173 C 
BRANCH   7   8
HETATM    8  O   UNL     1     -44.836  55.941 -54.406  1.00  0.00    -0.389 OA
HETATM    9  H   UNL     1     -45.475  56.668 -54.300  1.00  0.00     0.210 HD
ENDBRANCH   7   8
BRANCH   7  10
HETATM   10  C   UNL     1     -43.036  57.305 -53.626  1.00  0.00    -0.028 A 
HETATM   11  C   UNL     1     -41.841  58.024 -53.758  1.00  0.00     0.012 A 
HETATM   12  C   UNL     1     -41.296  58.702 -52.664  1.00  0.00     0.037 A 
HETATM   13  C   UNL     1     -41.935  58.682 -51.423  1.00  0.00     0.068 A 
HETATM   14  C   UNL     1     -43.118  57.959 -51.279  1.00  0.00     0.037 A 
HETATM   15  C   UNL     1     -43.664  57.275 -52.372  1.00  0.00     0.012 A 
BRANCH  13  16
HETATM   16  O   UNL     1     -41.303  59.397 -50.443  1.00  0.00    -0.356 OA
HETATM   17  C   UNL     1     -39.890  59.513 -50.549  1.00  0.00     0.210 C 
ENDBRANCH  13  16
ENDBRANCH   7  10
ENDBRANCH   5   7
ENDBRANCH   2   5
BRANCH   1  18
HETATM   18  C   UNL     1     -40.506  53.450 -53.055  1.00  0.00     0.105 A 
HETATM   19  C   UNL     1     -40.459  53.693 -51.655  1.00  0.00     0.071 A 
HETATM   20  C   UNL     1     -40.718  54.972 -50.945  1.00  0.00     0.073 C 
HETATM   21  N   UNL     1     -40.140  52.597 -50.957  1.00  0.00    -0.170 NA
HETATM   22  N   UNL     1     -39.966  51.633 -51.887  1.00  0.00    -0.225 N 
HETATM   23  C   UNL     1     -40.187  52.109 -53.183  1.00  0.00     0.168 A 
HETATM   24  C   UNL     1     -39.606  50.307 -51.672  1.00  0.00     0.122 A 
HETATM   25  N   UNL     1     -40.064  51.297 -54.286  1.00  0.00    -0.240 NA
HETATM   26  C   UNL     1     -39.724  50.064 -54.044  1.00  0.00     0.120 A 
HETATM   27  C   UNL     1     -39.465  49.467 -52.705  1.00  0.00     0.038 A 
ENDBRANCH   1  18
TORSDOF 6
ENDMDL
MODEL 2
REMARK VINA RESULT:      -7.4      1.124      2.724
REMARK  6 active torsions:
REMARK  status: ('A' for Active; 'I' for Inactive)
REMARK    1  A    between atoms: C_6  and  C_7 
REMARK       I    between atoms: C_7  and  N_8 
REMARK    2  A    between atoms: N_8  and  C_9 
REMARK    3  A    between atoms: C_9  and  C_10 
REMARK    4  A    between atoms: C_10  and  O_11 
REMARK    5  A    between atoms: C_10  and  C_12 
REMARK    6  A    between atoms: C_15  and  O_16 
ROOT
HETATM    1  C   UNL     1     -40.906  54.244 -53.765  1.00  0.00     0.258 C 
HETATM    2  N   UNL     1     -42.188  54.734 -53.883  1.00  0.00    -0.350 N 
HETATM    3  O   UNL     1     -40.082  54.313 -54.670  1.00  0.00    -0.267 OA
HETATM    4  H   UNL     1     -42.805  54.619 -53.080  1.00  0.00     0.163 HD
ENDROOT
BRANCH   2   5
HETATM    5  C   UNL     1     -42.725  55.363 -55.097  1.00  0.00     0.114 C 
HETATM    6  C   UNL     1     -43.327  54.320 -56.042  1.00  0.00     0.035 C 
BRANCH   5   7
HETATM    7  C   UNL     1     -43.703  56.520 -54.746  1.00  0.00     0.173 C 
BRANCH   7   8
HETATM    8  O   UNL     1     -44.984  55.951 -54.421  1.00  0.00    -0.389 OA
HETATM    9  H   UNL     1     -44.822  54.996 -54.317  1.00  0.00     0.210 HD
ENDBRANCH   7   8
BRANCH   7  10
HETATM   10  C   UNL     1     -43.259  57.370 -53.575  1.00  0.00    -0.028 A 
HETATM   11  C   UNL     1     -42.036  58.051 -53.633  1.00  0.00     0.012 A 
HETATM   12  C   UNL     1     -41.609  58.836 -52.558  1.00  0.00     0.037 A 
HETATM   13  C   UNL     1     -42.395  58.962 -51.412  1.00  0.00     0.068 A 
HETATM   14  C   UNL     1     -43.608  58.278 -51.340  1.00  0.00     0.037 A 
HETATM   15  C   UNL     1     -44.035  57.487 -52.413  1.00  0.00     0.012 A 
BRANCH  13  16
HETATM   16  O   UNL     1     -41.868  59.770 -50.442  1.00  0.00    -0.356 OA
HETATM   17  C   UNL     1     -40.468  59.665 -50.217  1.00  0.00     0.210 C 
ENDBRANCH  13  16
ENDBRANCH   7  10
ENDBRANCH   5   7
ENDBRANCH   2   5
BRANCH   1  18
HETATM   18  C   UNL     1     -40.606  53.611 -52.492  1.00  0.00     0.105 A 
HETATM   19  C   UNL     1     -40.101  52.301 -52.268  1.00  0.00     0.071 A 
HETATM   20  C   UNL     1     -39.745  51.277 -53.285  1.00  0.00     0.073 C 
HETATM   21  N   UNL     1     -39.952  52.027 -50.968  1.00  0.00    -0.170 NA
HETATM   22  N   UNL     1     -40.365  53.143 -50.329  1.00  0.00    -0.225 N 
HETATM   23  C   UNL     1     -40.767  54.140 -51.223  1.00  0.00     0.168 A 
HETATM   24  C   UNL     1     -40.423  53.359 -48.956  1.00  0.00     0.122 A 
HETATM   25  N   UNL     1     -41.226  55.363 -50.791  1.00  0.00    -0.240 NA
HETATM   26  C   UNL     1     -41.266  55.525 -49.500  1.00  0.00     0.120 A 
HETATM   27  C   UNL     1     -40.865  54.527 -48.472  1.00  0.00     0.038 A 
ENDBRANCH   1  18
TORSDOF 6
ENDMDL
MODEL 3
REMARK VINA RESULT:      -7.1      2.644      6.906
REMARK  6 active torsions:
REMARK  status: ('A' for Active; 'I' for Inactive)
REMARK    1  A    between atoms: C_6  and  C_7 
REMARK       I    between atoms: C_7  and  N_8 
REMARK    2  A    between atoms: N_8  and  C_9 
REMARK    3  A    between atoms: C_9  and  C_10 
REMARK    4  A    between atoms: C_10  and  O_11 
REMARK    5  A    between atoms: C_10  and  C_12 
REMARK    6  A    between atoms: C_15  and  O_16 
ROOT
HETATM    1  C   UNL     1     -42.664  55.958 -52.914  1.00  0.00     0.258 C 
HETATM    2  N   UNL     1     -42.035  55.770 -54.125  1.00  0.00    -0.350 N 
HETATM    3  O   UNL     1     -43.357  55.097 -52.384  1.00  0.00    -0.267 OA
HETATM    4  H   UNL     1     -41.491  56.550 -54.492  1.00  0.00     0.163 HD
ENDROOT
BRANCH   2   5
HETATM    5  C   UNL     1     -42.140  54.546 -54.931  1.00  0.00     0.114 C 
HETATM    6  C   UNL     1     -42.930  54.795 -56.218  1.00  0.00     0.035 C 
BRANCH   5   7
HETATM    7  C   UNL     1     -40.741  53.911 -55.174  1.00  0.00     0.173 C 
BRANCH   7   8
HETATM    8  O   UNL     1     -39.755  54.959 -55.147  1.00  0.00    -0.389 OA
HETATM    9  H   UNL     1     -38.896  54.503 -55.171  1.00  0.00     0.210 HD
ENDBRANCH   7   8
BRANCH   7  10
HETATM   10  C   UNL     1     -40.348  52.872 -54.147  1.00  0.00    -0.028 A 
HETATM   11  C   UNL     1     -40.238  53.232 -52.797  1.00  0.00     0.012 A 
HETATM   12  C   UNL     1     -39.872  52.284 -51.837  1.00  0.00     0.037 A 
HETATM   13  C   UNL     1     -39.614  50.962 -52.203  1.00  0.00     0.068 A 
HETATM   14  C   UNL     1     -39.708  50.598 -53.546  1.00  0.00     0.037 A 
HETATM   15  C   UNL     1     -40.071  51.546 -54.510  1.00  0.00     0.012 A 
BRANCH  13  16
HETATM   16  O   UNL     1     -39.279  50.136 -51.166  1.00  0.00    -0.356 OA
HETATM   17  C   UNL     1     -40.136  50.157 -50.032  1.00  0.00     0.210 C 
ENDBRANCH  13  16
ENDBRANCH   7  10
ENDBRANCH   5   7
ENDBRANCH   2   5
BRANCH   1  18
HETATM   18  C   UNL     1     -42.469  57.269 -52.318  1.00  0.00     0.105 A 
HETATM   19  C   UNL     1     -41.818  57.581 -51.094  1.00  0.00     0.071 A 
HETATM   20  C   UNL     1     -41.171  56.642 -50.142  1.00  0.00     0.073 C 
HETATM   21  N   UNL     1     -41.828  58.893 -50.831  1.00  0.00    -0.170 NA
HETATM   22  N   UNL     1     -42.488  59.449 -51.871  1.00  0.00    -0.225 N 
HETATM   23  C   UNL     1     -42.892  58.493 -52.807  1.00  0.00     0.168 A 
HETATM   24  C   UNL     1     -42.781  60.795 -52.062  1.00  0.00     0.122 A 
HETATM   25  N   UNL     1     -43.582  58.837 -53.946  1.00  0.00    -0.240 NA
HETATM   26  C   UNL     1     -43.837  60.105 -54.089  1.00  0.00     0.120 A 
HETATM   27  C   UNL     1     -43.455  61.194 -53.149  1.00  0.00     0.038 A 
ENDBRANCH   1  18
TORSDOF 6
ENDMDL
MODEL 4
REMARK VINA RESULT:      -7.0      3.845      7.962
REMARK  6 active torsions:
REMARK  status: ('A' for Active; 'I' for Inactive)
REMARK    1  A    between atoms: C_6  and  C_7 
REMARK       I    between atoms: C_7  and  N_8 
REMARK    2  A    between atoms: N_8  and  C_9 
REMARK    3  A    between atoms: C_9  and  C_10 
REMARK    4  A    between atoms: C_10  and  O_11 
REMARK    5  A    between atoms: C_10  and  C_12 
REMARK    6  A    between atoms: C_15  and  O_16 
ROOT
HETATM    1  C   UNL     1     -43.160  56.802 -56.893  1.00  0.00     0.258 C 
HETATM    2  N   UNL     1     -42.236  55.863 -56.491  1.00  0.00    -0.350 N 
HETATM    3  O   UNL     1     -44.027  57.242 -56.148  1.00  0.00    -0.267 OA
HETATM    4  H   UNL     1     -41.562  55.547 -57.187  1.00  0.00     0.163 HD
ENDROOT
BRANCH   2   5
HETATM    5  C   UNL     1     -42.195  55.262 -55.150  1.00  0.00     0.114 C 
HETATM    6  C   UNL     1     -42.892  53.900 -55.131  1.00  0.00     0.035 C 
BRANCH   5   7
HETATM    7  C   UNL     1     -40.743  55.225 -54.595  1.00  0.00     0.173 C 
BRANCH   7   8
HETATM    8  O   UNL     1     -40.558  56.360 -53.730  1.00  0.00    -0.389 OA
HETATM    9  H   UNL     1     -41.137  56.196 -52.964  1.00  0.00     0.210 HD
ENDBRANCH   7   8
BRANCH   7  10
HETATM   10  C   UNL     1     -40.416  53.976 -53.805  1.00  0.00    -0.028 A 
HETATM   11  C   UNL     1     -39.990  52.820 -54.474  1.00  0.00     0.012 A 
HETATM   12  C   UNL     1     -39.688  51.658 -53.759  1.00  0.00     0.037 A 
HETATM   13  C   UNL     1     -39.798  51.628 -52.368  1.00  0.00     0.068 A 
HETATM   14  C   UNL     1     -40.232  52.770 -51.695  1.00  0.00     0.037 A 
HETATM   15  C   UNL     1     -40.540  53.934 -52.409  1.00  0.00     0.012 A 
BRANCH  13  16
HETATM   16  O   UNL     1     -39.459  50.434 -51.793  1.00  0.00    -0.356 OA
HETATM   17  C   UNL     1     -40.021  50.160 -50.517  1.00  0.00     0.210 C 
ENDBRANCH  13  16
ENDBRANCH   7  10
ENDBRANCH   5   7
ENDBRANCH   2   5
BRANCH   1  18
HETATM   18  C   UNL     1     -43.050  57.215 -58.282  1.00  0.00     0.105 A 
HETATM   19  C   UNL     1     -43.358  56.456 -59.444  1.00  0.00     0.071 A 
HETATM   20  C   UNL     1     -43.880  55.066 -59.511  1.00  0.00     0.073 C 
HETATM   21  N   UNL     1     -43.128  57.135 -60.573  1.00  0.00    -0.170 NA
HETATM   22  N   UNL     1     -42.660  58.336 -60.165  1.00  0.00    -0.225 N 
HETATM   23  C   UNL     1     -42.603  58.430 -58.771  1.00  0.00     0.168 A 
HETATM   24  C   UNL     1     -42.256  59.401 -60.963  1.00  0.00     0.122 A 
HETATM   25  N   UNL     1     -42.157  59.566 -58.137  1.00  0.00    -0.240 NA
HETATM   26  C   UNL     1     -41.787  60.539 -58.918  1.00  0.00     0.120 A 
HETATM   27  C   UNL     1     -41.807  60.533 -60.406  1.00  0.00     0.038 A 
ENDBRANCH   1  18
TORSDOF 6
ENDMDL
MODEL 5
REMARK VINA RESULT:      -7.0      3.454      7.427
REMARK  6 active torsions:
REMARK  status: ('A' for Active; 'I' for Inactive)
REMARK    1  A    between atoms: C_6  and  C_7 
REMARK       I    between atoms: C_7  and  N_8 
REMARK    2  A    between atoms: N_8  and  C_9 
REMARK    3  A    between atoms: C_9  and  C_10 
REMARK    4  A    between atoms: C_10  and  O_11 
REMARK    5  A    between atoms: C_10  and  C_12 
REMARK    6  A    between atoms: C_15  and  O_16 
ROOT
HETATM    1  C   UNL     1     -43.302  57.292 -56.640  1.00  0.00     0.258 C 
HETATM    2  N   UNL     1     -43.794  56.697 -55.499  1.00  0.00    -0.350 N 
HETATM    3  O   UNL     1     -42.160  57.730 -56.721  1.00  0.00    -0.267 OA
HETATM    4  H   UNL     1     -44.761  56.376 -55.524  1.00  0.00     0.163 HD
ENDROOT
BRANCH   2   5
HETATM    5  C   UNL     1     -43.034  56.544 -54.251  1.00  0.00     0.114 C 
HETATM    6  C   UNL     1     -43.141  57.797 -53.379  1.00  0.00     0.035 C 
BRANCH   5   7
HETATM    7  C   UNL     1     -43.429  55.235 -53.510  1.00  0.00     0.173 C 
BRANCH   7   8
HETATM    8  O   UNL     1     -44.520  54.621 -54.219  1.00  0.00    -0.389 OA
HETATM    9  H   UNL     1     -45.117  55.353 -54.454  1.00  0.00     0.210 HD
ENDBRANCH   7   8
BRANCH   7  10
HETATM   10  C   UNL     1     -42.309  54.222 -53.407  1.00  0.00    -0.028 A 
HETATM   11  C   UNL     1     -41.965  53.446 -54.522  1.00  0.00     0.012 A 
HETATM   12  C   UNL     1     -40.937  52.503 -54.442  1.00  0.00     0.037 A 
HETATM   13  C   UNL     1     -40.229  52.321 -53.253  1.00  0.00     0.068 A 
HETATM   14  C   UNL     1     -40.572  53.079 -52.134  1.00  0.00     0.037 A 
HETATM   15  C   UNL     1     -41.605  54.021 -52.211  1.00  0.00     0.012 A 
BRANCH  13  16
HETATM   16  O   UNL     1     -39.241  51.378 -53.314  1.00  0.00    -0.356 OA
HETATM   17  C   UNL     1     -39.520  50.212 -54.078  1.00  0.00     0.210 C 
ENDBRANCH  13  16
ENDBRANCH   7  10
ENDBRANCH   5   7
ENDBRANCH   2   5
BRANCH   1  18
HETATM   18  C   UNL     1     -44.248  57.389 -57.738  1.00  0.00     0.105 A 
HETATM   19  C   UNL     1     -45.215  58.405 -57.969  1.00  0.00     0.071 A 
HETATM   20  C   UNL     1     -45.475  59.617 -57.148  1.00  0.00     0.073 C 
HETATM   21  N   UNL     1     -45.939  58.180 -59.071  1.00  0.00    -0.170 NA
HETATM   22  N   UNL     1     -45.463  57.017 -59.566  1.00  0.00    -0.225 N 
HETATM   23  C   UNL     1     -44.423  56.502 -58.786  1.00  0.00     0.168 A 
HETATM   24  C   UNL     1     -45.899  56.340 -60.700  1.00  0.00     0.122 A 
HETATM   25  N   UNL     1     -43.791  55.323 -59.105  1.00  0.00    -0.240 NA
HETATM   26  C   UNL     1     -44.228  54.719 -60.172  1.00  0.00     0.120 A 
HETATM   27  C   UNL     1     -45.327  55.184 -61.061  1.00  0.00     0.038 A 
ENDBRANCH   1  18
TORSDOF 6
ENDMDL
MODEL 6
REMARK VINA RESULT:      -7.0      2.449      6.743
REMARK  6 active torsions:
REMARK  status: ('A' for Active; 'I' for Inactive)
REMARK    1  A    between atoms: C_6  and  C_7 
REMARK       I    between atoms: C_7  and  N_8 
REMARK    2  A    between atoms: N_8  and  C_9 
REMARK    3  A    between atoms: C_9  and  C_10 
REMARK    4  A    between atoms: C_10  and  O_11 
REMARK    5  A    between atoms: C_10  and  C_12 
REMARK    6  A    between atoms: C_15  and  O_16 
ROOT
HETATM    1  C   UNL     1     -43.085  56.219 -53.325  1.00  0.00     0.258 C 
HETATM    2  N   UNL     1     -42.377  56.035 -54.492  1.00  0.00    -0.350 N 
HETATM    3  O   UNL     1     -43.681  55.309 -52.759  1.00  0.00    -0.267 OA
HETATM    4  H   UNL     1     -41.925  56.854 -54.895  1.00  0.00     0.163 HD
ENDROOT
BRANCH   2   5
HETATM    5  C   UNL     1     -42.276  54.754 -55.207  1.00  0.00     0.114 C 
HETATM    6  C   UNL     1     -42.938  54.834 -56.584  1.00  0.00     0.035 C 
BRANCH   5   7
HETATM    7  C   UNL     1     -40.806  54.251 -55.252  1.00  0.00     0.173 C 
BRANCH   7   8
HETATM    8  O   UNL     1     -39.931  55.390 -55.163  1.00  0.00    -0.389 OA
HETATM    9  H   UNL     1     -39.076  55.034 -54.863  1.00  0.00     0.210 HD
ENDBRANCH   7   8
BRANCH   7  10
HETATM   10  C   UNL     1     -40.445  53.295 -54.136  1.00  0.00    -0.028 A 
HETATM   11  C   UNL     1     -40.482  53.732 -52.804  1.00  0.00     0.012 A 
HETATM   12  C   UNL     1     -40.148  52.863 -51.763  1.00  0.00     0.037 A 
HETATM   13  C   UNL     1     -39.777  51.543 -52.027  1.00  0.00     0.068 A 
HETATM   14  C   UNL     1     -39.725  51.103 -53.349  1.00  0.00     0.037 A 
HETATM   15  C   UNL     1     -40.055  51.973 -54.395  1.00  0.00     0.012 A 
BRANCH  13  16
HETATM   16  O   UNL     1     -39.489  50.797 -50.918  1.00  0.00    -0.356 OA
HETATM   17  C   UNL     1     -39.823  49.416 -50.974  1.00  0.00     0.210 C 
ENDBRANCH  13  16
ENDBRANCH   7  10
ENDBRANCH   5   7
ENDBRANCH   2   5
BRANCH   1  18
HETATM   18  C   UNL     1     -43.097  57.582 -52.823  1.00  0.00     0.105 A 
HETATM   19  C   UNL     1     -43.958  58.645 -53.210  1.00  0.00     0.071 A 
HETATM   20  C   UNL     1     -45.060  58.607 -54.207  1.00  0.00     0.073 C 
HETATM   21  N   UNL     1     -43.689  59.782 -52.558  1.00  0.00    -0.170 NA
HETATM   22  N   UNL     1     -42.650  59.480 -51.750  1.00  0.00    -0.225 N 
HETATM   23  C   UNL     1     -42.260  58.144 -51.875  1.00  0.00     0.168 A 
HETATM   24  C   UNL     1     -41.984  60.333 -50.876  1.00  0.00     0.122 A 
HETATM   25  N   UNL     1     -41.219  57.619 -51.145  1.00  0.00    -0.240 NA
HETATM   26  C   UNL     1     -40.621  58.448 -50.339  1.00  0.00     0.120 A 
HETATM   27  C   UNL     1     -40.959  59.884 -50.141  1.00  0.00     0.038 A 
ENDBRANCH   1  18
TORSDOF 6
ENDMDL
MODEL 7
REMARK VINA RESULT:      -6.9      3.773      8.041
REMARK  6 active torsions:
REMARK  status: ('A' for Active; 'I' for Inactive)
REMARK    1  A    between atoms: C_6  and  C_7 
REMARK       I    between atoms: C_7  and  N_8 
REMARK    2  A    between atoms: N_8  and  C_9 
REMARK    3  A    between atoms: C_9  and  C_10 
REMARK    4  A    between atoms: C_10  and  O_11 
REMARK    5  A    between atoms: C_10  and  C_12 
REMARK    6  A    between atoms: C_15  and  O_16 
ROOT
HETATM    1  C   UNL     1     -43.333  57.128 -56.877  1.00  0.00     0.258 C 
HETATM    2  N   UNL     1     -43.860  56.740 -55.665  1.00  0.00    -0.350 N 
HETATM    3  O   UNL     1     -42.141  57.363 -57.039  1.00  0.00    -0.267 OA
HETATM    4  H   UNL     1     -44.866  56.580 -55.626  1.00  0.00     0.163 HD
ENDROOT
BRANCH   2   5
HETATM    5  C   UNL     1     -43.076  56.592 -54.431  1.00  0.00     0.114 C 
HETATM    6  C   UNL     1     -43.119  57.870 -53.590  1.00  0.00     0.035 C 
BRANCH   5   7
HETATM    7  C   UNL     1     -43.498  55.318 -53.646  1.00  0.00     0.173 C 
BRANCH   7   8
HETATM    8  O   UNL     1     -44.566  54.674 -54.364  1.00  0.00    -0.389 OA
HETATM    9  H   UNL     1     -44.144  54.263 -55.139  1.00  0.00     0.210 HD
ENDBRANCH   7   8
BRANCH   7  10
HETATM   10  C   UNL     1     -42.385  54.309 -53.461  1.00  0.00    -0.028 A 
HETATM   11  C   UNL     1     -41.987  53.504 -54.537  1.00  0.00     0.012 A 
HETATM   12  C   UNL     1     -40.964  52.566 -54.381  1.00  0.00     0.037 A 
HETATM   13  C   UNL     1     -40.315  52.416 -53.154  1.00  0.00     0.068 A 
HETATM   14  C   UNL     1     -40.713  53.204 -52.074  1.00  0.00     0.037 A 
HETATM   15  C   UNL     1     -41.740  54.142 -52.227  1.00  0.00     0.012 A 
BRANCH  13  16
HETATM   16  O   UNL     1     -39.325  51.473 -53.141  1.00  0.00    -0.356 OA
HETATM   17  C   UNL     1     -39.511  50.343 -53.984  1.00  0.00     0.210 C 
ENDBRANCH  13  16
ENDBRANCH   7  10
ENDBRANCH   5   7
ENDBRANCH   2   5
BRANCH   1  18
HETATM   18  C   UNL     1     -44.302  57.266 -57.951  1.00  0.00     0.105 A 
HETATM   19  C   UNL     1     -44.354  56.546 -59.176  1.00  0.00     0.071 A 
HETATM   20  C   UNL     1     -43.438  55.471 -59.639  1.00  0.00     0.073 C 
HETATM   21  N   UNL     1     -45.371  56.933 -59.953  1.00  0.00    -0.170 NA
HETATM   22  N   UNL     1     -45.988  57.911 -59.254  1.00  0.00    -0.225 N 
HETATM   23  C   UNL     1     -45.371  58.142 -58.021  1.00  0.00     0.168 A 
HETATM   24  C   UNL     1     -47.099  58.654 -59.639  1.00  0.00     0.122 A 
HETATM   25  N   UNL     1     -45.833  59.097 -57.144  1.00  0.00    -0.240 NA
HETATM   26  C   UNL     1     -46.873  59.771 -57.542  1.00  0.00     0.120 A 
HETATM   27  C   UNL     1     -47.594  59.601 -58.833  1.00  0.00     0.038 A 
ENDBRANCH   1  18
TORSDOF 6
ENDMDL
MODEL 8
REMARK VINA RESULT:      -6.9      2.862      6.819
REMARK  6 active torsions:
REMARK  status: ('A' for Active; 'I' for Inactive)
REMARK    1  A    between atoms: C_6  and  C_7 
REMARK       I    between atoms: C_7  and  N_8 
REMARK    2  A    between atoms: N_8  and  C_9 
REMARK    3  A    between atoms: C_9  and  C_10 
REMARK    4  A    between atoms: C_10  and  O_11 
REMARK    5  A    between atoms: C_10  and  C_12 
REMARK    6  A    between atoms: C_15  and  O_16 
ROOT
HETATM    1  C   UNL     1     -41.841  56.953 -54.554  1.00  0.00     0.258 C 
HETATM    2  N   UNL     1     -42.743  56.887 -53.516  1.00  0.00    -0.350 N 
HETATM    3  O   UNL     1     -40.705  56.498 -54.477  1.00  0.00    -0.267 OA
HETATM    4  H   UNL     1     -43.660  57.305 -53.670  1.00  0.00     0.163 HD
ENDROOT
BRANCH   2   5
HETATM    5  C   UNL     1     -42.451  56.299 -52.201  1.00  0.00     0.114 C 
HETATM    6  C   UNL     1     -42.993  57.176 -51.069  1.00  0.00     0.035 C 
BRANCH   5   7
HETATM    7  C   UNL     1     -42.931  54.822 -52.127  1.00  0.00     0.173 C 
BRANCH   7   8
HETATM    8  O   UNL     1     -44.048  54.660 -53.019  1.00  0.00    -0.389 OA
HETATM    9  H   UNL     1     -44.598  53.964 -52.619  1.00  0.00     0.210 HD
ENDBRANCH   7   8
BRANCH   7  10
HETATM   10  C   UNL     1     -41.874  53.809 -52.511  1.00  0.00    -0.028 A 
HETATM   11  C   UNL     1     -41.798  53.349 -53.833  1.00  0.00     0.012 A 
HETATM   12  C   UNL     1     -40.831  52.410 -54.202  1.00  0.00     0.037 A 
HETATM   13  C   UNL     1     -39.919  51.920 -53.266  1.00  0.00     0.068 A 
HETATM   14  C   UNL     1     -39.996  52.363 -51.946  1.00  0.00     0.037 A 
HETATM   15  C   UNL     1     -40.967  53.299 -51.572  1.00  0.00     0.012 A 
BRANCH  13  16
HETATM   16  O   UNL     1     -39.019  51.018 -53.762  1.00  0.00    -0.356 OA
HETATM   17  C   UNL     1     -39.542  49.773 -54.207  1.00  0.00     0.210 C 
ENDBRANCH  13  16
ENDBRANCH   7  10
ENDBRANCH   5   7
ENDBRANCH   2   5
BRANCH   1  18
HETATM   18  C   UNL     1     -42.324  57.630 -55.746  1.00  0.00     0.105 A 
HETATM   19  C   UNL     1     -42.462  59.028 -55.958  1.00  0.00     0.071 A 
HETATM   20  C   UNL     1     -42.128  60.129 -55.017  1.00  0.00     0.073 C 
HETATM   21  N   UNL     1     -42.954  59.314 -57.168  1.00  0.00    -0.170 NA
HETATM   22  N   UNL     1     -43.151  58.113 -57.755  1.00  0.00    -0.225 N 
HETATM   23  C   UNL     1     -42.773  57.056 -56.923  1.00  0.00     0.168 A 
HETATM   24  C   UNL     1     -43.668  57.866 -59.022  1.00  0.00     0.122 A 
HETATM   25  N   UNL     1     -42.888  55.743 -57.317  1.00  0.00    -0.240 NA
HETATM   26  C   UNL     1     -43.377  55.553 -58.508  1.00  0.00     0.120 A 
HETATM   27  C   UNL     1     -43.811  56.610 -59.462  1.00  0.00     0.038 A 
ENDBRANCH   1  18
TORSDOF 6
ENDMDL
MODEL 9
REMARK VINA RESULT:      -6.8      2.031      4.334
REMARK  6 active torsions:
REMARK  status: ('A' for Active; 'I' for Inactive)
REMARK    1  A    between atoms: C_6  and  C_7 
REMARK       I    between atoms: C_7  and  N_8 
REMARK    2  A    between atoms: N_8  and  C_9 
REMARK    3  A    between atoms: C_9  and  C_10 
REMARK    4  A    between atoms: C_10  and  O_11 
REMARK    5  A    between atoms: C_10  and  C_12 
REMARK    6  A    between atoms: C_15  and  O_16 
ROOT
HETATM    1  C   UNL     1     -41.937  55.440 -51.499  1.00  0.00     0.258 C 
HETATM    2  N   UNL     1     -41.510  56.223 -52.548  1.00  0.00    -0.350 N 
HETATM    3  O   UNL     1     -42.865  55.760 -50.765  1.00  0.00    -0.267 OA
HETATM    4  H   UNL     1     -40.722  55.879 -53.094  1.00  0.00     0.163 HD
ENDROOT
BRANCH   2   5
HETATM    5  C   UNL     1     -42.085  57.531 -52.893  1.00  0.00     0.114 C 
HETATM    6  C   UNL     1     -41.075  58.401 -53.645  1.00  0.00     0.035 C 
BRANCH   5   7
HETATM    7  C   UNL     1     -43.442  57.371 -53.636  1.00  0.00     0.173 C 
BRANCH   7   8
HETATM    8  O   UNL     1     -44.105  58.647 -53.654  1.00  0.00    -0.389 OA
HETATM    9  H   UNL     1     -45.050  58.447 -53.527  1.00  0.00     0.210 HD
ENDBRANCH   7   8
BRANCH   7  10
HETATM   10  C   UNL     1     -43.310  56.892 -55.065  1.00  0.00    -0.028 A 
HETATM   11  C   UNL     1     -43.500  57.792 -56.123  1.00  0.00     0.012 A 
HETATM   12  C   UNL     1     -43.386  57.364 -57.448  1.00  0.00     0.037 A 
HETATM   13  C   UNL     1     -43.074  56.036 -57.744  1.00  0.00     0.068 A 
HETATM   14  C   UNL     1     -42.895  55.131 -56.699  1.00  0.00     0.037 A 
HETATM   15  C   UNL     1     -43.013  55.555 -55.370  1.00  0.00     0.012 A 
BRANCH  13  16
HETATM   16  O   UNL     1     -42.980  55.755 -59.079  1.00  0.00    -0.356 OA
HETATM   17  C   UNL     1     -44.052  55.018 -59.652  1.00  0.00     0.210 C 
ENDBRANCH  13  16
ENDBRANCH   7  10
ENDBRANCH   5   7
ENDBRANCH   2   5
BRANCH   1  18
HETATM   18  C   UNL     1     -41.186  54.211 -51.306  1.00  0.00     0.105 A 
HETATM   19  C   UNL     1     -40.684  53.679 -50.088  1.00  0.00     0.071 A 
HETATM   20  C   UNL     1     -40.821  54.248 -48.721  1.00  0.00     0.073 C 
HETATM   21  N   UNL     1     -40.020  52.532 -50.267  1.00  0.00    -0.170 NA
HETATM   22  N   UNL     1     -40.073  52.305 -51.598  1.00  0.00    -0.225 N 
HETATM   23  C   UNL     1     -40.783  53.304 -52.271  1.00  0.00     0.168 A 
HETATM   24  C   UNL     1     -39.513  51.241 -52.296  1.00  0.00     0.122 A 
HETATM   25  N   UNL     1     -40.961  53.275 -53.634  1.00  0.00    -0.240 NA
HETATM   26  C   UNL     1     -40.421  52.265 -54.253  1.00  0.00     0.120 A 
HETATM   27  C   UNL     1     -39.647  51.159 -53.626  1.00  0.00     0.038 A 
ENDBRANCH   1  18
TORSDOF 6
ENDMDL
MODEL 10
REMARK VINA RESULT:      -6.7      3.216      7.459
REMARK  6 active torsions:
REMARK  status: ('A' for Active; 'I' for Inactive)
REMARK    1  A    between atoms: C_6  and  C_7 
REMARK       I    between atoms: C_7  and  N_8 
REMARK    2  A    between atoms: N_8  and  C_9 
REMARK    3  A    between atoms: C_9  and  C_10 
REMARK    4  A    between atoms: C_10  and  O_11 
REMARK    5  A    between atoms: C_10  and  C_12 
REMARK    6  A    between atoms: C_15  and  O_16 
ROOT
HETATM    1  C   UNL     1     -42.769  57.191 -51.620  1.00  0.00     0.258 C 
HETATM    2  N   UNL     1     -42.870  56.912 -52.965  1.00  0.00    -0.350 N 
HETATM    3  O   UNL     1     -42.638  56.318 -50.769  1.00  0.00    -0.267 OA
HETATM    4  H   UNL     1     -42.990  57.703 -53.596  1.00  0.00     0.163 HD
ENDROOT
BRANCH   2   5
HETATM    5  C   UNL     1     -42.864  55.556 -53.533  1.00  0.00     0.114 C 
HETATM    6  C   UNL     1     -44.001  55.371 -54.539  1.00  0.00     0.035 C 
BRANCH   5   7
HETATM    7  C   UNL     1     -41.464  55.193 -54.104  1.00  0.00     0.173 C 
BRANCH   7   8
HETATM    8  O   UNL     1     -40.567  56.286 -53.841  1.00  0.00    -0.389 OA
HETATM    9  H   UNL     1     -39.780  55.881 -53.436  1.00  0.00     0.210 HD
ENDBRANCH   7   8
BRANCH   7  10
HETATM   10  C   UNL     1     -40.860  53.939 -53.508  1.00  0.00    -0.028 A 
HETATM   11  C   UNL     1     -40.522  52.864 -54.340  1.00  0.00     0.012 A 
HETATM   12  C   UNL     1     -39.968  51.698 -53.805  1.00  0.00     0.037 A 
HETATM   13  C   UNL     1     -39.735  51.585 -52.433  1.00  0.00     0.068 A 
HETATM   14  C   UNL     1     -40.079  52.645 -51.595  1.00  0.00     0.037 A 
HETATM   15  C   UNL     1     -40.638  53.812 -52.129  1.00  0.00     0.012 A 
BRANCH  13  16
HETATM   16  O   UNL     1     -39.177  50.399 -52.043  1.00  0.00    -0.356 OA
HETATM   17  C   UNL     1     -39.622  49.862 -50.805  1.00  0.00     0.210 C 
ENDBRANCH  13  16
ENDBRANCH   7  10
ENDBRANCH   5   7
ENDBRANCH   2   5
BRANCH   1  18
HETATM   18  C   UNL     1     -42.856  58.600 -51.277  1.00  0.00     0.105 A 
HETATM   19  C   UNL     1     -41.818  59.448 -50.807  1.00  0.00     0.071 A 
HETATM   20  C   UNL     1     -40.393  59.098 -50.571  1.00  0.00     0.073 C 
HETATM   21  N   UNL     1     -42.244  60.694 -50.571  1.00  0.00    -0.170 NA
HETATM   22  N   UNL     1     -43.561  60.672 -50.873  1.00  0.00    -0.225 N 
HETATM   23  C   UNL     1     -43.976  59.413 -51.316  1.00  0.00     0.168 A 
HETATM   24  C   UNL     1     -44.467  61.723 -50.779  1.00  0.00     0.122 A 
HETATM   25  N   UNL     1     -45.279  59.163 -51.677  1.00  0.00    -0.240 NA
HETATM   26  C   UNL     1     -46.096  60.171 -51.574  1.00  0.00     0.120 A 
HETATM   27  C   UNL     1     -45.751  61.542 -51.111  1.00  0.00     0.038 A 
ENDBRANCH   1  18
TORSDOF 6
ENDMDL
