MODEL 1
REMARK VINA RESULT:      -9.4      0.000      0.000
REMARK  6 active torsions:
REMARK  status: ('A' for Active; 'I' for Inactive)
REMARK    1  A    between atoms: C_2  and  C_3 
REMARK    2  A    between atoms: C_3  and  C_4 
REMARK    3  A    between atoms: N_7  and  C_9 
REMARK    4  A    between atoms: C_9  and  C_10 
REMARK    5  A    between atoms: N_23  and  C_24 
REMARK    6  A    between atoms: C_24  and  C_25 
ROOT
HETATM    1  C   UNL     1     -43.181  57.562 -55.436  1.00  0.00     0.119 A 
HETATM    2  N   UNL     1     -41.772  57.776 -55.210  1.00  0.00    -0.324 N 
HETATM    3  C   UNL     1     -41.495  58.079 -53.891  1.00  0.00     0.326 A 
HETATM    4  O   UNL     1     -40.353  58.208 -53.487  1.00  0.00    -0.247 OA
HETATM    5  N   UNL     1     -42.657  58.098 -53.191  1.00  0.00    -0.264 N 
HETATM    6  C   UNL     1     -43.722  57.870 -54.018  1.00  0.00     0.257 A 
HETATM    7  O   UNL     1     -44.899  57.816 -53.698  1.00  0.00    -0.270 OA
HETATM    8  H   UNL     1     -41.092  58.070 -55.902  1.00  0.00     0.165 HD
ENDROOT
BRANCH   1   9
HETATM    9  C   UNL     1     -43.756  58.546 -56.472  1.00  0.00     0.037 C 
HETATM   10  C   UNL     1     -44.965  58.031 -57.249  1.00  0.00     0.008 C 
ENDBRANCH   1   9
BRANCH   1  11
HETATM   11  C   UNL     1     -43.509  56.058 -55.778  1.00  0.00     0.026 C 
HETATM   12  C   UNL     1     -43.982  55.188 -54.594  1.00  0.00     0.035 C 
HETATM   13  C   UNL     1     -42.880  54.767 -53.631  1.00  0.00     0.235 C 
HETATM   14  N   UNL     1     -41.731  54.113 -54.356  1.00  0.00    -0.067 N 
HETATM   15  H   UNL     1     -42.071  53.195 -54.672  1.00  0.00     0.280 HD
HETATM   16  C   UNL     1     -41.245  54.863 -55.575  1.00  0.00     0.235 C 
HETATM   17  C   UNL     1     -42.391  55.274 -56.487  1.00  0.00     0.035 C 
BRANCH  14  18
HETATM   18  C   UNL     1     -40.547  53.843 -53.432  1.00  0.00     0.273 C 
BRANCH  18  19
HETATM   19  C   UNL     1     -40.215  52.392 -53.218  1.00  0.00    -0.027 A 
HETATM   20  C   UNL     1     -39.885  51.899 -51.949  1.00  0.00     0.051 A 
HETATM   21  C   UNL     1     -39.570  50.549 -51.785  1.00  0.00     0.119 A 
HETATM   22  F   UNL     1     -39.258  50.101 -50.562  1.00  0.00    -0.206 F 
HETATM   23  C   UNL     1     -39.568  49.670 -52.857  1.00  0.00     0.084 A 
HETATM   24  C   UNL     1     -39.894  50.156 -54.113  1.00  0.00     0.119 A 
HETATM   25  F   UNL     1     -39.891  49.331 -55.166  1.00  0.00    -0.206 F 
HETATM   26  C   UNL     1     -40.215  51.499 -54.305  1.00  0.00     0.051 A 
ENDBRANCH  18  19
ENDBRANCH  14  18
ENDBRANCH   1  11
BRANCH   5  27
HETATM   27  C   UNL     1     -42.752  58.265 -51.758  1.00  0.00     0.175 C 
BRANCH  27  28
HETATM   28  C   UNL     1     -42.484  56.993 -50.995  1.00  0.00    -0.037 A 
HETATM   29  C   UNL     1     -41.176  56.687 -50.581  1.00  0.00     0.048 A 
HETATM   30  C   UNL     1     -40.964  55.489 -49.934  1.00  0.00     0.105 A 
HETATM   31  C   UNL     1     -41.989  54.613 -49.675  1.00  0.00     0.105 A 
HETATM   32  O   UNL     1     -39.761  55.028 -49.498  1.00  0.00    -0.323 OA
HETATM   33  O   UNL     1     -41.561  53.488 -49.043  1.00  0.00    -0.323 OA
HETATM   34  C   UNL     1     -43.288  54.890 -50.041  1.00  0.00     0.040 A 
HETATM   35  C   UNL     1     -40.142  53.739 -48.968  1.00  0.00     0.352 A 
HETATM   36  C   UNL     1     -43.537  56.094 -50.708  1.00  0.00     0.012 A 
ENDBRANCH  27  28
ENDBRANCH   5  27
TORSDOF 6
ENDMDL
MODEL 2
REMARK VINA RESULT:      -9.3      2.454      3.648
REMARK  6 active torsions:
REMARK  status: ('A' for Active; 'I' for Inactive)
REMARK    1  A    between atoms: C_2  and  C_3 
REMARK    2  A    between atoms: C_3  and  C_4 
REMARK    3  A    between atoms: N_7  and  C_9 
REMARK    4  A    between atoms: C_9  and  C_10 
REMARK    5  A    between atoms: N_23  and  C_24 
REMARK    6  A    between atoms: C_24  and  C_25 
ROOT
HETATM    1  C   UNL     1     -43.086  57.094 -55.122  1.00  0.00     0.119 A 
HETATM    2  N   UNL     1     -41.865  57.593 -54.537  1.00  0.00    -0.324 N 
HETATM    3  C   UNL     1     -42.000  58.886 -54.072  1.00  0.00     0.326 A 
HETATM    4  O   UNL     1     -41.105  59.450 -53.467  1.00  0.00    -0.247 OA
HETATM    5  N   UNL     1     -43.263  59.314 -54.324  1.00  0.00    -0.264 N 
HETATM    6  C   UNL     1     -43.970  58.358 -54.999  1.00  0.00     0.257 A 
HETATM    7  O   UNL     1     -45.133  58.431 -55.365  1.00  0.00    -0.270 OA
HETATM    8  H   UNL     1     -40.925  57.275 -54.747  1.00  0.00     0.165 HD
ENDROOT
BRANCH   1   9
HETATM    9  C   UNL     1     -42.897  56.695 -56.598  1.00  0.00     0.037 C 
HETATM   10  C   UNL     1     -42.459  57.829 -57.522  1.00  0.00     0.008 C 
ENDBRANCH   1   9
BRANCH   1  11
HETATM   11  C   UNL     1     -43.735  55.945 -54.260  1.00  0.00     0.026 C 
HETATM   12  C   UNL     1     -43.398  55.964 -52.753  1.00  0.00     0.035 C 
HETATM   13  C   UNL     1     -41.996  55.481 -52.407  1.00  0.00     0.235 C 
HETATM   14  N   UNL     1     -41.713  54.126 -53.007  1.00  0.00    -0.067 N 
HETATM   15  H   UNL     1     -42.284  53.451 -52.482  1.00  0.00     0.280 HD
HETATM   16  C   UNL     1     -42.079  53.994 -54.468  1.00  0.00     0.235 C 
HETATM   17  C   UNL     1     -43.481  54.511 -54.754  1.00  0.00     0.035 C 
BRANCH  14  18
HETATM   18  C   UNL     1     -40.258  53.705 -52.818  1.00  0.00     0.273 C 
BRANCH  18  19
HETATM   19  C   UNL     1     -40.020  52.221 -52.764  1.00  0.00    -0.027 A 
HETATM   20  C   UNL     1     -39.760  51.570 -51.551  1.00  0.00     0.051 A 
HETATM   21  C   UNL     1     -39.531  50.193 -51.534  1.00  0.00     0.119 A 
HETATM   22  F   UNL     1     -39.284  49.592 -50.364  1.00  0.00    -0.206 F 
HETATM   23  C   UNL     1     -39.547  49.442 -52.700  1.00  0.00     0.084 A 
HETATM   24  C   UNL     1     -39.803  50.085 -53.899  1.00  0.00     0.119 A 
HETATM   25  F   UNL     1     -39.815  49.385 -55.039  1.00  0.00    -0.206 F 
HETATM   26  C   UNL     1     -40.037  51.459 -53.945  1.00  0.00     0.051 A 
ENDBRANCH  18  19
ENDBRANCH  14  18
ENDBRANCH   1  11
BRANCH   5  27
HETATM   27  C   UNL     1     -43.808  60.576 -53.877  1.00  0.00     0.175 C 
BRANCH  27  28
HETATM   28  C   UNL     1     -44.395  60.511 -52.491  1.00  0.00    -0.037 A 
HETATM   29  C   UNL     1     -43.926  61.378 -51.489  1.00  0.00     0.048 A 
HETATM   30  C   UNL     1     -44.450  61.250 -50.221  1.00  0.00     0.105 A 
HETATM   31  C   UNL     1     -45.415  60.319 -49.926  1.00  0.00     0.105 A 
HETATM   32  O   UNL     1     -44.085  61.985 -49.136  1.00  0.00    -0.323 OA
HETATM   33  O   UNL     1     -45.781  60.349 -48.617  1.00  0.00    -0.323 OA
HETATM   34  C   UNL     1     -45.919  59.469 -50.887  1.00  0.00     0.040 A 
HETATM   35  C   UNL     1     -44.907  61.382 -48.113  1.00  0.00     0.352 A 
HETATM   36  C   UNL     1     -45.403  59.568 -52.183  1.00  0.00     0.012 A 
ENDBRANCH  27  28
ENDBRANCH   5  27
TORSDOF 6
ENDMDL
MODEL 3
REMARK VINA RESULT:      -9.2      3.296      6.507
REMARK  6 active torsions:
REMARK  status: ('A' for Active; 'I' for Inactive)
REMARK    1  A    between atoms: C_2  and  C_3 
REMARK    2  A    between atoms: C_3  and  C_4 
REMARK    3  A    between atoms: N_7  and  C_9 
REMARK    4  A    between atoms: C_9  and  C_10 
REMARK    5  A    between atoms: N_23  and  C_24 
REMARK    6  A    between atoms: C_24  and  C_25 
ROOT
HETATM    1  C   UNL     1     -43.128  56.340 -54.145  1.00  0.00     0.119 A 
HETATM    2  N   UNL     1     -43.956  55.442 -53.377  1.00  0.00    -0.324 N 
HETATM    3  C   UNL     1     -43.225  54.719 -52.455  1.00  0.00     0.326 A 
HETATM    4  O   UNL     1     -43.758  53.972 -51.654  1.00  0.00    -0.247 OA
HETATM    5  N   UNL     1     -41.918  55.067 -52.560  1.00  0.00    -0.264 N 
HETATM    6  C   UNL     1     -41.740  55.969 -53.571  1.00  0.00     0.257 A 
HETATM    7  O   UNL     1     -40.687  56.483 -53.916  1.00  0.00    -0.270 OA
HETATM    8  H   UNL     1     -44.847  55.052 -53.666  1.00  0.00     0.165 HD
ENDROOT
BRANCH   1   9
HETATM    9  C   UNL     1     -43.199  56.041 -55.655  1.00  0.00     0.037 C 
HETATM   10  C   UNL     1     -42.865  54.603 -56.044  1.00  0.00     0.008 C 
ENDBRANCH   1   9
BRANCH   1  11
HETATM   11  C   UNL     1     -43.419  57.852 -53.810  1.00  0.00     0.026 C 
HETATM   12  C   UNL     1     -44.845  58.350 -54.132  1.00  0.00     0.035 C 
HETATM   13  C   UNL     1     -45.120  58.586 -55.611  1.00  0.00     0.235 C 
HETATM   14  N   UNL     1     -44.081  59.488 -56.230  1.00  0.00    -0.067 N 
HETATM   15  H   UNL     1     -44.250  60.428 -55.851  1.00  0.00     0.280 HD
HETATM   16  C   UNL     1     -42.651  59.116 -55.910  1.00  0.00     0.235 C 
HETATM   17  C   UNL     1     -42.444  58.873 -54.423  1.00  0.00     0.035 C 
BRANCH  14  18
HETATM   18  C   UNL     1     -44.241  59.595 -57.745  1.00  0.00     0.273 C 
BRANCH  18  19
HETATM   19  C   UNL     1     -44.332  58.283 -58.475  1.00  0.00    -0.027 A 
HETATM   20  C   UNL     1     -43.182  57.563 -58.823  1.00  0.00     0.051 A 
HETATM   21  C   UNL     1     -43.298  56.354 -59.512  1.00  0.00     0.119 A 
HETATM   22  F   UNL     1     -42.186  55.683 -59.834  1.00  0.00    -0.206 F 
HETATM   23  C   UNL     1     -44.536  55.842 -59.873  1.00  0.00     0.084 A 
HETATM   24  C   UNL     1     -45.673  56.555 -59.530  1.00  0.00     0.119 A 
HETATM   25  F   UNL     1     -46.878  56.087 -59.874  1.00  0.00    -0.206 F 
HETATM   26  C   UNL     1     -45.586  57.763 -58.840  1.00  0.00     0.051 A 
ENDBRANCH  18  19
ENDBRANCH  14  18
ENDBRANCH   1  11
BRANCH   5  27
HETATM   27  C   UNL     1     -40.870  54.604 -51.678  1.00  0.00     0.175 C 
BRANCH  27  28
HETATM   28  C   UNL     1     -40.422  53.196 -51.978  1.00  0.00    -0.037 A 
HETATM   29  C   UNL     1     -40.341  52.755 -53.310  1.00  0.00     0.048 A 
HETATM   30  C   UNL     1     -39.981  51.445 -53.540  1.00  0.00     0.105 A 
HETATM   31  C   UNL     1     -39.688  50.583 -52.512  1.00  0.00     0.105 A 
HETATM   32  O   UNL     1     -39.885  50.853 -54.760  1.00  0.00    -0.323 OA
HETATM   33  O   UNL     1     -39.372  49.337 -52.955  1.00  0.00    -0.323 OA
HETATM   34  C   UNL     1     -39.731  50.985 -51.194  1.00  0.00     0.040 A 
HETATM   35  C   UNL     1     -39.536  49.504 -54.379  1.00  0.00     0.352 A 
HETATM   36  C   UNL     1     -40.102  52.307 -50.926  1.00  0.00     0.012 A 
ENDBRANCH  27  28
ENDBRANCH   5  27
TORSDOF 6
ENDMDL
MODEL 4
REMARK VINA RESULT:      -8.8      2.724      4.621
REMARK  6 active torsions:
REMARK  status: ('A' for Active; 'I' for Inactive)
REMARK    1  A    between atoms: C_2  and  C_3 
REMARK    2  A    between atoms: C_3  and  C_4 
REMARK    3  A    between atoms: N_7  and  C_9 
REMARK    4  A    between atoms: C_9  and  C_10 
REMARK    5  A    between atoms: N_23  and  C_24 
REMARK    6  A    between atoms: C_24  and  C_25 
ROOT
HETATM    1  C   UNL     1     -42.609  56.477 -52.822  1.00  0.00     0.119 A 
HETATM    2  N   UNL     1     -41.368  57.197 -52.980  1.00  0.00    -0.324 N 
HETATM    3  C   UNL     1     -41.570  58.504 -53.378  1.00  0.00     0.326 A 
HETATM    4  O   UNL     1     -40.649  59.295 -53.481  1.00  0.00    -0.247 OA
HETATM    5  N   UNL     1     -42.902  58.720 -53.519  1.00  0.00    -0.264 N 
HETATM    6  C   UNL     1     -43.604  57.572 -53.278  1.00  0.00     0.257 A 
HETATM    7  O   UNL     1     -44.817  57.434 -53.314  1.00  0.00    -0.270 OA
HETATM    8  H   UNL     1     -40.460  56.791 -53.178  1.00  0.00     0.165 HD
ENDROOT
BRANCH   1   9
HETATM    9  C   UNL     1     -42.683  55.246 -53.744  1.00  0.00     0.037 C 
HETATM   10  C   UNL     1     -42.433  55.531 -55.224  1.00  0.00     0.008 C 
ENDBRANCH   1   9
BRANCH   1  11
HETATM   11  C   UNL     1     -42.908  56.127 -51.315  1.00  0.00     0.026 C 
HETATM   12  C   UNL     1     -41.792  56.482 -50.308  1.00  0.00     0.035 C 
HETATM   13  C   UNL     1     -40.594  55.542 -50.327  1.00  0.00     0.235 C 
HETATM   14  N   UNL     1     -41.017  54.102 -50.178  1.00  0.00    -0.067 N 
HETATM   15  H   UNL     1     -41.333  53.991 -49.206  1.00  0.00     0.280 HD
HETATM   16  C   UNL     1     -42.156  53.683 -51.079  1.00  0.00     0.235 C 
HETATM   17  C   UNL     1     -43.313  54.670 -51.033  1.00  0.00     0.035 C 
BRANCH  14  18
HETATM   18  C   UNL     1     -39.850  53.137 -50.369  1.00  0.00     0.273 C 
BRANCH  18  19
HETATM   19  C   UNL     1     -39.863  52.360 -51.656  1.00  0.00    -0.027 A 
HETATM   20  C   UNL     1     -39.666  50.973 -51.671  1.00  0.00     0.051 A 
HETATM   21  C   UNL     1     -39.671  50.281 -52.884  1.00  0.00     0.119 A 
HETATM   22  F   UNL     1     -39.480  48.956 -52.874  1.00  0.00    -0.206 F 
HETATM   23  C   UNL     1     -39.860  50.936 -54.091  1.00  0.00     0.084 A 
HETATM   24  C   UNL     1     -40.054  52.308 -54.077  1.00  0.00     0.119 A 
HETATM   25  F   UNL     1     -40.231  52.965 -55.229  1.00  0.00    -0.206 F 
HETATM   26  C   UNL     1     -40.057  53.023 -52.881  1.00  0.00     0.051 A 
ENDBRANCH  18  19
ENDBRANCH  14  18
ENDBRANCH   1  11
BRANCH   5  27
HETATM   27  C   UNL     1     -43.501  60.003 -53.811  1.00  0.00     0.175 C 
BRANCH  27  28
HETATM   28  C   UNL     1     -44.349  60.532 -52.683  1.00  0.00    -0.037 A 
HETATM   29  C   UNL     1     -43.785  60.714 -51.408  1.00  0.00     0.048 A 
HETATM   30  C   UNL     1     -44.607  61.148 -50.390  1.00  0.00     0.105 A 
HETATM   31  C   UNL     1     -45.937  61.416 -50.597  1.00  0.00     0.105 A 
HETATM   32  O   UNL     1     -44.229  61.344 -49.099  1.00  0.00    -0.323 OA
HETATM   33  O   UNL     1     -46.567  61.815 -49.461  1.00  0.00    -0.323 OA
HETATM   34  C   UNL     1     -46.520  61.275 -51.838  1.00  0.00     0.040 A 
HETATM   35  C   UNL     1     -45.488  61.731 -48.506  1.00  0.00     0.352 A 
HETATM   36  C   UNL     1     -45.716  60.828 -52.891  1.00  0.00     0.012 A 
ENDBRANCH  27  28
ENDBRANCH   5  27
TORSDOF 6
ENDMDL
MODEL 5
REMARK VINA RESULT:      -8.8      2.944      4.629
REMARK  6 active torsions:
REMARK  status: ('A' for Active; 'I' for Inactive)
REMARK    1  A    between atoms: C_2  and  C_3 
REMARK    2  A    between atoms: C_3  and  C_4 
REMARK    3  A    between atoms: N_7  and  C_9 
REMARK    4  A    between atoms: C_9  and  C_10 
REMARK    5  A    between atoms: N_23  and  C_24 
REMARK    6  A    between atoms: C_24  and  C_25 
ROOT
HETATM    1  C   UNL     1     -42.839  57.728 -54.450  1.00  0.00     0.119 A 
HETATM    2  N   UNL     1     -42.031  57.654 -53.257  1.00  0.00    -0.324 N 
HETATM    3  C   UNL     1     -42.757  57.942 -52.118  1.00  0.00     0.326 A 
HETATM    4  O   UNL     1     -42.271  57.847 -51.004  1.00  0.00    -0.247 OA
HETATM    5  N   UNL     1     -44.035  58.229 -52.471  1.00  0.00    -0.264 N 
HETATM    6  C   UNL     1     -44.178  58.194 -53.830  1.00  0.00     0.257 A 
HETATM    7  O   UNL     1     -45.202  58.398 -54.464  1.00  0.00    -0.270 OA
HETATM    8  H   UNL     1     -41.026  57.774 -53.205  1.00  0.00     0.165 HD
ENDROOT
BRANCH   1   9
HETATM    9  C   UNL     1     -42.300  58.769 -55.449  1.00  0.00     0.037 C 
HETATM   10  C   UNL     1     -42.279  60.207 -54.933  1.00  0.00     0.008 C 
ENDBRANCH   1   9
BRANCH   1  11
HETATM   11  C   UNL     1     -43.061  56.313 -55.109  1.00  0.00     0.026 C 
HETATM   12  C   UNL     1     -43.692  55.239 -54.196  1.00  0.00     0.035 C 
HETATM   13  C   UNL     1     -42.747  54.648 -53.158  1.00  0.00     0.235 C 
HETATM   14  N   UNL     1     -41.477  54.139 -53.792  1.00  0.00    -0.067 N 
HETATM   15  H   UNL     1     -41.733  53.295 -54.321  1.00  0.00     0.280 HD
HETATM   16  C   UNL     1     -40.824  55.101 -54.758  1.00  0.00     0.235 C 
HETATM   17  C   UNL     1     -41.821  55.672 -55.756  1.00  0.00     0.035 C 
BRANCH  14  18
HETATM   18  C   UNL     1     -40.449  53.704 -52.751  1.00  0.00     0.273 C 
BRANCH  18  19
HETATM   19  C   UNL     1     -40.118  52.237 -52.749  1.00  0.00    -0.027 A 
HETATM   20  C   UNL     1     -40.120  51.489 -53.933  1.00  0.00     0.051 A 
HETATM   21  C   UNL     1     -39.821  50.125 -53.897  1.00  0.00     0.119 A 
HETATM   22  F   UNL     1     -39.829  49.430 -55.041  1.00  0.00    -0.206 F 
HETATM   23  C   UNL     1     -39.524  49.480 -52.706  1.00  0.00     0.084 A 
HETATM   24  C   UNL     1     -39.523  50.220 -51.534  1.00  0.00     0.119 A 
HETATM   25  F   UNL     1     -39.247  49.619 -50.371  1.00  0.00    -0.206 F 
HETATM   26  C   UNL     1     -39.815  51.582 -51.542  1.00  0.00     0.051 A 
ENDBRANCH  18  19
ENDBRANCH  14  18
ENDBRANCH   1  11
BRANCH   5  27
HETATM   27  C   UNL     1     -45.114  58.465 -51.538  1.00  0.00     0.175 C 
BRANCH  27  28
HETATM   28  C   UNL     1     -45.186  59.895 -51.066  1.00  0.00    -0.037 A 
HETATM   29  C   UNL     1     -45.554  60.177 -49.740  1.00  0.00     0.048 A 
HETATM   30  C   UNL     1     -45.662  61.499 -49.362  1.00  0.00     0.105 A 
HETATM   31  C   UNL     1     -45.406  62.525 -50.237  1.00  0.00     0.105 A 
HETATM   32  O   UNL     1     -46.035  61.942 -48.132  1.00  0.00    -0.323 OA
HETATM   33  O   UNL     1     -45.586  63.747 -49.669  1.00  0.00    -0.323 OA
HETATM   34  C   UNL     1     -45.018  62.288 -51.538  1.00  0.00     0.040 A 
HETATM   35  C   UNL     1     -46.023  63.371 -48.345  1.00  0.00     0.352 A 
HETATM   36  C   UNL     1     -44.907  60.958 -51.955  1.00  0.00     0.012 A 
ENDBRANCH  27  28
ENDBRANCH   5  27
TORSDOF 6
ENDMDL
MODEL 6
REMARK VINA RESULT:      -8.7      4.962      8.271
REMARK  6 active torsions:
REMARK  status: ('A' for Active; 'I' for Inactive)
REMARK    1  A    between atoms: C_2  and  C_3 
REMARK    2  A    between atoms: C_3  and  C_4 
REMARK    3  A    between atoms: N_7  and  C_9 
REMARK    4  A    between atoms: C_9  and  C_10 
REMARK    5  A    between atoms: N_23  and  C_24 
REMARK    6  A    between atoms: C_24  and  C_25 
ROOT
HETATM    1  C   UNL     1     -43.264  57.148 -53.297  1.00  0.00     0.119 A 
HETATM    2  N   UNL     1     -44.104  56.088 -53.800  1.00  0.00    -0.324 N 
HETATM    3  C   UNL     1     -43.379  55.126 -54.476  1.00  0.00     0.326 A 
HETATM    4  O   UNL     1     -43.899  54.108 -54.898  1.00  0.00    -0.247 OA
HETATM    5  N   UNL     1     -42.070  55.481 -54.477  1.00  0.00    -0.264 N 
HETATM    6  C   UNL     1     -41.899  56.691 -53.864  1.00  0.00     0.257 A 
HETATM    7  O   UNL     1     -40.844  57.282 -53.695  1.00  0.00    -0.270 OA
HETATM    8  H   UNL     1     -45.092  56.157 -54.016  1.00  0.00     0.165 HD
ENDROOT
BRANCH   1   9
HETATM    9  C   UNL     1     -43.666  58.522 -53.866  1.00  0.00     0.037 C 
HETATM   10  C   UNL     1     -44.961  58.531 -54.675  1.00  0.00     0.008 C 
ENDBRANCH   1   9
BRANCH   1  11
HETATM   11  C   UNL     1     -43.176  57.145 -51.723  1.00  0.00     0.026 C 
HETATM   12  C   UNL     1     -44.527  57.194 -50.975  1.00  0.00     0.035 C 
HETATM   13  C   UNL     1     -45.204  58.558 -50.971  1.00  0.00     0.235 C 
HETATM   14  N   UNL     1     -44.274  59.637 -50.477  1.00  0.00    -0.067 N 
HETATM   15  H   UNL     1     -44.155  59.479 -49.468  1.00  0.00     0.280 HD
HETATM   16  C   UNL     1     -42.900  59.622 -51.106  1.00  0.00     0.235 C 
HETATM   17  C   UNL     1     -42.284  58.231 -51.099  1.00  0.00     0.035 C 
BRANCH  14  18
HETATM   18  C   UNL     1     -44.877  61.031 -50.630  1.00  0.00     0.273 C 
BRANCH  18  19
HETATM   19  C   UNL     1     -45.570  61.568 -49.409  1.00  0.00    -0.027 A 
HETATM   20  C   UNL     1     -46.661  62.441 -49.516  1.00  0.00     0.051 A 
HETATM   21  C   UNL     1     -47.277  62.933 -48.364  1.00  0.00     0.119 A 
HETATM   22  F   UNL     1     -48.318  63.765 -48.491  1.00  0.00    -0.206 F 
HETATM   23  C   UNL     1     -46.830  62.584 -47.098  1.00  0.00     0.084 A 
HETATM   24  C   UNL     1     -45.751  61.723 -46.991  1.00  0.00     0.119 A 
HETATM   25  F   UNL     1     -45.295  61.377 -45.782  1.00  0.00    -0.206 F 
HETATM   26  C   UNL     1     -45.119  61.214 -48.125  1.00  0.00     0.051 A 
ENDBRANCH  18  19
ENDBRANCH  14  18
ENDBRANCH   1  11
BRANCH   5  27
HETATM   27  C   UNL     1     -40.995  54.661 -54.990  1.00  0.00     0.175 C 
BRANCH  27  28
HETATM   28  C   UNL     1     -40.562  53.583 -54.029  1.00  0.00    -0.037 A 
HETATM   29  C   UNL     1     -40.287  52.290 -54.505  1.00  0.00     0.048 A 
HETATM   30  C   UNL     1     -39.946  51.319 -53.588  1.00  0.00     0.105 A 
HETATM   31  C   UNL     1     -39.856  51.590 -52.245  1.00  0.00     0.105 A 
HETATM   32  O   UNL     1     -39.681  50.017 -53.876  1.00  0.00    -0.323 OA
HETATM   33  O   UNL     1     -39.523  50.492 -51.516  1.00  0.00    -0.323 OA
HETATM   34  C   UNL     1     -40.093  52.852 -51.743  1.00  0.00     0.040 A 
HETATM   35  C   UNL     1     -39.451  49.489 -52.551  1.00  0.00     0.352 A 
HETATM   36  C   UNL     1     -40.449  53.858 -52.647  1.00  0.00     0.012 A 
ENDBRANCH  27  28
ENDBRANCH   5  27
TORSDOF 6
ENDMDL
MODEL 7
REMARK VINA RESULT:      -8.7      2.430      5.483
REMARK  6 active torsions:
REMARK  status: ('A' for Active; 'I' for Inactive)
REMARK    1  A    between atoms: C_2  and  C_3 
REMARK    2  A    between atoms: C_3  and  C_4 
REMARK    3  A    between atoms: N_7  and  C_9 
REMARK    4  A    between atoms: C_9  and  C_10 
REMARK    5  A    between atoms: N_23  and  C_24 
REMARK    6  A    between atoms: C_24  and  C_25 
ROOT
HETATM    1  C   UNL     1     -42.542  59.992 -51.287  1.00  0.00     0.119 A 
HETATM    2  N   UNL     1     -43.366  59.006 -50.630  1.00  0.00    -0.324 N 
HETATM    3  C   UNL     1     -44.390  58.558 -51.441  1.00  0.00     0.326 A 
HETATM    4  O   UNL     1     -45.139  57.662 -51.095  1.00  0.00    -0.247 OA
HETATM    5  N   UNL     1     -44.322  59.203 -52.632  1.00  0.00    -0.264 N 
HETATM    6  C   UNL     1     -43.307  60.119 -52.627  1.00  0.00     0.257 A 
HETATM    7  O   UNL     1     -42.980  60.854 -53.546  1.00  0.00    -0.270 OA
HETATM    8  H   UNL     1     -43.491  58.900 -49.629  1.00  0.00     0.165 HD
ENDROOT
BRANCH   1   9
HETATM    9  C   UNL     1     -42.530  61.333 -50.529  1.00  0.00     0.037 C 
HETATM   10  C   UNL     1     -43.834  61.681 -49.815  1.00  0.00     0.008 C 
ENDBRANCH   1   9
BRANCH   1  11
HETATM   11  C   UNL     1     -41.092  59.453 -51.591  1.00  0.00     0.026 C 
HETATM   12  C   UNL     1     -40.945  58.608 -52.875  1.00  0.00     0.035 C 
HETATM   13  C   UNL     1     -41.491  57.190 -52.772  1.00  0.00     0.235 C 
HETATM   14  N   UNL     1     -40.923  56.463 -51.579  1.00  0.00    -0.067 N 
HETATM   15  H   UNL     1     -39.936  56.273 -51.798  1.00  0.00     0.280 HD
HETATM   16  C   UNL     1     -40.961  57.245 -50.286  1.00  0.00     0.235 C 
HETATM   17  C   UNL     1     -40.423  58.657 -50.457  1.00  0.00     0.035 C 
BRANCH  14  18
HETATM   18  C   UNL     1     -41.588  55.106 -51.361  1.00  0.00     0.273 C 
BRANCH  18  19
HETATM   19  C   UNL     1     -40.921  53.946 -52.047  1.00  0.00    -0.027 A 
HETATM   20  C   UNL     1     -40.833  53.878 -53.443  1.00  0.00     0.051 A 
HETATM   21  C   UNL     1     -40.218  52.782 -54.051  1.00  0.00     0.119 A 
HETATM   22  F   UNL     1     -40.147  52.738 -55.388  1.00  0.00    -0.206 F 
HETATM   23  C   UNL     1     -39.690  51.740 -53.303  1.00  0.00     0.084 A 
HETATM   24  C   UNL     1     -39.778  51.806 -51.922  1.00  0.00     0.119 A 
HETATM   25  F   UNL     1     -39.283  50.811 -51.177  1.00  0.00    -0.206 F 
HETATM   26  C   UNL     1     -40.384  52.890 -51.289  1.00  0.00     0.051 A 
ENDBRANCH  18  19
ENDBRANCH  14  18
ENDBRANCH   1  11
BRANCH   5  27
HETATM   27  C   UNL     1     -45.159  58.912 -53.774  1.00  0.00     0.175 C 
BRANCH  27  28
HETATM   28  C   UNL     1     -44.490  58.020 -54.788  1.00  0.00    -0.037 A 
HETATM   29  C   UNL     1     -44.185  58.518 -56.066  1.00  0.00     0.048 A 
HETATM   30  C   UNL     1     -43.623  57.655 -56.983  1.00  0.00     0.105 A 
HETATM   31  C   UNL     1     -43.345  56.347 -56.671  1.00  0.00     0.105 A 
HETATM   32  O   UNL     1     -43.296  57.966 -58.265  1.00  0.00    -0.323 OA
HETATM   33  O   UNL     1     -42.809  55.668 -57.719  1.00  0.00    -0.323 OA
HETATM   34  C   UNL     1     -43.605  55.829 -55.420  1.00  0.00     0.040 A 
HETATM   35  C   UNL     1     -42.816  56.689 -58.739  1.00  0.00     0.352 A 
HETATM   36  C   UNL     1     -44.184  56.677 -54.470  1.00  0.00     0.012 A 
ENDBRANCH  27  28
ENDBRANCH   5  27
TORSDOF 6
ENDMDL
MODEL 8
REMARK VINA RESULT:      -8.6      2.558      5.843
REMARK  6 active torsions:
REMARK  status: ('A' for Active; 'I' for Inactive)
REMARK    1  A    between atoms: C_2  and  C_3 
REMARK    2  A    between atoms: C_3  and  C_4 
REMARK    3  A    between atoms: N_7  and  C_9 
REMARK    4  A    between atoms: C_9  and  C_10 
REMARK    5  A    between atoms: N_23  and  C_24 
REMARK    6  A    between atoms: C_24  and  C_25 
ROOT
HETATM    1  C   UNL     1     -42.991  59.039 -52.370  1.00  0.00     0.119 A 
HETATM    2  N   UNL     1     -43.930  57.976 -52.637  1.00  0.00    -0.324 N 
HETATM    3  C   UNL     1     -44.569  58.138 -53.850  1.00  0.00     0.326 A 
HETATM    4  O   UNL     1     -45.334  57.298 -54.291  1.00  0.00    -0.247 OA
HETATM    5  N   UNL     1     -44.124  59.279 -54.434  1.00  0.00    -0.264 N 
HETATM    6  C   UNL     1     -43.238  59.923 -53.617  1.00  0.00     0.257 A 
HETATM    7  O   UNL     1     -42.653  60.970 -53.852  1.00  0.00    -0.270 OA
HETATM    8  H   UNL     1     -44.395  57.399 -51.945  1.00  0.00     0.165 HD
ENDROOT
BRANCH   1   9
HETATM    9  C   UNL     1     -43.334  59.802 -51.077  1.00  0.00     0.037 C 
HETATM   10  C   UNL     1     -42.218  60.695 -50.539  1.00  0.00     0.008 C 
ENDBRANCH   1   9
BRANCH   1  11
HETATM   11  C   UNL     1     -41.497  58.538 -52.403  1.00  0.00     0.026 C 
HETATM   12  C   UNL     1     -40.962  58.109 -53.786  1.00  0.00     0.035 C 
HETATM   13  C   UNL     1     -41.465  56.756 -54.273  1.00  0.00     0.235 C 
HETATM   14  N   UNL     1     -41.233  55.676 -53.245  1.00  0.00    -0.067 N 
HETATM   15  H   UNL     1     -40.219  55.508 -53.225  1.00  0.00     0.280 HD
HETATM   16  C   UNL     1     -41.664  56.038 -51.842  1.00  0.00     0.235 C 
HETATM   17  C   UNL     1     -41.149  57.406 -51.421  1.00  0.00     0.035 C 
BRANCH  14  18
HETATM   18  C   UNL     1     -41.885  54.355 -53.642  1.00  0.00     0.273 C 
BRANCH  18  19
HETATM   19  C   UNL     1     -41.068  53.124 -53.358  1.00  0.00    -0.027 A 
HETATM   20  C   UNL     1     -40.716  52.233 -54.379  1.00  0.00     0.051 A 
HETATM   21  C   UNL     1     -39.967  51.093 -54.083  1.00  0.00     0.119 A 
HETATM   22  F   UNL     1     -39.642  50.254 -55.075  1.00  0.00    -0.206 F 
HETATM   23  C   UNL     1     -39.561  50.809 -52.787  1.00  0.00     0.084 A 
HETATM   24  C   UNL     1     -39.910  51.690 -51.776  1.00  0.00     0.119 A 
HETATM   25  F   UNL     1     -39.538  51.436 -50.517  1.00  0.00    -0.206 F 
HETATM   26  C   UNL     1     -40.655  52.837 -52.045  1.00  0.00     0.051 A 
ENDBRANCH  18  19
ENDBRANCH  14  18
ENDBRANCH   1  11
BRANCH   5  27
HETATM   27  C   UNL     1     -44.482  59.716 -55.765  1.00  0.00     0.175 C 
BRANCH  27  28
HETATM   28  C   UNL     1     -43.895  58.851 -56.850  1.00  0.00    -0.037 A 
HETATM   29  C   UNL     1     -44.720  57.962 -57.561  1.00  0.00     0.048 A 
HETATM   30  C   UNL     1     -44.135  57.149 -58.508  1.00  0.00     0.105 A 
HETATM   31  C   UNL     1     -42.790  57.202 -58.777  1.00  0.00     0.105 A 
HETATM   32  O   UNL     1     -44.781  56.218 -59.259  1.00  0.00    -0.323 OA
HETATM   33  O   UNL     1     -42.417  56.308 -59.731  1.00  0.00    -0.323 OA
HETATM   34  C   UNL     1     -41.953  58.077 -58.120  1.00  0.00     0.040 A 
HETATM   35  C   UNL     1     -43.678  55.660 -60.006  1.00  0.00     0.352 A 
HETATM   36  C   UNL     1     -42.514  58.911 -57.146  1.00  0.00     0.012 A 
ENDBRANCH  27  28
ENDBRANCH   5  27
TORSDOF 6
ENDMDL
MODEL 9
REMARK VINA RESULT:      -8.6      3.684      6.517
REMARK  6 active torsions:
REMARK  status: ('A' for Active; 'I' for Inactive)
REMARK    1  A    between atoms: C_2  and  C_3 
REMARK    2  A    between atoms: C_3  and  C_4 
REMARK    3  A    between atoms: N_7  and  C_9 
REMARK    4  A    between atoms: C_9  and  C_10 
REMARK    5  A    between atoms: N_23  and  C_24 
REMARK    6  A    between atoms: C_24  and  C_25 
ROOT
HETATM    1  C   UNL     1     -43.812  57.431 -51.983  1.00  0.00     0.119 A 
HETATM    2  N   UNL     1     -42.591  58.200 -52.007  1.00  0.00    -0.324 N 
HETATM    3  C   UNL     1     -41.612  57.649 -51.203  1.00  0.00     0.326 A 
HETATM    4  O   UNL     1     -40.483  58.105 -51.160  1.00  0.00    -0.247 OA
HETATM    5  N   UNL     1     -42.108  56.536 -50.607  1.00  0.00    -0.264 N 
HETATM    6  C   UNL     1     -43.419  56.350 -50.947  1.00  0.00     0.257 A 
HETATM    7  O   UNL     1     -44.147  55.439 -50.585  1.00  0.00    -0.270 OA
HETATM    8  H   UNL     1     -42.508  59.187 -52.224  1.00  0.00     0.165 HD
ENDROOT
BRANCH   1   9
HETATM    9  C   UNL     1     -45.008  58.264 -51.484  1.00  0.00     0.037 C 
HETATM   10  C   UNL     1     -44.696  59.730 -51.191  1.00  0.00     0.008 C 
ENDBRANCH   1   9
BRANCH   1  11
HETATM   11  C   UNL     1     -44.098  56.721 -53.360  1.00  0.00     0.026 C 
HETATM   12  C   UNL     1     -42.856  56.221 -54.129  1.00  0.00     0.035 C 
HETATM   13  C   UNL     1     -42.050  57.314 -54.818  1.00  0.00     0.235 C 
HETATM   14  N   UNL     1     -42.921  58.172 -55.701  1.00  0.00    -0.067 N 
HETATM   15  H   UNL     1     -43.183  57.590 -56.506  1.00  0.00     0.280 HD
HETATM   16  C   UNL     1     -44.199  58.652 -55.051  1.00  0.00     0.235 C 
HETATM   17  C   UNL     1     -44.949  57.520 -54.363  1.00  0.00     0.035 C 
BRANCH  14  18
HETATM   18  C   UNL     1     -42.166  59.375 -56.261  1.00  0.00     0.273 C 
BRANCH  18  19
HETATM   19  C   UNL     1     -42.053  59.421 -57.759  1.00  0.00    -0.027 A 
HETATM   20  C   UNL     1     -41.901  60.636 -58.440  1.00  0.00     0.051 A 
HETATM   21  C   UNL     1     -41.811  60.648 -59.834  1.00  0.00     0.119 A 
HETATM   22  F   UNL     1     -41.666  61.821 -60.463  1.00  0.00    -0.206 F 
HETATM   23  C   UNL     1     -41.875  59.477 -60.574  1.00  0.00     0.084 A 
HETATM   24  C   UNL     1     -42.026  58.276 -59.901  1.00  0.00     0.119 A 
HETATM   25  F   UNL     1     -42.098  57.133 -60.592  1.00  0.00    -0.206 F 
HETATM   26  C   UNL     1     -42.116  58.234 -58.511  1.00  0.00     0.051 A 
ENDBRANCH  18  19
ENDBRANCH  14  18
ENDBRANCH   1  11
BRANCH   5  27
HETATM   27  C   UNL     1     -41.337  55.630 -49.785  1.00  0.00     0.175 C 
BRANCH  27  28
HETATM   28  C   UNL     1     -40.924  54.376 -50.511  1.00  0.00    -0.037 A 
HETATM   29  C   UNL     1     -40.767  53.174 -49.800  1.00  0.00     0.048 A 
HETATM   30  C   UNL     1     -40.335  52.062 -50.490  1.00  0.00     0.105 A 
HETATM   31  C   UNL     1     -40.077  52.101 -51.838  1.00  0.00     0.105 A 
HETATM   32  O   UNL     1     -40.104  50.836 -49.950  1.00  0.00    -0.323 OA
HETATM   33  O   UNL     1     -39.649  50.903 -52.318  1.00  0.00    -0.323 OA
HETATM   34  C   UNL     1     -40.245  53.253 -52.575  1.00  0.00     0.040 A 
HETATM   35  C   UNL     1     -39.631  50.115 -51.109  1.00  0.00     0.352 A 
HETATM   36  C   UNL     1     -40.674  54.402 -51.902  1.00  0.00     0.012 A 
ENDBRANCH  27  28
ENDBRANCH   5  27
TORSDOF 6
ENDMDL
MODEL 10
REMARK VINA RESULT:      -8.5      2.425      5.664
REMARK  6 active torsions:
REMARK  status: ('A' for Active; 'I' for Inactive)
REMARK    1  A    between atoms: C_2  and  C_3 
REMARK    2  A    between atoms: C_3  and  C_4 
REMARK    3  A    between atoms: N_7  and  C_9 
REMARK    4  A    between atoms: C_9  and  C_10 
REMARK    5  A    between atoms: N_23  and  C_24 
REMARK    6  A    between atoms: C_24  and  C_25 
ROOT
HETATM    1  C   UNL     1     -44.003  57.207 -51.708  1.00  0.00     0.119 A 
HETATM    2  N   UNL     1     -44.308  56.531 -52.946  1.00  0.00    -0.324 N 
HETATM    3  C   UNL     1     -43.532  56.987 -53.994  1.00  0.00     0.326 A 
HETATM    4  O   UNL     1     -43.582  56.478 -55.100  1.00  0.00    -0.247 OA
HETATM    5  N   UNL     1     -42.708  57.963 -53.539  1.00  0.00    -0.264 N 
HETATM    6  C   UNL     1     -42.947  58.218 -52.217  1.00  0.00     0.257 A 
HETATM    7  O   UNL     1     -42.371  59.033 -51.513  1.00  0.00    -0.270 OA
HETATM    8  H   UNL     1     -45.187  56.084 -53.185  1.00  0.00     0.165 HD
ENDROOT
BRANCH   1   9
HETATM    9  C   UNL     1     -45.231  57.935 -51.130  1.00  0.00     0.037 C 
HETATM   10  C   UNL     1     -45.649  59.195 -51.885  1.00  0.00     0.008 C 
ENDBRANCH   1   9
BRANCH   1  11
HETATM   11  C   UNL     1     -43.313  56.251 -50.662  1.00  0.00     0.026 C 
HETATM   12  C   UNL     1     -41.782  56.397 -50.525  1.00  0.00     0.035 C 
HETATM   13  C   UNL     1     -40.979  55.787 -51.667  1.00  0.00     0.235 C 
HETATM   14  N   UNL     1     -41.365  54.349 -51.908  1.00  0.00    -0.067 N 
HETATM   15  H   UNL     1     -41.002  53.813 -51.110  1.00  0.00     0.280 HD
HETATM   16  C   UNL     1     -42.854  54.100 -51.987  1.00  0.00     0.235 C 
HETATM   17  C   UNL     1     -43.602  54.750 -50.832  1.00  0.00     0.035 C 
BRANCH  14  18
HETATM   18  C   UNL     1     -40.697  53.776 -53.156  1.00  0.00     0.273 C 
BRANCH  18  19
HETATM   19  C   UNL     1     -40.287  52.333 -53.060  1.00  0.00    -0.027 A 
HETATM   20  C   UNL     1     -39.919  51.761 -51.836  1.00  0.00     0.051 A 
HETATM   21  C   UNL     1     -39.531  50.421 -51.780  1.00  0.00     0.119 A 
HETATM   22  F   UNL     1     -39.183  49.895 -50.599  1.00  0.00    -0.206 F 
HETATM   23  C   UNL     1     -39.493  49.630 -52.919  1.00  0.00     0.084 A 
HETATM   24  C   UNL     1     -39.856  50.195 -54.130  1.00  0.00     0.119 A 
HETATM   25  F   UNL     1     -39.821  49.456 -55.245  1.00  0.00    -0.206 F 
HETATM   26  C   UNL     1     -40.250  51.530 -54.214  1.00  0.00     0.051 A 
ENDBRANCH  18  19
ENDBRANCH  14  18
ENDBRANCH   1  11
BRANCH   5  27
HETATM   27  C   UNL     1     -41.671  58.596 -54.322  1.00  0.00     0.175 C 
BRANCH  27  28
HETATM   28  C   UNL     1     -42.190  59.690 -55.220  1.00  0.00    -0.037 A 
HETATM   29  C   UNL     1     -42.052  59.577 -56.614  1.00  0.00     0.048 A 
HETATM   30  C   UNL     1     -42.490  60.623 -57.397  1.00  0.00     0.105 A 
HETATM   31  C   UNL     1     -43.063  61.746 -56.852  1.00  0.00     0.105 A 
HETATM   32  O   UNL     1     -42.403  60.687 -58.753  1.00  0.00    -0.323 OA
HETATM   33  O   UNL     1     -43.410  62.660 -57.797  1.00  0.00    -0.323 OA
HETATM   34  C   UNL     1     -43.240  61.882 -55.492  1.00  0.00     0.040 A 
HETATM   35  C   UNL     1     -42.954  62.000 -58.997  1.00  0.00     0.352 A 
HETATM   36  C   UNL     1     -42.798  60.841 -54.669  1.00  0.00     0.012 A 
ENDBRANCH  27  28
ENDBRANCH   5  27
TORSDOF 6
ENDMDL
