MODEL 1
REMARK VINA RESULT:      -8.6      0.000      0.000
REMARK  4 active torsions:
REMARK  status: ('A' for Active; 'I' for Inactive)
REMARK    1  A    between atoms: C_4  and  C_5 
REMARK    2  A    between atoms: C_14  and  C_15 
REMARK    3  A    between atoms: C_15  and  C_16 
REMARK    4  A    between atoms: C_17  and  O_18 
ROOT
HETATM    1  C   UNL     1     -41.064  56.449 -50.571  1.00  0.00     0.071 C 
HETATM    2  C   UNL     1     -41.019  55.802 -51.931  1.00  0.00     0.045 A 
HETATM    3  N   UNL     1     -40.656  54.474 -51.876  1.00  0.00    -0.234 NA
HETATM    4  C   UNL     1     -40.606  53.794 -52.977  1.00  0.00     0.141 A 
HETATM    5  N   UNL     1     -40.850  54.367 -54.196  1.00  0.00    -0.307 N 
HETATM    6  C   UNL     1     -41.221  55.666 -54.324  1.00  0.00     0.255 A 
HETATM    7  O   UNL     1     -41.487  56.160 -55.418  1.00  0.00    -0.268 OA
HETATM    8  C   UNL     1     -41.335  56.448 -53.072  1.00  0.00     0.039 A 
HETATM    9  H   UNL     1     -40.763  53.855 -55.059  1.00  0.00     0.170 HD
ENDROOT
BRANCH   8  10
HETATM   10  C   UNL     1     -41.777  57.880 -53.231  1.00  0.00     0.088 C 
BRANCH  10  11
HETATM   11  C   UNL     1     -42.996  58.235 -52.401  1.00  0.00    -0.020 A 
HETATM   12  C   UNL     1     -44.161  57.435 -52.347  1.00  0.00     0.074 A 
HETATM   13  C   UNL     1     -45.234  57.765 -51.517  1.00  0.00     0.074 A 
HETATM   14  C   UNL     1     -45.141  58.912 -50.762  1.00  0.00     0.077 A 
HETATM   15  C   UNL     1     -44.034  59.737 -50.826  1.00  0.00    -0.022 A 
HETATM   16  O   UNL     1     -46.119  59.367 -49.914  1.00  0.00    -0.350 OA
HETATM   17  C   UNL     1     -44.272  60.933 -49.989  1.00  0.00     0.068 C 
HETATM   18  C   UNL     1     -42.958  59.420 -51.638  1.00  0.00     0.020 A 
HETATM   19  C   UNL     1     -45.457  60.418 -49.172  1.00  0.00     0.180 C 
BRANCH  12  20
HETATM   20  O   UNL     1     -44.341  56.302 -53.090  1.00  0.00    -0.360 OA
HETATM   21  H   UNL     1     -45.027  56.423 -53.775  1.00  0.00     0.217 HD
ENDBRANCH  12  20
ENDBRANCH  10  11
ENDBRANCH   8  10
BRANCH   4  22
HETATM   22  C   UNL     1     -40.269  52.343 -52.967  1.00  0.00     0.010 A 
HETATM   23  C   UNL     1     -39.829  51.695 -51.805  1.00  0.00     0.015 A 
HETATM   24  C   UNL     1     -39.504  50.336 -51.840  1.00  0.00     0.001 A 
HETATM   25  C   UNL     1     -39.606  49.623 -53.033  1.00  0.00     0.000 A 
HETATM   26  C   UNL     1     -40.027  50.265 -54.196  1.00  0.00     0.001 A 
HETATM   27  C   UNL     1     -40.355  51.622 -54.164  1.00  0.00     0.015 A 
ENDBRANCH   4  22
TORSDOF 4
ENDMDL
MODEL 2
REMARK VINA RESULT:      -8.6     15.742     17.922
REMARK  4 active torsions:
REMARK  status: ('A' for Active; 'I' for Inactive)
REMARK    1  A    between atoms: C_4  and  C_5 
REMARK    2  A    between atoms: C_14  and  C_15 
REMARK    3  A    between atoms: C_15  and  C_16 
REMARK    4  A    between atoms: C_17  and  O_18 
ROOT
HETATM    1  C   UNL     1     -38.413  41.087 -53.821  1.00  0.00     0.071 C 
HETATM    2  C   UNL     1     -36.978  41.297 -54.233  1.00  0.00     0.045 A 
HETATM    3  N   UNL     1     -36.084  40.909 -53.260  1.00  0.00    -0.234 NA
HETATM    4  C   UNL     1     -34.816  41.012 -53.501  1.00  0.00     0.141 A 
HETATM    5  N   UNL     1     -34.339  41.544 -54.668  1.00  0.00    -0.307 N 
HETATM    6  C   UNL     1     -35.161  41.938 -55.672  1.00  0.00     0.255 A 
HETATM    7  O   UNL     1     -34.724  42.369 -56.738  1.00  0.00    -0.268 OA
HETATM    8  C   UNL     1     -36.614  41.780 -55.439  1.00  0.00     0.039 A 
HETATM    9  H   UNL     1     -33.354  41.673 -54.838  1.00  0.00     0.170 HD
ENDROOT
BRANCH   8  10
HETATM   10  C   UNL     1     -37.511  42.195 -56.577  1.00  0.00     0.088 C 
BRANCH  10  11
HETATM   11  C   UNL     1     -37.565  41.183 -57.706  1.00  0.00    -0.020 A 
HETATM   12  C   UNL     1     -37.260  41.498 -59.050  1.00  0.00     0.074 A 
HETATM   13  C   UNL     1     -37.257  40.520 -60.046  1.00  0.00     0.074 A 
HETATM   14  C   UNL     1     -37.588  39.231 -59.691  1.00  0.00     0.077 A 
HETATM   15  C   UNL     1     -37.934  38.901 -58.395  1.00  0.00    -0.022 A 
HETATM   16  O   UNL     1     -37.641  38.173 -60.562  1.00  0.00    -0.350 OA
HETATM   17  C   UNL     1     -38.337  37.478 -58.348  1.00  0.00     0.068 C 
HETATM   18  C   UNL     1     -37.933  39.857 -57.393  1.00  0.00     0.020 A 
HETATM   19  C   UNL     1     -37.759  37.026 -59.689  1.00  0.00     0.180 C 
BRANCH  12  20
HETATM   20  O   UNL     1     -36.954  42.757 -59.486  1.00  0.00    -0.360 OA
HETATM   21  H   UNL     1     -36.283  42.742 -60.196  1.00  0.00     0.217 HD
ENDBRANCH  12  20
ENDBRANCH  10  11
ENDBRANCH   8  10
BRANCH   4  22
HETATM   22  C   UNL     1     -33.808  40.559 -52.502  1.00  0.00     0.010 A 
HETATM   23  C   UNL     1     -32.734  39.732 -52.857  1.00  0.00     0.015 A 
HETATM   24  C   UNL     1     -31.820  39.313 -51.887  1.00  0.00     0.001 A 
HETATM   25  C   UNL     1     -31.978  39.708 -50.559  1.00  0.00     0.000 A 
HETATM   26  C   UNL     1     -33.053  40.516 -50.196  1.00  0.00     0.001 A 
HETATM   27  C   UNL     1     -33.968  40.939 -51.163  1.00  0.00     0.015 A 
ENDBRANCH   4  22
TORSDOF 4
ENDMDL
MODEL 3
REMARK VINA RESULT:      -8.5     15.922     17.902
REMARK  4 active torsions:
REMARK  status: ('A' for Active; 'I' for Inactive)
REMARK    1  A    between atoms: C_4  and  C_5 
REMARK    2  A    between atoms: C_14  and  C_15 
REMARK    3  A    between atoms: C_15  and  C_16 
REMARK    4  A    between atoms: C_17  and  O_18 
ROOT
HETATM    1  C   UNL     1     -32.896  40.395 -55.983  1.00  0.00     0.071 C 
HETATM    2  C   UNL     1     -33.722  40.791 -54.786  1.00  0.00     0.045 A 
HETATM    3  N   UNL     1     -33.272  40.219 -53.616  1.00  0.00    -0.234 NA
HETATM    4  C   UNL     1     -33.879  40.502 -52.509  1.00  0.00     0.141 A 
HETATM    5  N   UNL     1     -34.985  41.307 -52.472  1.00  0.00    -0.307 N 
HETATM    6  C   UNL     1     -35.477  41.911 -53.583  1.00  0.00     0.255 A 
HETATM    7  O   UNL     1     -36.442  42.673 -53.534  1.00  0.00    -0.268 OA
HETATM    8  C   UNL     1     -34.766  41.643 -54.853  1.00  0.00     0.039 A 
HETATM    9  H   UNL     1     -35.491  41.489 -51.620  1.00  0.00     0.170 HD
ENDROOT
BRANCH   8  10
HETATM   10  C   UNL     1     -35.309  42.346 -56.070  1.00  0.00     0.088 C 
BRANCH  10  11
HETATM   11  C   UNL     1     -36.268  41.498 -56.884  1.00  0.00    -0.020 A 
HETATM   12  C   UNL     1     -37.641  41.363 -56.575  1.00  0.00     0.074 A 
HETATM   13  C   UNL     1     -38.503  40.626 -57.391  1.00  0.00     0.074 A 
HETATM   14  C   UNL     1     -37.974  40.006 -58.500  1.00  0.00     0.077 A 
HETATM   15  C   UNL     1     -36.628  40.083 -58.802  1.00  0.00    -0.022 A 
HETATM   16  O   UNL     1     -38.694  39.240 -59.381  1.00  0.00    -0.350 OA
HETATM   17  C   UNL     1     -36.347  39.234 -59.982  1.00  0.00     0.068 C 
HETATM   18  C   UNL     1     -35.762  40.816 -58.010  1.00  0.00     0.020 A 
HETATM   19  C   UNL     1     -37.779  39.048 -60.485  1.00  0.00     0.180 C 
BRANCH  12  20
HETATM   20  O   UNL     1     -38.234  41.921 -55.476  1.00  0.00    -0.360 OA
HETATM   21  H   UNL     1     -39.202  41.796 -55.484  1.00  0.00     0.217 HD
ENDBRANCH  12  20
ENDBRANCH  10  11
ENDBRANCH   8  10
BRANCH   4  22
HETATM   22  C   UNL     1     -33.401  39.950 -51.211  1.00  0.00     0.010 A 
HETATM   23  C   UNL     1     -34.258  39.268 -50.336  1.00  0.00     0.015 A 
HETATM   24  C   UNL     1     -33.775  38.781 -49.119  1.00  0.00     0.001 A 
HETATM   25  C   UNL     1     -32.442  38.980 -48.764  1.00  0.00     0.000 A 
HETATM   26  C   UNL     1     -31.588  39.671 -49.622  1.00  0.00     0.001 A 
HETATM   27  C   UNL     1     -32.066  40.158 -50.840  1.00  0.00     0.015 A 
ENDBRANCH   4  22
TORSDOF 4
ENDMDL
MODEL 4
REMARK VINA RESULT:      -8.4      3.518      7.338
REMARK  4 active torsions:
REMARK  status: ('A' for Active; 'I' for Inactive)
REMARK    1  A    between atoms: C_4  and  C_5 
REMARK    2  A    between atoms: C_14  and  C_15 
REMARK    3  A    between atoms: C_15  and  C_16 
REMARK    4  A    between atoms: C_17  and  O_18 
ROOT
HETATM    1  C   UNL     1     -40.802  57.708 -53.210  1.00  0.00     0.071 C 
HETATM    2  C   UNL     1     -41.817  57.004 -54.075  1.00  0.00     0.045 A 
HETATM    3  N   UNL     1     -41.794  57.440 -55.382  1.00  0.00    -0.234 NA
HETATM    4  C   UNL     1     -42.600  56.895 -56.236  1.00  0.00     0.141 A 
HETATM    5  N   UNL     1     -43.509  55.939 -55.869  1.00  0.00    -0.307 N 
HETATM    6  C   UNL     1     -43.580  55.457 -54.604  1.00  0.00     0.255 A 
HETATM    7  O   UNL     1     -44.365  54.563 -54.293  1.00  0.00    -0.268 OA
HETATM    8  C   UNL     1     -42.631  56.030 -53.622  1.00  0.00     0.039 A 
HETATM    9  H   UNL     1     -44.172  55.549 -56.520  1.00  0.00     0.170 HD
ENDROOT
BRANCH   8  10
HETATM   10  C   UNL     1     -42.705  55.460 -52.229  1.00  0.00     0.088 C 
BRANCH  10  11
HETATM   11  C   UNL     1     -41.742  54.313 -51.990  1.00  0.00    -0.020 A 
HETATM   12  C   UNL     1     -41.261  53.954 -50.710  1.00  0.00     0.074 A 
HETATM   13  C   UNL     1     -40.428  52.848 -50.528  1.00  0.00     0.074 A 
HETATM   14  C   UNL     1     -40.061  52.122 -51.638  1.00  0.00     0.077 A 
HETATM   15  C   UNL     1     -40.479  52.475 -52.907  1.00  0.00    -0.022 A 
HETATM   16  O   UNL     1     -39.240  51.024 -51.614  1.00  0.00    -0.350 OA
HETATM   17  C   UNL     1     -39.841  51.577 -53.895  1.00  0.00     0.068 C 
HETATM   18  C   UNL     1     -41.312  53.563 -53.105  1.00  0.00     0.020 A 
HETATM   19  C   UNL     1     -39.377  50.473 -52.945  1.00  0.00     0.180 C 
BRANCH  12  20
HETATM   20  O   UNL     1     -41.553  54.643 -49.566  1.00  0.00    -0.360 OA
HETATM   21  H   UNL     1     -40.858  55.293 -49.347  1.00  0.00     0.217 HD
ENDBRANCH  12  20
ENDBRANCH  10  11
ENDBRANCH   8  10
BRANCH   4  22
HETATM   22  C   UNL     1     -42.580  57.295 -57.671  1.00  0.00     0.010 A 
HETATM   23  C   UNL     1     -42.907  56.395 -58.694  1.00  0.00     0.015 A 
HETATM   24  C   UNL     1     -42.858  56.804 -60.029  1.00  0.00     0.001 A 
HETATM   25  C   UNL     1     -42.474  58.105 -60.350  1.00  0.00     0.000 A 
HETATM   26  C   UNL     1     -42.131  58.999 -59.338  1.00  0.00     0.001 A 
HETATM   27  C   UNL     1     -42.180  58.596 -58.002  1.00  0.00     0.015 A 
ENDBRANCH   4  22
TORSDOF 4
ENDMDL
MODEL 5
REMARK VINA RESULT:      -8.0     15.944     17.734
REMARK  4 active torsions:
REMARK  status: ('A' for Active; 'I' for Inactive)
REMARK    1  A    between atoms: C_4  and  C_5 
REMARK    2  A    between atoms: C_14  and  C_15 
REMARK    3  A    between atoms: C_15  and  C_16 
REMARK    4  A    between atoms: C_17  and  O_18 
ROOT
HETATM    1  C   UNL     1     -39.001  41.178 -55.354  1.00  0.00     0.071 C 
HETATM    2  C   UNL     1     -37.896  41.034 -56.369  1.00  0.00     0.045 A 
HETATM    3  N   UNL     1     -38.297  40.353 -57.498  1.00  0.00    -0.234 NA
HETATM    4  C   UNL     1     -37.448  40.185 -58.460  1.00  0.00     0.141 A 
HETATM    5  N   UNL     1     -36.152  40.615 -58.369  1.00  0.00    -0.307 N 
HETATM    6  C   UNL     1     -35.692  41.301 -57.292  1.00  0.00     0.255 A 
HETATM    7  O   UNL     1     -34.539  41.727 -57.238  1.00  0.00    -0.268 OA
HETATM    8  C   UNL     1     -36.661  41.549 -56.201  1.00  0.00     0.039 A 
HETATM    9  H   UNL     1     -35.474  40.443 -59.094  1.00  0.00     0.170 HD
ENDROOT
BRANCH   8  10
HETATM   10  C   UNL     1     -36.140  42.337 -55.027  1.00  0.00     0.088 C 
BRANCH  10  11
HETATM   11  C   UNL     1     -35.671  41.470 -53.875  1.00  0.00    -0.020 A 
HETATM   12  C   UNL     1     -34.359  40.952 -53.774  1.00  0.00     0.074 A 
HETATM   13  C   UNL     1     -33.950  40.214 -52.661  1.00  0.00     0.074 A 
HETATM   14  C   UNL     1     -34.870  39.978 -51.665  1.00  0.00     0.077 A 
HETATM   15  C   UNL     1     -36.172  40.434 -51.756  1.00  0.00    -0.022 A 
HETATM   16  O   UNL     1     -34.616  39.260 -50.524  1.00  0.00    -0.350 OA
HETATM   17  C   UNL     1     -36.941  39.937 -50.593  1.00  0.00     0.068 C 
HETATM   18  C   UNL     1     -36.591  41.175 -52.848  1.00  0.00     0.020 A 
HETATM   19  C   UNL     1     -35.774  39.523 -49.697  1.00  0.00     0.180 C 
BRANCH  12  20
HETATM   20  O   UNL     1     -33.400  41.115 -54.735  1.00  0.00    -0.360 OA
HETATM   21  H   UNL     1     -32.620  41.593 -54.391  1.00  0.00     0.217 HD
ENDBRANCH  12  20
ENDBRANCH  10  11
ENDBRANCH   8  10
BRANCH   4  22
HETATM   22  C   UNL     1     -37.846  39.500 -59.722  1.00  0.00     0.010 A 
HETATM   23  C   UNL     1     -37.127  39.667 -60.913  1.00  0.00     0.015 A 
HETATM   24  C   UNL     1     -37.543  39.021 -62.080  1.00  0.00     0.001 A 
HETATM   25  C   UNL     1     -38.682  38.218 -62.067  1.00  0.00     0.000 A 
HETATM   26  C   UNL     1     -39.412  38.061 -60.890  1.00  0.00     0.001 A 
HETATM   27  C   UNL     1     -38.998  38.703 -59.721  1.00  0.00     0.015 A 
ENDBRANCH   4  22
TORSDOF 4
ENDMDL
MODEL 6
REMARK VINA RESULT:      -7.9      2.097      2.793
REMARK  4 active torsions:
REMARK  status: ('A' for Active; 'I' for Inactive)
REMARK    1  A    between atoms: C_4  and  C_5 
REMARK    2  A    between atoms: C_14  and  C_15 
REMARK    3  A    between atoms: C_15  and  C_16 
REMARK    4  A    between atoms: C_17  and  O_18 
ROOT
HETATM    1  C   UNL     1     -44.876  57.121 -54.527  1.00  0.00     0.071 C 
HETATM    2  C   UNL     1     -43.418  57.149 -54.148  1.00  0.00     0.045 A 
HETATM    3  N   UNL     1     -42.894  55.890 -53.956  1.00  0.00    -0.234 NA
HETATM    4  C   UNL     1     -41.641  55.774 -53.653  1.00  0.00     0.141 A 
HETATM    5  N   UNL     1     -40.835  56.865 -53.465  1.00  0.00    -0.307 N 
HETATM    6  C   UNL     1     -41.282  58.133 -53.647  1.00  0.00     0.255 A 
HETATM    7  O   UNL     1     -40.540  59.106 -53.525  1.00  0.00    -0.268 OA
HETATM    8  C   UNL     1     -42.699  58.286 -54.045  1.00  0.00     0.039 A 
HETATM    9  H   UNL     1     -39.873  56.781 -53.180  1.00  0.00     0.170 HD
ENDROOT
BRANCH   8  10
HETATM   10  C   UNL     1     -43.169  59.700 -54.271  1.00  0.00     0.088 C 
BRANCH  10  11
HETATM   11  C   UNL     1     -44.093  60.214 -53.184  1.00  0.00    -0.020 A 
HETATM   12  C   UNL     1     -45.468  60.475 -53.390  1.00  0.00     0.074 A 
HETATM   13  C   UNL     1     -46.298  60.883 -52.343  1.00  0.00     0.074 A 
HETATM   14  C   UNL     1     -45.736  61.050 -51.098  1.00  0.00     0.077 A 
HETATM   15  C   UNL     1     -44.388  60.845 -50.875  1.00  0.00    -0.022 A 
HETATM   16  O   UNL     1     -46.423  61.458 -49.983  1.00  0.00    -0.350 OA
HETATM   17  C   UNL     1     -44.067  61.205 -49.476  1.00  0.00     0.068 C 
HETATM   18  C   UNL     1     -43.552  60.433 -51.900  1.00  0.00     0.020 A 
HETATM   19  C   UNL     1     -45.486  61.221 -48.906  1.00  0.00     0.180 C 
BRANCH  12  20
HETATM   20  O   UNL     1     -46.090  60.364 -54.602  1.00  0.00    -0.360 OA
HETATM   21  H   UNL     1     -45.859  59.528 -55.052  1.00  0.00     0.217 HD
ENDBRANCH  12  20
ENDBRANCH  10  11
ENDBRANCH   8  10
BRANCH   4  22
HETATM   22  C   UNL     1     -41.014  54.434 -53.484  1.00  0.00     0.010 A 
HETATM   23  C   UNL     1     -40.653  53.939 -52.224  1.00  0.00     0.015 A 
HETATM   24  C   UNL     1     -40.050  52.684 -52.109  1.00  0.00     0.001 A 
HETATM   25  C   UNL     1     -39.796  51.922 -53.249  1.00  0.00     0.000 A 
HETATM   26  C   UNL     1     -40.137  52.415 -54.507  1.00  0.00     0.001 A 
HETATM   27  C   UNL     1     -40.742  53.668 -54.626  1.00  0.00     0.015 A 
ENDBRANCH   4  22
TORSDOF 4
ENDMDL
MODEL 7
REMARK VINA RESULT:      -7.9      4.919      6.669
REMARK  4 active torsions:
REMARK  status: ('A' for Active; 'I' for Inactive)
REMARK    1  A    between atoms: C_4  and  C_5 
REMARK    2  A    between atoms: C_14  and  C_15 
REMARK    3  A    between atoms: C_15  and  C_16 
REMARK    4  A    between atoms: C_17  and  O_18 
ROOT
HETATM    1  C   UNL     1     -43.382  58.966 -54.795  1.00  0.00     0.071 C 
HETATM    2  C   UNL     1     -43.064  57.705 -55.557  1.00  0.00     0.045 A 
HETATM    3  N   UNL     1     -42.393  56.776 -54.791  1.00  0.00    -0.234 NA
HETATM    4  C   UNL     1     -42.085  55.636 -55.321  1.00  0.00     0.141 A 
HETATM    5  N   UNL     1     -42.356  55.346 -56.631  1.00  0.00    -0.307 N 
HETATM    6  C   UNL     1     -43.022  56.208 -57.439  1.00  0.00     0.255 A 
HETATM    7  O   UNL     1     -43.306  55.921 -58.601  1.00  0.00    -0.268 OA
HETATM    8  C   UNL     1     -43.429  57.498 -56.838  1.00  0.00     0.039 A 
HETATM    9  H   UNL     1     -42.073  54.480 -57.061  1.00  0.00     0.170 HD
ENDROOT
BRANCH   8  10
HETATM   10  C   UNL     1     -44.193  58.431 -57.743  1.00  0.00     0.088 C 
BRANCH  10  11
HETATM   11  C   UNL     1     -43.307  59.229 -58.681  1.00  0.00    -0.020 A 
HETATM   12  C   UNL     1     -43.301  59.053 -60.084  1.00  0.00     0.074 A 
HETATM   13  C   UNL     1     -42.518  59.857 -60.916  1.00  0.00     0.074 A 
HETATM   14  C   UNL     1     -41.724  60.817 -60.330  1.00  0.00     0.077 A 
HETATM   15  C   UNL     1     -41.675  60.982 -58.959  1.00  0.00    -0.022 A 
HETATM   16  O   UNL     1     -40.895  61.666 -61.017  1.00  0.00    -0.350 OA
HETATM   17  C   UNL     1     -40.662  62.009 -58.631  1.00  0.00     0.068 C 
HETATM   18  C   UNL     1     -42.452  60.200 -58.121  1.00  0.00     0.020 A 
HETATM   19  C   UNL     1     -40.502  62.634 -60.017  1.00  0.00     0.180 C 
BRANCH  12  20
HETATM   20  O   UNL     1     -44.035  58.102 -60.736  1.00  0.00    -0.360 OA
HETATM   21  H   UNL     1     -44.447  57.472 -60.112  1.00  0.00     0.217 HD
ENDBRANCH  12  20
ENDBRANCH  10  11
ENDBRANCH   8  10
BRANCH   4  22
HETATM   22  C   UNL     1     -41.404  54.579 -54.521  1.00  0.00     0.010 A 
HETATM   23  C   UNL     1     -40.570  53.623 -55.115  1.00  0.00     0.015 A 
HETATM   24  C   UNL     1     -39.965  52.637 -54.333  1.00  0.00     0.001 A 
HETATM   25  C   UNL     1     -40.197  52.593 -52.959  1.00  0.00     0.000 A 
HETATM   26  C   UNL     1     -41.039  53.529 -52.364  1.00  0.00     0.001 A 
HETATM   27  C   UNL     1     -41.644  54.519 -53.142  1.00  0.00     0.015 A 
ENDBRANCH   4  22
TORSDOF 4
ENDMDL
MODEL 8
REMARK VINA RESULT:      -7.8      1.760      2.226
REMARK  4 active torsions:
REMARK  status: ('A' for Active; 'I' for Inactive)
REMARK    1  A    between atoms: C_4  and  C_5 
REMARK    2  A    between atoms: C_14  and  C_15 
REMARK    3  A    between atoms: C_15  and  C_16 
REMARK    4  A    between atoms: C_17  and  O_18 
ROOT
HETATM    1  C   UNL     1     -40.160  58.977 -52.750  1.00  0.00     0.071 C 
HETATM    2  C   UNL     1     -41.049  57.932 -53.373  1.00  0.00     0.045 A 
HETATM    3  N   UNL     1     -40.569  56.653 -53.198  1.00  0.00    -0.234 NA
HETATM    4  C   UNL     1     -41.255  55.659 -53.664  1.00  0.00     0.141 A 
HETATM    5  N   UNL     1     -42.413  55.843 -54.370  1.00  0.00    -0.307 N 
HETATM    6  C   UNL     1     -42.949  57.073 -54.572  1.00  0.00     0.255 A 
HETATM    7  O   UNL     1     -44.015  57.228 -55.165  1.00  0.00    -0.268 OA
HETATM    8  C   UNL     1     -42.206  58.221 -54.003  1.00  0.00     0.039 A 
HETATM    9  H   UNL     1     -42.924  55.077 -54.778  1.00  0.00     0.170 HD
ENDROOT
BRANCH   8  10
HETATM   10  C   UNL     1     -42.832  59.576 -54.212  1.00  0.00     0.088 C 
BRANCH  10  11
HETATM   11  C   UNL     1     -43.813  59.966 -53.122  1.00  0.00    -0.020 A 
HETATM   12  C   UNL     1     -45.217  59.889 -53.274  1.00  0.00     0.074 A 
HETATM   13  C   UNL     1     -46.082  60.193 -52.222  1.00  0.00     0.074 A 
HETATM   14  C   UNL     1     -45.533  60.599 -51.027  1.00  0.00     0.077 A 
HETATM   15  C   UNL     1     -44.166  60.726 -50.861  1.00  0.00    -0.022 A 
HETATM   16  O   UNL     1     -46.257  60.943 -49.914  1.00  0.00    -0.350 OA
HETATM   17  C   UNL     1     -43.891  61.277 -49.516  1.00  0.00     0.068 C 
HETATM   18  C   UNL     1     -43.294  60.420 -51.892  1.00  0.00     0.020 A 
HETATM   19  C   UNL     1     -45.255  61.025 -48.874  1.00  0.00     0.180 C 
BRANCH  12  20
HETATM   20  O   UNL     1     -45.838  59.526 -54.437  1.00  0.00    -0.360 OA
HETATM   21  H   UNL     1     -45.203  59.435 -55.174  1.00  0.00     0.217 HD
ENDBRANCH  12  20
ENDBRANCH  10  11
ENDBRANCH   8  10
BRANCH   4  22
HETATM   22  C   UNL     1     -40.806  54.254 -53.458  1.00  0.00     0.010 A 
HETATM   23  C   UNL     1     -40.561  53.736 -52.179  1.00  0.00     0.015 A 
HETATM   24  C   UNL     1     -40.122  52.418 -52.028  1.00  0.00     0.001 A 
HETATM   25  C   UNL     1     -39.915  51.616 -53.149  1.00  0.00     0.000 A 
HETATM   26  C   UNL     1     -40.140  52.130 -54.424  1.00  0.00     0.001 A 
HETATM   27  C   UNL     1     -40.581  53.446 -54.580  1.00  0.00     0.015 A 
ENDBRANCH   4  22
TORSDOF 4
ENDMDL
MODEL 9
REMARK VINA RESULT:      -7.8      3.508      4.971
REMARK  4 active torsions:
REMARK  status: ('A' for Active; 'I' for Inactive)
REMARK    1  A    between atoms: C_4  and  C_5 
REMARK    2  A    between atoms: C_14  and  C_15 
REMARK    3  A    between atoms: C_15  and  C_16 
REMARK    4  A    between atoms: C_17  and  O_18 
ROOT
HETATM    1  C   UNL     1     -40.727  58.293 -53.563  1.00  0.00     0.071 C 
HETATM    2  C   UNL     1     -41.559  57.046 -53.723  1.00  0.00     0.045 A 
HETATM    3  N   UNL     1     -40.849  55.896 -53.456  1.00  0.00    -0.234 NA
HETATM    4  C   UNL     1     -41.457  54.756 -53.530  1.00  0.00     0.141 A 
HETATM    5  N   UNL     1     -42.765  54.654 -53.918  1.00  0.00    -0.307 N 
HETATM    6  C   UNL     1     -43.527  55.745 -54.187  1.00  0.00     0.255 A 
HETATM    7  O   UNL     1     -44.715  55.648 -54.486  1.00  0.00    -0.268 OA
HETATM    8  C   UNL     1     -42.865  57.062 -54.057  1.00  0.00     0.039 A 
HETATM    9  H   UNL     1     -43.228  53.766 -54.026  1.00  0.00     0.170 HD
ENDROOT
BRANCH   8  10
HETATM   10  C   UNL     1     -43.735  58.263 -54.331  1.00  0.00     0.088 C 
BRANCH  10  11
HETATM   11  C   UNL     1     -43.920  58.553 -55.808  1.00  0.00    -0.020 A 
HETATM   12  C   UNL     1     -45.131  58.322 -56.501  1.00  0.00     0.074 A 
HETATM   13  C   UNL     1     -45.279  58.667 -57.846  1.00  0.00     0.074 A 
HETATM   14  C   UNL     1     -44.200  59.221 -58.496  1.00  0.00     0.077 A 
HETATM   15  C   UNL     1     -42.990  59.419 -57.857  1.00  0.00    -0.022 A 
HETATM   16  O   UNL     1     -44.194  59.596 -59.815  1.00  0.00    -0.350 OA
HETATM   17  C   UNL     1     -42.003  59.926 -58.836  1.00  0.00     0.068 C 
HETATM   18  C   UNL     1     -42.829  59.090 -56.522  1.00  0.00     0.020 A 
HETATM   19  C   UNL     1     -42.966  60.350 -59.945  1.00  0.00     0.180 C 
BRANCH  12  20
HETATM   20  O   UNL     1     -46.234  57.746 -55.934  1.00  0.00    -0.360 OA
HETATM   21  H   UNL     1     -47.058  58.190 -56.215  1.00  0.00     0.217 HD
ENDBRANCH  12  20
ENDBRANCH  10  11
ENDBRANCH   8  10
BRANCH   4  22
HETATM   22  C   UNL     1     -40.748  53.487 -53.202  1.00  0.00     0.010 A 
HETATM   23  C   UNL     1     -40.397  52.559 -54.191  1.00  0.00     0.015 A 
HETATM   24  C   UNL     1     -39.749  51.372 -53.840  1.00  0.00     0.001 A 
HETATM   25  C   UNL     1     -39.458  51.101 -52.504  1.00  0.00     0.000 A 
HETATM   26  C   UNL     1     -39.820  52.012 -51.514  1.00  0.00     0.001 A 
HETATM   27  C   UNL     1     -40.465  53.201 -51.860  1.00  0.00     0.015 A 
ENDBRANCH   4  22
TORSDOF 4
ENDMDL
MODEL 10
REMARK VINA RESULT:      -7.8      2.851      7.816
REMARK  4 active torsions:
REMARK  status: ('A' for Active; 'I' for Inactive)
REMARK    1  A    between atoms: C_4  and  C_5 
REMARK    2  A    between atoms: C_14  and  C_15 
REMARK    3  A    between atoms: C_15  and  C_16 
REMARK    4  A    between atoms: C_17  and  O_18 
ROOT
HETATM    1  C   UNL     1     -44.335  56.973 -53.765  1.00  0.00     0.071 C 
HETATM    2  C   UNL     1     -43.317  57.960 -53.253  1.00  0.00     0.045 A 
HETATM    3  N   UNL     1     -43.866  58.898 -52.406  1.00  0.00    -0.234 NA
HETATM    4  C   UNL     1     -43.091  59.788 -51.875  1.00  0.00     0.141 A 
HETATM    5  N   UNL     1     -41.757  59.859 -52.170  1.00  0.00    -0.307 N 
HETATM    6  C   UNL     1     -41.148  58.964 -52.988  1.00  0.00     0.255 A 
HETATM    7  O   UNL     1     -39.939  59.004 -53.210  1.00  0.00    -0.268 OA
HETATM    8  C   UNL     1     -42.007  57.905 -53.566  1.00  0.00     0.039 A 
HETATM    9  H   UNL     1     -41.160  60.581 -51.798  1.00  0.00     0.170 HD
ENDROOT
BRANCH   8  10
HETATM   10  C   UNL     1     -41.307  56.902 -54.448  1.00  0.00     0.088 C 
BRANCH  10  11
HETATM   11  C   UNL     1     -41.037  55.576 -53.763  1.00  0.00    -0.020 A 
HETATM   12  C   UNL     1     -40.620  54.414 -54.452  1.00  0.00     0.074 A 
HETATM   13  C   UNL     1     -40.317  53.232 -53.773  1.00  0.00     0.074 A 
HETATM   14  C   UNL     1     -40.460  53.216 -52.404  1.00  0.00     0.077 A 
HETATM   15  C   UNL     1     -40.908  54.322 -51.707  1.00  0.00    -0.022 A 
HETATM   16  O   UNL     1     -40.214  52.126 -51.609  1.00  0.00    -0.350 OA
HETATM   17  C   UNL     1     -41.058  53.966 -50.279  1.00  0.00     0.068 C 
HETATM   18  C   UNL     1     -41.204  55.504 -52.364  1.00  0.00     0.020 A 
HETATM   19  C   UNL     1     -40.241  52.674 -50.270  1.00  0.00     0.180 C 
BRANCH  12  20
HETATM   20  O   UNL     1     -40.487  54.342 -55.811  1.00  0.00    -0.360 OA
HETATM   21  H   UNL     1     -39.982  55.100 -56.166  1.00  0.00     0.217 HD
ENDBRANCH  12  20
ENDBRANCH  10  11
ENDBRANCH   8  10
BRANCH   4  22
HETATM   22  C   UNL     1     -43.626  60.792 -50.913  1.00  0.00     0.010 A 
HETATM   23  C   UNL     1     -43.064  62.070 -50.789  1.00  0.00     0.015 A 
HETATM   24  C   UNL     1     -43.582  62.977 -49.862  1.00  0.00     0.001 A 
HETATM   25  C   UNL     1     -44.654  62.612 -49.049  1.00  0.00     0.000 A 
HETATM   26  C   UNL     1     -45.207  61.338 -49.155  1.00  0.00     0.001 A 
HETATM   27  C   UNL     1     -44.693  60.428 -50.082  1.00  0.00     0.015 A 
ENDBRANCH   4  22
TORSDOF 4
ENDMDL
