MODEL 1
REMARK VINA RESULT:      -8.2      0.000      0.000
REMARK  6 active torsions:
REMARK  status: ('A' for Active; 'I' for Inactive)
REMARK    1  A    between atoms: C_6  and  C_7 
REMARK    2  A    between atoms: C_10  and  O_11 
REMARK    3  A    between atoms: C_15  and  C_16 
REMARK    4  A    between atoms: C_16  and  C_17 
REMARK       I    between atoms: C_17  and  N_18 
REMARK    5  A    between atoms: N_18  and  C_19 
REMARK    6  A    between atoms: C_19  and  C_20 
ROOT
HETATM    1  C   UNL     1     -44.480  56.388 -54.224  1.00  0.00     0.146 C 
ENDROOT
BRANCH   1   2
HETATM    2  C   UNL     1     -44.209  57.577 -53.361  1.00  0.00     0.006 A 
HETATM    3  C   UNL     1     -44.565  58.884 -53.658  1.00  0.00     0.033 A 
HETATM    4  C   UNL     1     -45.270  59.485 -54.816  1.00  0.00     0.070 C 
HETATM    5  N   UNL     1     -44.126  59.637 -52.611  1.00  0.00    -0.282 N 
HETATM    6  H   UNL     1     -44.216  60.639 -52.478  1.00  0.00     0.189 HD
HETATM    7  N   UNL     1     -43.493  58.932 -51.674  1.00  0.00    -0.173 NA
HETATM    8  C   UNL     1     -43.552  57.654 -52.085  1.00  0.00     0.096 A 
BRANCH   8   9
HETATM    9  C   UNL     1     -42.949  56.602 -51.251  1.00  0.00    -0.005 A 
HETATM   10  C   UNL     1     -43.628  55.429 -50.911  1.00  0.00     0.016 A 
HETATM   11  C   UNL     1     -43.021  54.460 -50.099  1.00  0.00     0.037 A 
HETATM   12  C   UNL     1     -41.741  54.661 -49.584  1.00  0.00     0.068 A 
HETATM   13  C   UNL     1     -41.051  55.824 -49.915  1.00  0.00     0.037 A 
HETATM   14  C   UNL     1     -41.653  56.781 -50.742  1.00  0.00     0.016 A 
BRANCH  12  15
HETATM   15  O   UNL     1     -41.272  53.654 -48.787  1.00  0.00    -0.356 OA
HETATM   16  C   UNL     1     -40.221  53.999 -47.892  1.00  0.00     0.210 C 
ENDBRANCH  12  15
ENDBRANCH   8   9
ENDBRANCH   1   2
BRANCH   1  17
HETATM   17  C   UNL     1     -43.285  55.860 -54.999  1.00  0.00     0.222 C 
HETATM   18  N   UNL     1     -42.423  55.042 -54.309  1.00  0.00    -0.350 N 
HETATM   19  H   UNL     1     -42.664  54.717 -53.380  1.00  0.00     0.163 HD
HETATM   20  O   UNL     1     -43.068  56.228 -56.152  1.00  0.00    -0.273 OA
BRANCH  18  21
HETATM   21  C   UNL     1     -41.107  54.699 -54.823  1.00  0.00     0.150 C 
HETATM   22  C   UNL     1     -40.172  55.893 -54.644  1.00  0.00     0.040 C 
BRANCH  21  23
HETATM   23  C   UNL     1     -40.601  53.475 -54.126  1.00  0.00     0.127 A 
HETATM   24  N   UNL     1     -40.362  52.293 -54.661  1.00  0.00    -0.231 NA
HETATM   25  C   UNL     1     -40.071  51.460 -53.610  1.00  0.00     0.085 A 
HETATM   26  C   UNL     1     -40.089  52.154 -52.406  1.00  0.00     0.062 A 
HETATM   27  C   UNL     1     -39.797  50.084 -53.607  1.00  0.00     0.034 A 
HETATM   28  N   UNL     1     -40.407  53.439 -52.762  1.00  0.00    -0.341 N 
HETATM   29  C   UNL     1     -39.837  51.551 -51.172  1.00  0.00     0.032 A 
HETATM   30  H   UNL     1     -40.527  54.223 -52.133  1.00  0.00     0.167 HD
HETATM   31  C   UNL     1     -39.572  50.175 -51.187  1.00  0.00     0.002 A 
HETATM   32  C   UNL     1     -39.552  49.451 -52.382  1.00  0.00     0.002 A 
ENDBRANCH  21  23
ENDBRANCH  18  21
ENDBRANCH   1  17
TORSDOF 6
ENDMDL
MODEL 2
REMARK VINA RESULT:      -8.0      3.397      6.524
REMARK  6 active torsions:
REMARK  status: ('A' for Active; 'I' for Inactive)
REMARK    1  A    between atoms: C_6  and  C_7 
REMARK    2  A    between atoms: C_10  and  O_11 
REMARK    3  A    between atoms: C_15  and  C_16 
REMARK    4  A    between atoms: C_16  and  C_17 
REMARK       I    between atoms: C_17  and  N_18 
REMARK    5  A    between atoms: N_18  and  C_19 
REMARK    6  A    between atoms: C_19  and  C_20 
ROOT
HETATM    1  C   UNL     1     -41.151  56.883 -53.597  1.00  0.00     0.146 C 
ENDROOT
BRANCH   1   2
HETATM    2  C   UNL     1     -41.300  56.549 -52.148  1.00  0.00     0.006 A 
HETATM    3  C   UNL     1     -41.686  57.436 -51.155  1.00  0.00     0.033 A 
HETATM    4  C   UNL     1     -42.050  58.873 -51.191  1.00  0.00     0.070 C 
HETATM    5  N   UNL     1     -41.688  56.721 -49.996  1.00  0.00    -0.282 N 
HETATM    6  H   UNL     1     -41.925  57.039 -49.062  1.00  0.00     0.189 HD
HETATM    7  N   UNL     1     -41.311  55.452 -50.151  1.00  0.00    -0.173 NA
HETATM    8  C   UNL     1     -41.094  55.299 -51.469  1.00  0.00     0.096 A 
BRANCH   8   9
HETATM    9  C   UNL     1     -40.674  53.985 -51.981  1.00  0.00    -0.005 A 
HETATM   10  C   UNL     1     -39.885  53.103 -51.238  1.00  0.00     0.016 A 
HETATM   11  C   UNL     1     -39.495  51.868 -51.773  1.00  0.00     0.037 A 
HETATM   12  C   UNL     1     -39.856  51.506 -53.071  1.00  0.00     0.068 A 
HETATM   13  C   UNL     1     -40.643  52.373 -53.823  1.00  0.00     0.037 A 
HETATM   14  C   UNL     1     -41.047  53.599 -53.279  1.00  0.00     0.016 A 
BRANCH  12  15
HETATM   15  O   UNL     1     -39.392  50.287 -53.483  1.00  0.00    -0.356 OA
HETATM   16  C   UNL     1     -39.859  49.832 -54.747  1.00  0.00     0.210 C 
ENDBRANCH  12  15
ENDBRANCH   8   9
ENDBRANCH   1   2
BRANCH   1  17
HETATM   17  C   UNL     1     -42.449  57.139 -54.343  1.00  0.00     0.222 C 
HETATM   18  N   UNL     1     -42.378  57.995 -55.416  1.00  0.00    -0.350 N 
HETATM   19  H   UNL     1     -41.478  58.317 -55.751  1.00  0.00     0.163 HD
HETATM   20  O   UNL     1     -43.512  56.670 -53.940  1.00  0.00    -0.273 OA
BRANCH  18  21
HETATM   21  C   UNL     1     -43.568  58.551 -56.038  1.00  0.00     0.150 C 
HETATM   22  C   UNL     1     -43.271  59.973 -56.507  1.00  0.00     0.040 C 
BRANCH  21  23
HETATM   23  C   UNL     1     -44.004  57.664 -57.164  1.00  0.00     0.127 A 
HETATM   24  N   UNL     1     -43.262  56.805 -57.837  1.00  0.00    -0.231 NA
HETATM   25  C   UNL     1     -44.054  56.353 -58.863  1.00  0.00     0.085 A 
HETATM   26  C   UNL     1     -45.324  56.913 -58.794  1.00  0.00     0.062 A 
HETATM   27  C   UNL     1     -43.746  55.471 -59.909  1.00  0.00     0.034 A 
HETATM   28  N   UNL     1     -45.275  57.727 -57.693  1.00  0.00    -0.341 N 
HETATM   29  C   UNL     1     -46.332  56.636 -59.720  1.00  0.00     0.032 A 
HETATM   30  H   UNL     1     -46.025  58.313 -57.347  1.00  0.00     0.167 HD
HETATM   31  C   UNL     1     -46.005  55.757 -60.761  1.00  0.00     0.002 A 
HETATM   32  C   UNL     1     -44.735  55.184 -60.857  1.00  0.00     0.002 A 
ENDBRANCH  21  23
ENDBRANCH  18  21
ENDBRANCH   1  17
TORSDOF 6
ENDMDL
MODEL 3
REMARK VINA RESULT:      -7.8      3.236      6.879
REMARK  6 active torsions:
REMARK  status: ('A' for Active; 'I' for Inactive)
REMARK    1  A    between atoms: C_6  and  C_7 
REMARK    2  A    between atoms: C_10  and  O_11 
REMARK    3  A    between atoms: C_15  and  C_16 
REMARK    4  A    between atoms: C_16  and  C_17 
REMARK       I    between atoms: C_17  and  N_18 
REMARK    5  A    between atoms: N_18  and  C_19 
REMARK    6  A    between atoms: C_19  and  C_20 
ROOT
HETATM    1  C   UNL     1     -40.710  54.040 -55.033  1.00  0.00     0.146 C 
ENDROOT
BRANCH   1   2
HETATM    2  C   UNL     1     -40.661  53.630 -53.596  1.00  0.00     0.006 A 
HETATM    3  C   UNL     1     -40.141  52.437 -53.119  1.00  0.00     0.033 A 
HETATM    4  C   UNL     1     -39.514  51.280 -53.802  1.00  0.00     0.070 C 
HETATM    5  N   UNL     1     -40.302  52.475 -51.767  1.00  0.00    -0.282 N 
HETATM    6  H   UNL     1     -40.032  51.776 -51.082  1.00  0.00     0.189 HD
HETATM    7  N   UNL     1     -40.906  53.581 -51.331  1.00  0.00    -0.173 NA
HETATM    8  C   UNL     1     -41.115  54.331 -52.427  1.00  0.00     0.096 A 
BRANCH   8   9
HETATM    9  C   UNL     1     -41.761  55.646 -52.285  1.00  0.00    -0.005 A 
HETATM   10  C   UNL     1     -43.134  55.793 -52.074  1.00  0.00     0.016 A 
HETATM   11  C   UNL     1     -43.709  57.066 -51.962  1.00  0.00     0.037 A 
HETATM   12  C   UNL     1     -42.930  58.215 -52.093  1.00  0.00     0.068 A 
HETATM   13  C   UNL     1     -41.560  58.086 -52.302  1.00  0.00     0.037 A 
HETATM   14  C   UNL     1     -40.985  56.812 -52.395  1.00  0.00     0.016 A 
BRANCH  12  15
HETATM   15  O   UNL     1     -43.614  59.395 -51.988  1.00  0.00    -0.356 OA
HETATM   16  C   UNL     1     -45.017  59.330 -52.219  1.00  0.00     0.210 C 
ENDBRANCH  12  15
ENDBRANCH   8   9
ENDBRANCH   1   2
BRANCH   1  17
HETATM   17  C   UNL     1     -41.953  54.807 -55.449  1.00  0.00     0.222 C 
HETATM   18  N   UNL     1     -41.762  56.107 -55.851  1.00  0.00    -0.350 N 
HETATM   19  H   UNL     1     -40.824  56.467 -55.982  1.00  0.00     0.163 HD
HETATM   20  O   UNL     1     -43.071  54.306 -55.338  1.00  0.00    -0.273 OA
BRANCH  18  21
HETATM   21  C   UNL     1     -42.868  57.038 -56.001  1.00  0.00     0.150 C 
HETATM   22  C   UNL     1     -42.344  58.466 -55.867  1.00  0.00     0.040 C 
BRANCH  21  23
HETATM   23  C   UNL     1     -43.544  56.806 -57.317  1.00  0.00     0.127 A 
HETATM   24  N   UNL     1     -44.582  57.456 -57.808  1.00  0.00    -0.231 NA
HETATM   25  C   UNL     1     -44.934  56.786 -58.952  1.00  0.00     0.085 A 
HETATM   26  C   UNL     1     -44.069  55.726 -59.193  1.00  0.00     0.062 A 
HETATM   27  C   UNL     1     -46.002  57.017 -59.832  1.00  0.00     0.034 A 
HETATM   28  N   UNL     1     -43.180  55.771 -58.152  1.00  0.00    -0.341 N 
HETATM   29  C   UNL     1     -44.199  54.867 -60.288  1.00  0.00     0.032 A 
HETATM   30  H   UNL     1     -42.412  55.132 -57.990  1.00  0.00     0.167 HD
HETATM   31  C   UNL     1     -45.274  55.109 -61.152  1.00  0.00     0.002 A 
HETATM   32  C   UNL     1     -46.163  56.165 -60.931  1.00  0.00     0.002 A 
ENDBRANCH  21  23
ENDBRANCH  18  21
ENDBRANCH   1  17
TORSDOF 6
ENDMDL
MODEL 4
REMARK VINA RESULT:      -7.8      3.963      7.478
REMARK  6 active torsions:
REMARK  status: ('A' for Active; 'I' for Inactive)
REMARK    1  A    between atoms: C_6  and  C_7 
REMARK    2  A    between atoms: C_10  and  O_11 
REMARK    3  A    between atoms: C_15  and  C_16 
REMARK    4  A    between atoms: C_16  and  C_17 
REMARK       I    between atoms: C_17  and  N_18 
REMARK    5  A    between atoms: N_18  and  C_19 
REMARK    6  A    between atoms: C_19  and  C_20 
ROOT
HETATM    1  C   UNL     1     -41.662  57.224 -53.361  1.00  0.00     0.146 C 
ENDROOT
BRANCH   1   2
HETATM    2  C   UNL     1     -42.555  56.455 -52.441  1.00  0.00     0.006 A 
HETATM    3  C   UNL     1     -43.621  56.984 -51.729  1.00  0.00     0.033 A 
HETATM    4  C   UNL     1     -44.185  58.353 -51.652  1.00  0.00     0.070 C 
HETATM    5  N   UNL     1     -44.149  55.945 -51.024  1.00  0.00    -0.282 N 
HETATM    6  H   UNL     1     -44.946  55.954 -50.395  1.00  0.00     0.189 HD
HETATM    7  N   UNL     1     -43.499  54.795 -51.198  1.00  0.00    -0.173 NA
HETATM    8  C   UNL     1     -42.529  55.062 -52.089  1.00  0.00     0.096 A 
BRANCH   8   9
HETATM    9  C   UNL     1     -41.627  53.980 -52.517  1.00  0.00    -0.005 A 
HETATM   10  C   UNL     1     -41.623  53.473 -53.819  1.00  0.00     0.016 A 
HETATM   11  C   UNL     1     -40.758  52.430 -54.178  1.00  0.00     0.037 A 
HETATM   12  C   UNL     1     -39.908  51.852 -53.236  1.00  0.00     0.068 A 
HETATM   13  C   UNL     1     -39.899  52.347 -51.936  1.00  0.00     0.037 A 
HETATM   14  C   UNL     1     -40.751  53.402 -51.584  1.00  0.00     0.016 A 
BRANCH  12  15
HETATM   15  O   UNL     1     -39.133  50.828 -53.706  1.00  0.00    -0.356 OA
HETATM   16  C   UNL     1     -39.802  49.840 -54.481  1.00  0.00     0.210 C 
ENDBRANCH  12  15
ENDBRANCH   8   9
ENDBRANCH   1   2
BRANCH   1  17
HETATM   17  C   UNL     1     -42.170  57.375 -54.785  1.00  0.00     0.222 C 
HETATM   18  N   UNL     1     -42.612  58.624 -55.146  1.00  0.00    -0.350 N 
HETATM   19  H   UNL     1     -42.472  59.413 -54.526  1.00  0.00     0.163 HD
HETATM   20  O   UNL     1     -42.258  56.400 -55.530  1.00  0.00    -0.273 OA
BRANCH  18  21
HETATM   21  C   UNL     1     -43.379  58.849 -56.361  1.00  0.00     0.150 C 
HETATM   22  C   UNL     1     -44.697  59.533 -56.002  1.00  0.00     0.040 C 
BRANCH  21  23
HETATM   23  C   UNL     1     -42.566  59.659 -57.323  1.00  0.00     0.127 A 
HETATM   24  N   UNL     1     -41.617  60.528 -57.032  1.00  0.00    -0.231 NA
HETATM   25  C   UNL     1     -41.282  61.127 -58.220  1.00  0.00     0.085 A 
HETATM   26  C   UNL     1     -42.011  60.584 -59.272  1.00  0.00     0.062 A 
HETATM   27  C   UNL     1     -40.371  62.163 -58.476  1.00  0.00     0.034 A 
HETATM   28  N   UNL     1     -42.805  59.638 -58.680  1.00  0.00    -0.341 N 
HETATM   29  C   UNL     1     -41.878  61.013 -60.595  1.00  0.00     0.032 A 
HETATM   30  H   UNL     1     -43.486  59.051 -59.145  1.00  0.00     0.167 HD
HETATM   31  C   UNL     1     -40.968  62.052 -60.831  1.00  0.00     0.002 A 
HETATM   32  C   UNL     1     -40.226  62.619 -59.791  1.00  0.00     0.002 A 
ENDBRANCH  21  23
ENDBRANCH  18  21
ENDBRANCH   1  17
TORSDOF 6
ENDMDL
MODEL 5
REMARK VINA RESULT:      -7.6      3.450      7.215
REMARK  6 active torsions:
REMARK  status: ('A' for Active; 'I' for Inactive)
REMARK    1  A    between atoms: C_6  and  C_7 
REMARK    2  A    between atoms: C_10  and  O_11 
REMARK    3  A    between atoms: C_15  and  C_16 
REMARK    4  A    between atoms: C_16  and  C_17 
REMARK       I    between atoms: C_17  and  N_18 
REMARK    5  A    between atoms: N_18  and  C_19 
REMARK    6  A    between atoms: C_19  and  C_20 
ROOT
HETATM    1  C   UNL     1     -40.503  54.172 -54.829  1.00  0.00     0.146 C 
ENDROOT
BRANCH   1   2
HETATM    2  C   UNL     1     -40.565  53.626 -53.439  1.00  0.00     0.006 A 
HETATM    3  C   UNL     1     -40.098  52.382 -53.043  1.00  0.00     0.033 A 
HETATM    4  C   UNL     1     -39.438  51.283 -53.789  1.00  0.00     0.070 C 
HETATM    5  N   UNL     1     -40.357  52.294 -51.709  1.00  0.00    -0.282 N 
HETATM    6  H   UNL     1     -40.147  51.527 -51.078  1.00  0.00     0.189 HD
HETATM    7  N   UNL     1     -40.976  53.365 -51.213  1.00  0.00    -0.173 NA
HETATM    8  C   UNL     1     -41.094  54.221 -52.242  1.00  0.00     0.096 A 
BRANCH   8   9
HETATM    9  C   UNL     1     -41.730  55.529 -52.020  1.00  0.00    -0.005 A 
HETATM   10  C   UNL     1     -41.066  56.738 -52.248  1.00  0.00     0.016 A 
HETATM   11  C   UNL     1     -41.706  57.961 -52.007  1.00  0.00     0.037 A 
HETATM   12  C   UNL     1     -43.005  58.001 -51.502  1.00  0.00     0.068 A 
HETATM   13  C   UNL     1     -43.680  56.805 -51.272  1.00  0.00     0.037 A 
HETATM   14  C   UNL     1     -43.045  55.584 -51.531  1.00  0.00     0.016 A 
BRANCH  12  15
HETATM   15  O   UNL     1     -43.506  59.255 -51.287  1.00  0.00    -0.356 OA
HETATM   16  C   UNL     1     -42.608  60.201 -50.718  1.00  0.00     0.210 C 
ENDBRANCH  12  15
ENDBRANCH   8   9
ENDBRANCH   1   2
BRANCH   1  17
HETATM   17  C   UNL     1     -41.835  54.602 -55.419  1.00  0.00     0.222 C 
HETATM   18  N   UNL     1     -41.881  55.860 -55.970  1.00  0.00    -0.350 N 
HETATM   19  H   UNL     1     -41.030  56.398 -56.083  1.00  0.00     0.163 HD
HETATM   20  O   UNL     1     -42.830  53.886 -55.320  1.00  0.00    -0.273 OA
BRANCH  18  21
HETATM   21  C   UNL     1     -43.138  56.507 -56.308  1.00  0.00     0.150 C 
HETATM   22  C   UNL     1     -43.699  57.195 -55.066  1.00  0.00     0.040 C 
BRANCH  21  23
HETATM   23  C   UNL     1     -42.918  57.468 -57.435  1.00  0.00     0.127 A 
HETATM   24  N   UNL     1     -42.827  57.184 -58.721  1.00  0.00    -0.231 NA
HETATM   25  C   UNL     1     -42.468  58.356 -59.338  1.00  0.00     0.085 A 
HETATM   26  C   UNL     1     -42.376  59.393 -58.417  1.00  0.00     0.062 A 
HETATM   27  C   UNL     1     -42.181  58.606 -60.688  1.00  0.00     0.034 A 
HETATM   28  N   UNL     1     -42.689  58.810 -57.217  1.00  0.00    -0.341 N 
HETATM   29  C   UNL     1     -42.018  60.697 -58.768  1.00  0.00     0.032 A 
HETATM   30  H   UNL     1     -42.705  59.267 -56.315  1.00  0.00     0.167 HD
HETATM   31  C   UNL     1     -41.730  60.927 -60.120  1.00  0.00     0.002 A 
HETATM   32  C   UNL     1     -41.808  59.901 -61.065  1.00  0.00     0.002 A 
ENDBRANCH  21  23
ENDBRANCH  18  21
ENDBRANCH   1  17
TORSDOF 6
ENDMDL
MODEL 6
REMARK VINA RESULT:      -7.6      3.635      6.645
REMARK  6 active torsions:
REMARK  status: ('A' for Active; 'I' for Inactive)
REMARK    1  A    between atoms: C_6  and  C_7 
REMARK    2  A    between atoms: C_10  and  O_11 
REMARK    3  A    between atoms: C_15  and  C_16 
REMARK    4  A    between atoms: C_16  and  C_17 
REMARK       I    between atoms: C_17  and  N_18 
REMARK    5  A    between atoms: N_18  and  C_19 
REMARK    6  A    between atoms: C_19  and  C_20 
ROOT
HETATM    1  C   UNL     1     -43.529  55.360 -54.467  1.00  0.00     0.146 C 
ENDROOT
BRANCH   1   2
HETATM    2  C   UNL     1     -42.988  56.051 -53.257  1.00  0.00     0.006 A 
HETATM    3  C   UNL     1     -43.314  57.336 -52.853  1.00  0.00     0.033 A 
HETATM    4  C   UNL     1     -44.224  58.358 -53.424  1.00  0.00     0.070 C 
HETATM    5  N   UNL     1     -42.598  57.563 -51.717  1.00  0.00    -0.282 N 
HETATM    6  H   UNL     1     -42.587  58.396 -51.137  1.00  0.00     0.189 HD
HETATM    7  N   UNL     1     -41.816  56.542 -51.366  1.00  0.00    -0.173 NA
HETATM    8  C   UNL     1     -42.052  55.579 -52.274  1.00  0.00     0.096 A 
BRANCH   8   9
HETATM    9  C   UNL     1     -41.347  54.293 -52.158  1.00  0.00    -0.005 A 
HETATM   10  C   UNL     1     -41.009  53.727 -50.926  1.00  0.00     0.016 A 
HETATM   11  C   UNL     1     -40.322  52.507 -50.864  1.00  0.00     0.037 A 
HETATM   12  C   UNL     1     -39.928  51.849 -52.028  1.00  0.00     0.068 A 
HETATM   13  C   UNL     1     -40.258  52.400 -53.263  1.00  0.00     0.037 A 
HETATM   14  C   UNL     1     -40.962  53.609 -53.323  1.00  0.00     0.016 A 
BRANCH  12  15
HETATM   15  O   UNL     1     -39.243  50.682 -51.831  1.00  0.00    -0.356 OA
HETATM   16  C   UNL     1     -39.573  49.605 -52.701  1.00  0.00     0.210 C 
ENDBRANCH  12  15
ENDBRANCH   8   9
ENDBRANCH   1   2
BRANCH   1  17
HETATM   17  C   UNL     1     -42.817  55.677 -55.770  1.00  0.00     0.222 C 
HETATM   18  N   UNL     1     -43.607  55.774 -56.890  1.00  0.00    -0.350 N 
HETATM   19  H   UNL     1     -44.616  55.764 -56.803  1.00  0.00     0.163 HD
HETATM   20  O   UNL     1     -41.590  55.748 -55.818  1.00  0.00    -0.273 OA
BRANCH  18  21
HETATM   21  C   UNL     1     -43.045  55.787 -58.231  1.00  0.00     0.150 C 
HETATM   22  C   UNL     1     -44.010  55.086 -59.186  1.00  0.00     0.040 C 
BRANCH  21  23
HETATM   23  C   UNL     1     -42.768  57.199 -58.644  1.00  0.00     0.127 A 
HETATM   24  N   UNL     1     -42.819  57.699 -59.864  1.00  0.00    -0.231 NA
HETATM   25  C   UNL     1     -42.333  58.978 -59.764  1.00  0.00     0.085 A 
HETATM   26  C   UNL     1     -42.016  59.287 -58.446  1.00  0.00     0.062 A 
HETATM   27  C   UNL     1     -42.115  59.935 -60.767  1.00  0.00     0.034 A 
HETATM   28  N   UNL     1     -42.322  58.147 -57.749  1.00  0.00    -0.341 N 
HETATM   29  C   UNL     1     -41.492  60.521 -58.055  1.00  0.00     0.032 A 
HETATM   30  H   UNL     1     -42.201  58.002 -56.755  1.00  0.00     0.167 HD
HETATM   31  C   UNL     1     -41.276  61.462 -59.071  1.00  0.00     0.002 A 
HETATM   32  C   UNL     1     -41.580  61.176 -60.404  1.00  0.00     0.002 A 
ENDBRANCH  21  23
ENDBRANCH  18  21
ENDBRANCH   1  17
TORSDOF 6
ENDMDL
MODEL 7
REMARK VINA RESULT:      -7.5      3.818      7.195
REMARK  6 active torsions:
REMARK  status: ('A' for Active; 'I' for Inactive)
REMARK    1  A    between atoms: C_6  and  C_7 
REMARK    2  A    between atoms: C_10  and  O_11 
REMARK    3  A    between atoms: C_15  and  C_16 
REMARK    4  A    between atoms: C_16  and  C_17 
REMARK       I    between atoms: C_17  and  N_18 
REMARK    5  A    between atoms: N_18  and  C_19 
REMARK    6  A    between atoms: C_19  and  C_20 
ROOT
HETATM    1  C   UNL     1     -44.011  56.682 -53.716  1.00  0.00     0.146 C 
ENDROOT
BRANCH   1   2
HETATM    2  C   UNL     1     -43.099  56.832 -52.542  1.00  0.00     0.006 A 
HETATM    3  C   UNL     1     -43.202  57.811 -51.565  1.00  0.00     0.033 A 
HETATM    4  C   UNL     1     -44.159  58.926 -51.371  1.00  0.00     0.070 C 
HETATM    5  N   UNL     1     -42.177  57.581 -50.698  1.00  0.00    -0.282 N 
HETATM    6  H   UNL     1     -41.941  58.095 -49.855  1.00  0.00     0.189 HD
HETATM    7  N   UNL     1     -41.404  56.552 -51.044  1.00  0.00    -0.173 NA
HETATM    8  C   UNL     1     -41.959  56.045 -52.159  1.00  0.00     0.096 A 
BRANCH   8   9
HETATM    9  C   UNL     1     -41.345  54.870 -52.797  1.00  0.00    -0.005 A 
HETATM   10  C   UNL     1     -40.955  54.858 -54.139  1.00  0.00     0.016 A 
HETATM   11  C   UNL     1     -40.390  53.710 -54.710  1.00  0.00     0.037 A 
HETATM   12  C   UNL     1     -40.236  52.542 -53.962  1.00  0.00     0.068 A 
HETATM   13  C   UNL     1     -40.618  52.539 -52.624  1.00  0.00     0.037 A 
HETATM   14  C   UNL     1     -41.166  53.694 -52.051  1.00  0.00     0.016 A 
BRANCH  12  15
HETATM   15  O   UNL     1     -39.696  51.486 -54.641  1.00  0.00    -0.356 OA
HETATM   16  C   UNL     1     -40.229  50.203 -54.334  1.00  0.00     0.210 C 
ENDBRANCH  12  15
ENDBRANCH   8   9
ENDBRANCH   1   2
BRANCH   1  17
HETATM   17  C   UNL     1     -43.443  57.148 -55.045  1.00  0.00     0.222 C 
HETATM   18  N   UNL     1     -43.966  56.563 -56.173  1.00  0.00    -0.350 N 
HETATM   19  H   UNL     1     -44.775  55.957 -56.103  1.00  0.00     0.163 HD
HETATM   20  O   UNL     1     -42.503  57.941 -55.086  1.00  0.00    -0.273 OA
BRANCH  18  21
HETATM   21  C   UNL     1     -43.334  56.696 -57.475  1.00  0.00     0.150 C 
HETATM   22  C   UNL     1     -42.592  55.402 -57.807  1.00  0.00     0.040 C 
BRANCH  21  23
HETATM   23  C   UNL     1     -44.370  57.033 -58.502  1.00  0.00     0.127 A 
HETATM   24  N   UNL     1     -44.848  58.228 -58.792  1.00  0.00    -0.231 NA
HETATM   25  C   UNL     1     -45.878  58.014 -59.673  1.00  0.00     0.085 A 
HETATM   26  C   UNL     1     -46.009  56.662 -59.965  1.00  0.00     0.062 A 
HETATM   27  C   UNL     1     -46.764  58.933 -60.255  1.00  0.00     0.034 A 
HETATM   28  N   UNL     1     -45.024  56.059 -59.226  1.00  0.00    -0.341 N 
HETATM   29  C   UNL     1     -46.984  56.157 -60.828  1.00  0.00     0.032 A 
HETATM   30  H   UNL     1     -44.833  55.067 -59.177  1.00  0.00     0.167 HD
HETATM   31  C   UNL     1     -47.864  57.089 -61.396  1.00  0.00     0.002 A 
HETATM   32  C   UNL     1     -47.758  58.453 -61.115  1.00  0.00     0.002 A 
ENDBRANCH  21  23
ENDBRANCH  18  21
ENDBRANCH   1  17
TORSDOF 6
ENDMDL
MODEL 8
REMARK VINA RESULT:      -7.3     14.897     17.964
REMARK  6 active torsions:
REMARK  status: ('A' for Active; 'I' for Inactive)
REMARK    1  A    between atoms: C_6  and  C_7 
REMARK    2  A    between atoms: C_10  and  O_11 
REMARK    3  A    between atoms: C_15  and  C_16 
REMARK    4  A    between atoms: C_16  and  C_17 
REMARK       I    between atoms: C_17  and  N_18 
REMARK    5  A    between atoms: N_18  and  C_19 
REMARK    6  A    between atoms: C_19  and  C_20 
ROOT
HETATM    1  C   UNL     1     -35.262  38.214 -50.192  1.00  0.00     0.146 C 
ENDROOT
BRANCH   1   2
HETATM    2  C   UNL     1     -33.925  38.324 -49.533  1.00  0.00     0.006 A 
HETATM    3  C   UNL     1     -33.677  38.138 -48.182  1.00  0.00     0.033 A 
HETATM    4  C   UNL     1     -34.566  37.795 -47.045  1.00  0.00     0.070 C 
HETATM    5  N   UNL     1     -32.340  38.335 -48.017  1.00  0.00    -0.282 N 
HETATM    6  H   UNL     1     -31.797  38.276 -47.162  1.00  0.00     0.189 HD
HETATM    7  N   UNL     1     -31.705  38.659 -49.143  1.00  0.00    -0.173 NA
HETATM    8  C   UNL     1     -32.643  38.631 -50.106  1.00  0.00     0.096 A 
BRANCH   8   9
HETATM    9  C   UNL     1     -32.259  38.931 -51.494  1.00  0.00    -0.005 A 
HETATM   10  C   UNL     1     -32.240  40.231 -52.007  1.00  0.00     0.016 A 
HETATM   11  C   UNL     1     -31.883  40.469 -53.341  1.00  0.00     0.037 A 
HETATM   12  C   UNL     1     -31.572  39.412 -54.196  1.00  0.00     0.068 A 
HETATM   13  C   UNL     1     -31.585  38.112 -53.700  1.00  0.00     0.037 A 
HETATM   14  C   UNL     1     -31.924  37.878 -52.361  1.00  0.00     0.016 A 
BRANCH  12  15
HETATM   15  O   UNL     1     -31.265  39.774 -55.479  1.00  0.00    -0.356 OA
HETATM   16  C   UNL     1     -32.353  40.211 -56.285  1.00  0.00     0.210 C 
ENDBRANCH  12  15
ENDBRANCH   8   9
ENDBRANCH   1   2
BRANCH   1  17
HETATM   17  C   UNL     1     -35.949  39.534 -50.496  1.00  0.00     0.222 C 
HETATM   18  N   UNL     1     -35.716  40.071 -51.739  1.00  0.00    -0.350 N 
HETATM   19  H   UNL     1     -35.222  39.533 -52.441  1.00  0.00     0.163 HD
HETATM   20  O   UNL     1     -36.599  40.121 -49.632  1.00  0.00    -0.273 OA
BRANCH  18  21
HETATM   21  C   UNL     1     -36.067  41.444 -52.063  1.00  0.00     0.150 C 
HETATM   22  C   UNL     1     -34.900  42.359 -51.697  1.00  0.00     0.040 C 
BRANCH  21  23
HETATM   23  C   UNL     1     -36.425  41.540 -53.514  1.00  0.00     0.127 A 
HETATM   24  N   UNL     1     -37.514  41.077 -54.099  1.00  0.00    -0.231 NA
HETATM   25  C   UNL     1     -37.320  41.259 -55.446  1.00  0.00     0.085 A 
HETATM   26  C   UNL     1     -36.104  41.885 -55.691  1.00  0.00     0.062 A 
HETATM   27  C   UNL     1     -38.137  40.893 -56.526  1.00  0.00     0.034 A 
HETATM   28  N   UNL     1     -35.563  42.074 -54.446  1.00  0.00    -0.341 N 
HETATM   29  C   UNL     1     -35.645  42.186 -56.976  1.00  0.00     0.032 A 
HETATM   30  H   UNL     1     -34.664  42.491 -54.240  1.00  0.00     0.167 HD
HETATM   31  C   UNL     1     -36.471  41.808 -58.043  1.00  0.00     0.002 A 
HETATM   32  C   UNL     1     -37.696  41.172 -57.824  1.00  0.00     0.002 A 
ENDBRANCH  21  23
ENDBRANCH  18  21
ENDBRANCH   1  17
TORSDOF 6
ENDMDL
MODEL 9
REMARK VINA RESULT:      -7.1     14.753     16.827
REMARK  6 active torsions:
REMARK  status: ('A' for Active; 'I' for Inactive)
REMARK    1  A    between atoms: C_6  and  C_7 
REMARK    2  A    between atoms: C_10  and  O_11 
REMARK    3  A    between atoms: C_15  and  C_16 
REMARK    4  A    between atoms: C_16  and  C_17 
REMARK       I    between atoms: C_17  and  N_18 
REMARK    5  A    between atoms: N_18  and  C_19 
REMARK    6  A    between atoms: C_19  and  C_20 
ROOT
HETATM    1  C   UNL     1     -34.956  41.207 -57.426  1.00  0.00     0.146 C 
ENDROOT
BRANCH   1   2
HETATM    2  C   UNL     1     -36.434  41.139 -57.216  1.00  0.00     0.006 A 
HETATM    3  C   UNL     1     -37.389  41.150 -58.221  1.00  0.00     0.033 A 
HETATM    4  C   UNL     1     -37.279  41.220 -59.698  1.00  0.00     0.070 C 
HETATM    5  N   UNL     1     -38.594  41.077 -57.591  1.00  0.00    -0.282 N 
HETATM    6  H   UNL     1     -39.521  41.056 -58.007  1.00  0.00     0.189 HD
HETATM    7  N   UNL     1     -38.502  41.047 -56.262  1.00  0.00    -0.173 NA
HETATM    8  C   UNL     1     -37.184  41.052 -55.994  1.00  0.00     0.096 A 
BRANCH   8   9
HETATM    9  C   UNL     1     -36.735  41.005 -54.593  1.00  0.00    -0.005 A 
HETATM   10  C   UNL     1     -36.900  39.876 -53.786  1.00  0.00     0.016 A 
HETATM   11  C   UNL     1     -36.472  39.882 -52.451  1.00  0.00     0.037 A 
HETATM   12  C   UNL     1     -35.905  41.025 -51.889  1.00  0.00     0.068 A 
HETATM   13  C   UNL     1     -35.733  42.157 -52.680  1.00  0.00     0.037 A 
HETATM   14  C   UNL     1     -36.145  42.143 -54.019  1.00  0.00     0.016 A 
BRANCH  12  15
HETATM   15  O   UNL     1     -35.553  40.910 -50.572  1.00  0.00    -0.356 OA
HETATM   16  C   UNL     1     -36.049  39.766 -49.887  1.00  0.00     0.210 C 
ENDBRANCH  12  15
ENDBRANCH   8   9
ENDBRANCH   1   2
BRANCH   1  17
HETATM   17  C   UNL     1     -34.155  40.095 -56.772  1.00  0.00     0.222 C 
HETATM   18  N   UNL     1     -32.909  40.435 -56.302  1.00  0.00    -0.350 N 
HETATM   19  H   UNL     1     -32.620  41.406 -56.283  1.00  0.00     0.163 HD
HETATM   20  O   UNL     1     -34.576  38.939 -56.755  1.00  0.00    -0.273 OA
BRANCH  18  21
HETATM   21  C   UNL     1     -31.930  39.432 -55.918  1.00  0.00     0.150 C 
HETATM   22  C   UNL     1     -30.568  39.814 -56.493  1.00  0.00     0.040 C 
BRANCH  21  23
HETATM   23  C   UNL     1     -31.898  39.308 -54.426  1.00  0.00     0.127 A 
HETATM   24  N   UNL     1     -31.897  38.195 -53.716  1.00  0.00    -0.231 NA
HETATM   25  C   UNL     1     -32.026  38.587 -52.408  1.00  0.00     0.085 A 
HETATM   26  C   UNL     1     -32.064  39.973 -52.306  1.00  0.00     0.062 A 
HETATM   27  C   UNL     1     -32.136  37.808 -51.246  1.00  0.00     0.034 A 
HETATM   28  N   UNL     1     -31.959  40.410 -53.600  1.00  0.00    -0.341 N 
HETATM   29  C   UNL     1     -32.200  40.646 -51.089  1.00  0.00     0.032 A 
HETATM   30  H   UNL     1     -31.970  41.373 -53.910  1.00  0.00     0.167 HD
HETATM   31  C   UNL     1     -32.314  39.852 -49.941  1.00  0.00     0.002 A 
HETATM   32  C   UNL     1     -32.284  38.457 -50.015  1.00  0.00     0.002 A 
ENDBRANCH  21  23
ENDBRANCH  18  21
ENDBRANCH   1  17
TORSDOF 6
ENDMDL
MODEL 10
REMARK VINA RESULT:      -7.0      3.146      6.395
REMARK  6 active torsions:
REMARK  status: ('A' for Active; 'I' for Inactive)
REMARK    1  A    between atoms: C_6  and  C_7 
REMARK    2  A    between atoms: C_10  and  O_11 
REMARK    3  A    between atoms: C_15  and  C_16 
REMARK    4  A    between atoms: C_16  and  C_17 
REMARK       I    between atoms: C_17  and  N_18 
REMARK    5  A    between atoms: N_18  and  C_19 
REMARK    6  A    between atoms: C_19  and  C_20 
ROOT
HETATM    1  C   UNL     1     -43.749  55.696 -53.303  1.00  0.00     0.146 C 
ENDROOT
BRANCH   1   2
HETATM    2  C   UNL     1     -42.926  55.882 -52.070  1.00  0.00     0.006 A 
HETATM    3  C   UNL     1     -43.120  56.869 -51.116  1.00  0.00     0.033 A 
HETATM    4  C   UNL     1     -44.115  57.962 -51.003  1.00  0.00     0.070 C 
HETATM    5  N   UNL     1     -42.154  56.674 -50.176  1.00  0.00    -0.282 N 
HETATM    6  H   UNL     1     -41.989  57.202 -49.325  1.00  0.00     0.189 HD
HETATM    7  N   UNL     1     -41.334  55.661 -50.455  1.00  0.00    -0.173 NA
HETATM    8  C   UNL     1     -41.797  55.128 -51.599  1.00  0.00     0.096 A 
BRANCH   8   9
HETATM    9  C   UNL     1     -41.112  53.961 -52.178  1.00  0.00    -0.005 A 
HETATM   10  C   UNL     1     -40.418  53.032 -51.398  1.00  0.00     0.016 A 
HETATM   11  C   UNL     1     -39.766  51.943 -51.994  1.00  0.00     0.037 A 
HETATM   12  C   UNL     1     -39.766  51.782 -53.379  1.00  0.00     0.068 A 
HETATM   13  C   UNL     1     -40.454  52.699 -54.169  1.00  0.00     0.037 A 
HETATM   14  C   UNL     1     -41.121  53.775 -53.570  1.00  0.00     0.016 A 
BRANCH  12  15
HETATM   15  O   UNL     1     -39.073  50.695 -53.837  1.00  0.00    -0.356 OA
HETATM   16  C   UNL     1     -39.809  49.768 -54.625  1.00  0.00     0.210 C 
ENDBRANCH  12  15
ENDBRANCH   8   9
ENDBRANCH   1   2
BRANCH   1  17
HETATM   17  C   UNL     1     -43.919  56.935 -54.165  1.00  0.00     0.222 C 
HETATM   18  N   UNL     1     -45.191  57.198 -54.614  1.00  0.00    -0.350 N 
HETATM   19  H   UNL     1     -45.975  56.658 -54.266  1.00  0.00     0.163 HD
HETATM   20  O   UNL     1     -42.945  57.604 -54.509  1.00  0.00    -0.273 OA
BRANCH  18  21
HETATM   21  C   UNL     1     -45.453  58.168 -55.665  1.00  0.00     0.150 C 
HETATM   22  C   UNL     1     -45.404  59.575 -55.072  1.00  0.00     0.040 C 
BRANCH  21  23
HETATM   23  C   UNL     1     -44.462  57.986 -56.772  1.00  0.00     0.127 A 
HETATM   24  N   UNL     1     -43.787  58.929 -57.402  1.00  0.00    -0.231 NA
HETATM   25  C   UNL     1     -43.135  58.298 -58.431  1.00  0.00     0.085 A 
HETATM   26  C   UNL     1     -43.380  56.930 -58.408  1.00  0.00     0.062 A 
HETATM   27  C   UNL     1     -42.325  58.836 -59.443  1.00  0.00     0.034 A 
HETATM   28  N   UNL     1     -44.209  56.752 -57.331  1.00  0.00    -0.341 N 
HETATM   29  C   UNL     1     -42.849  56.043 -59.348  1.00  0.00     0.032 A 
HETATM   30  H   UNL     1     -44.609  55.876 -57.020  1.00  0.00     0.167 HD
HETATM   31  C   UNL     1     -42.048  56.598 -60.354  1.00  0.00     0.002 A 
HETATM   32  C   UNL     1     -41.789  57.971 -60.404  1.00  0.00     0.002 A 
ENDBRANCH  21  23
ENDBRANCH  18  21
ENDBRANCH   1  17
TORSDOF 6
ENDMDL
