MODEL 1
REMARK VINA RESULT:      -8.0      0.000      0.000
REMARK  5 active torsions:
REMARK  status: ('A' for Active; 'I' for Inactive)
REMARK    1  A    between atoms: C_3  and  O_4 
REMARK    2  A    between atoms: O_4  and  C_5 
REMARK    3  A    between atoms: C_8  and  N_9 
REMARK       I    between atoms: N_9  and  C_10 
REMARK    4  A    between atoms: C_10  and  C_11 
REMARK    5  A    between atoms: C_11  and  C_12 
ROOT
HETATM    1  C   UNL     1     -39.831  50.281 -51.319  1.00  0.00     0.004 A 
HETATM    2  C   UNL     1     -39.717  50.867 -52.581  1.00  0.00     0.037 A 
HETATM    3  C   UNL     1     -39.942  52.236 -52.741  1.00  0.00     0.077 A 
HETATM    4  C   UNL     1     -40.253  53.030 -51.634  1.00  0.00     0.059 A 
HETATM    5  C   UNL     1     -40.361  52.445 -50.367  1.00  0.00     0.047 A 
HETATM    6  C   UNL     1     -40.666  53.257 -49.226  1.00  0.00     0.099 C 
HETATM    7  N   UNL     1     -40.911  53.910 -48.298  1.00  0.00    -0.191 NA
HETATM    8  C   UNL     1     -40.154  51.069 -50.213  1.00  0.00     0.023 A 
ENDROOT
BRANCH   3   9
HETATM    9  O   UNL     1     -39.747  52.749 -54.004  1.00  0.00    -0.311 OA
BRANCH   9  10
HETATM   10  C   UNL     1     -40.701  53.627 -54.456  1.00  0.00     0.076 A 
HETATM   11  C   UNL     1     -40.325  54.936 -54.745  1.00  0.00     0.039 A 
HETATM   12  C   UNL     1     -41.266  55.836 -55.254  1.00  0.00     0.032 A 
HETATM   13  C   UNL     1     -42.577  55.423 -55.507  1.00  0.00     0.034 A 
HETATM   14  C   UNL     1     -42.933  54.092 -55.241  1.00  0.00     0.032 A 
HETATM   15  C   UNL     1     -41.999  53.195 -54.716  1.00  0.00     0.039 A 
BRANCH  13  16
HETATM   16  N   UNL     1     -43.577  56.263 -56.044  1.00  0.00    -0.327 N 
HETATM   17  C   UNL     1     -43.498  57.041 -57.192  1.00  0.00     0.227 C 
HETATM   18  O   UNL     1     -42.496  57.186 -57.888  1.00  0.00    -0.273 OA
HETATM   19  H   UNL     1     -44.435  56.325 -55.509  1.00  0.00     0.169 HD
BRANCH  17  20
HETATM   20  C   UNL     1     -44.813  57.777 -57.475  1.00  0.00     0.159 C 
BRANCH  20  21
HETATM   21  C   UNL     1     -45.607  57.219 -58.620  1.00  0.00     0.017 A 
HETATM   22  N   UNL     1     -45.243  56.081 -59.306  1.00  0.00    -0.369 N 
HETATM   23  H   UNL     1     -44.436  55.508 -59.075  1.00  0.00     0.165 HD
HETATM   24  C   UNL     1     -46.144  55.832 -60.306  1.00  0.00     0.088 A 
HETATM   25  C   UNL     1     -47.100  56.821 -60.271  1.00  0.00     0.019 A 
HETATM   26  C   UNL     1     -46.763  57.695 -59.211  1.00  0.00     0.027 A 
ENDBRANCH  20  21
ENDBRANCH  17  20
ENDBRANCH  13  16
ENDBRANCH   9  10
ENDBRANCH   3   9
TORSDOF 5
ENDMDL
MODEL 2
REMARK VINA RESULT:      -7.9      1.967      2.549
REMARK  5 active torsions:
REMARK  status: ('A' for Active; 'I' for Inactive)
REMARK    1  A    between atoms: C_3  and  O_4 
REMARK    2  A    between atoms: O_4  and  C_5 
REMARK    3  A    between atoms: C_8  and  N_9 
REMARK       I    between atoms: N_9  and  C_10 
REMARK    4  A    between atoms: C_10  and  C_11 
REMARK    5  A    between atoms: C_11  and  C_12 
ROOT
HETATM    1  C   UNL     1     -40.218  51.508 -50.026  1.00  0.00     0.004 A 
HETATM    2  C   UNL     1     -40.615  52.800 -50.367  1.00  0.00     0.037 A 
HETATM    3  C   UNL     1     -40.637  53.196 -51.706  1.00  0.00     0.077 A 
HETATM    4  C   UNL     1     -40.290  52.290 -52.712  1.00  0.00     0.059 A 
HETATM    5  C   UNL     1     -39.897  50.991 -52.370  1.00  0.00     0.047 A 
HETATM    6  C   UNL     1     -39.553  50.052 -53.398  1.00  0.00     0.099 C 
HETATM    7  N   UNL     1     -39.275  49.288 -54.226  1.00  0.00    -0.191 NA
HETATM    8  C   UNL     1     -39.858  50.603 -51.026  1.00  0.00     0.023 A 
ENDROOT
BRANCH   3   9
HETATM    9  O   UNL     1     -41.103  54.466 -51.967  1.00  0.00    -0.311 OA
BRANCH   9  10
HETATM   10  C   UNL     1     -41.522  54.707 -53.252  1.00  0.00     0.076 A 
HETATM   11  C   UNL     1     -40.617  55.244 -54.163  1.00  0.00     0.039 A 
HETATM   12  C   UNL     1     -41.004  55.452 -55.491  1.00  0.00     0.032 A 
HETATM   13  C   UNL     1     -42.286  55.096 -55.920  1.00  0.00     0.034 A 
HETATM   14  C   UNL     1     -43.176  54.525 -54.997  1.00  0.00     0.032 A 
HETATM   15  C   UNL     1     -42.797  54.332 -53.665  1.00  0.00     0.039 A 
BRANCH  13  16
HETATM   16  N   UNL     1     -42.743  55.250 -57.247  1.00  0.00    -0.327 N 
HETATM   17  C   UNL     1     -43.006  56.440 -57.915  1.00  0.00     0.227 C 
HETATM   18  O   UNL     1     -42.961  57.562 -57.418  1.00  0.00    -0.273 OA
HETATM   19  H   UNL     1     -42.928  54.392 -57.752  1.00  0.00     0.169 HD
BRANCH  17  20
HETATM   20  C   UNL     1     -43.438  56.195 -59.365  1.00  0.00     0.159 C 
BRANCH  20  21
HETATM   21  C   UNL     1     -44.906  56.377 -59.619  1.00  0.00     0.017 A 
HETATM   22  N   UNL     1     -45.720  57.146 -58.817  1.00  0.00    -0.369 N 
HETATM   23  H   UNL     1     -45.394  57.681 -58.017  1.00  0.00     0.165 HD
HETATM   24  C   UNL     1     -47.007  57.104 -59.283  1.00  0.00     0.088 A 
HETATM   25  C   UNL     1     -47.029  56.295 -60.395  1.00  0.00     0.019 A 
HETATM   26  C   UNL     1     -45.708  55.835 -60.608  1.00  0.00     0.027 A 
ENDBRANCH  20  21
ENDBRANCH  17  20
ENDBRANCH  13  16
ENDBRANCH   9  10
ENDBRANCH   3   9
TORSDOF 5
ENDMDL
MODEL 3
REMARK VINA RESULT:      -7.5     14.248     17.967
REMARK  5 active torsions:
REMARK  status: ('A' for Active; 'I' for Inactive)
REMARK    1  A    between atoms: C_3  and  O_4 
REMARK    2  A    between atoms: O_4  and  C_5 
REMARK    3  A    between atoms: C_8  and  N_9 
REMARK       I    between atoms: N_9  and  C_10 
REMARK    4  A    between atoms: C_10  and  C_11 
REMARK    5  A    between atoms: C_11  and  C_12 
ROOT
HETATM    1  C   UNL     1     -38.737  38.575 -59.210  1.00  0.00     0.004 A 
HETATM    2  C   UNL     1     -38.373  39.816 -58.686  1.00  0.00     0.037 A 
HETATM    3  C   UNL     1     -37.611  40.702 -59.450  1.00  0.00     0.077 A 
HETATM    4  C   UNL     1     -37.235  40.362 -60.752  1.00  0.00     0.059 A 
HETATM    5  C   UNL     1     -37.606  39.121 -61.281  1.00  0.00     0.047 A 
HETATM    6  C   UNL     1     -37.234  38.772 -62.621  1.00  0.00     0.099 C 
HETATM    7  N   UNL     1     -36.938  38.486 -63.706  1.00  0.00    -0.191 NA
HETATM    8  C   UNL     1     -38.354  38.227 -60.505  1.00  0.00     0.023 A 
ENDROOT
BRANCH   3   9
HETATM    9  O   UNL     1     -37.347  41.932 -58.888  1.00  0.00    -0.311 OA
BRANCH   9  10
HETATM   10  C   UNL     1     -36.785  41.919 -57.636  1.00  0.00     0.076 A 
HETATM   11  C   UNL     1     -35.419  41.682 -57.516  1.00  0.00     0.039 A 
HETATM   12  C   UNL     1     -34.814  41.714 -56.256  1.00  0.00     0.032 A 
HETATM   13  C   UNL     1     -35.564  42.014 -55.115  1.00  0.00     0.034 A 
HETATM   14  C   UNL     1     -36.934  42.282 -55.256  1.00  0.00     0.032 A 
HETATM   15  C   UNL     1     -37.546  42.234 -56.513  1.00  0.00     0.039 A 
BRANCH  13  16
HETATM   16  N   UNL     1     -35.022  42.090 -53.814  1.00  0.00    -0.327 N 
HETATM   17  C   UNL     1     -35.076  41.121 -52.819  1.00  0.00     0.227 C 
HETATM   18  O   UNL     1     -35.688  40.059 -52.892  1.00  0.00    -0.273 OA
HETATM   19  H   UNL     1     -34.572  42.965 -53.575  1.00  0.00     0.169 HD
BRANCH  17  20
HETATM   20  C   UNL     1     -34.325  41.558 -51.557  1.00  0.00     0.159 C 
BRANCH  20  21
HETATM   21  C   UNL     1     -33.347  40.548 -51.032  1.00  0.00     0.017 A 
HETATM   22  N   UNL     1     -32.828  39.530 -51.802  1.00  0.00    -0.369 N 
HETATM   23  H   UNL     1     -33.031  39.399 -52.789  1.00  0.00     0.165 HD
HETATM   24  C   UNL     1     -31.985  38.759 -51.047  1.00  0.00     0.088 A 
HETATM   25  C   UNL     1     -31.959  39.279 -49.774  1.00  0.00     0.019 A 
HETATM   26  C   UNL     1     -32.817  40.405 -49.762  1.00  0.00     0.027 A 
ENDBRANCH  20  21
ENDBRANCH  17  20
ENDBRANCH  13  16
ENDBRANCH   9  10
ENDBRANCH   3   9
TORSDOF 5
ENDMDL
MODEL 4
REMARK VINA RESULT:      -7.5      1.709      2.276
REMARK  5 active torsions:
REMARK  status: ('A' for Active; 'I' for Inactive)
REMARK    1  A    between atoms: C_3  and  O_4 
REMARK    2  A    between atoms: O_4  and  C_5 
REMARK    3  A    between atoms: C_8  and  N_9 
REMARK       I    between atoms: N_9  and  C_10 
REMARK    4  A    between atoms: C_10  and  C_11 
REMARK    5  A    between atoms: C_11  and  C_12 
ROOT
HETATM    1  C   UNL     1     -39.950  52.097 -54.547  1.00  0.00     0.004 A 
HETATM    2  C   UNL     1     -40.393  53.342 -54.100  1.00  0.00     0.037 A 
HETATM    3  C   UNL     1     -40.547  53.582 -52.733  1.00  0.00     0.077 A 
HETATM    4  C   UNL     1     -40.229  52.587 -51.806  1.00  0.00     0.059 A 
HETATM    5  C   UNL     1     -39.778  51.340 -52.253  1.00  0.00     0.047 A 
HETATM    6  C   UNL     1     -39.438  50.318 -51.306  1.00  0.00     0.099 C 
HETATM    7  N   UNL     1     -39.158  49.489 -50.543  1.00  0.00    -0.191 NA
HETATM    8  C   UNL     1     -39.643  51.096 -53.625  1.00  0.00     0.023 A 
ENDROOT
BRANCH   3   9
HETATM    9  O   UNL     1     -40.926  54.855 -52.369  1.00  0.00    -0.311 OA
BRANCH   9  10
HETATM   10  C   UNL     1     -41.770  55.508 -53.233  1.00  0.00     0.076 A 
HETATM   11  C   UNL     1     -41.321  56.665 -53.863  1.00  0.00     0.039 A 
HETATM   12  C   UNL     1     -42.143  57.320 -54.786  1.00  0.00     0.032 A 
HETATM   13  C   UNL     1     -43.403  56.805 -55.105  1.00  0.00     0.034 A 
HETATM   14  C   UNL     1     -43.828  55.620 -54.485  1.00  0.00     0.032 A 
HETATM   15  C   UNL     1     -43.016  54.972 -53.550  1.00  0.00     0.039 A 
BRANCH  13  16
HETATM   16  N   UNL     1     -44.279  57.392 -56.043  1.00  0.00    -0.327 N 
HETATM   17  C   UNL     1     -44.115  57.463 -57.421  1.00  0.00     0.227 C 
HETATM   18  O   UNL     1     -43.123  57.090 -58.041  1.00  0.00    -0.273 OA
HETATM   19  H   UNL     1     -45.102  57.839 -55.658  1.00  0.00     0.169 HD
BRANCH  17  20
HETATM   20  C   UNL     1     -45.312  58.136 -58.104  1.00  0.00     0.159 C 
BRANCH  20  21
HETATM   21  C   UNL     1     -45.956  57.317 -59.183  1.00  0.00     0.017 A 
HETATM   22  N   UNL     1     -45.509  56.067 -59.550  1.00  0.00    -0.369 N 
HETATM   23  H   UNL     1     -44.736  55.582 -59.102  1.00  0.00     0.165 HD
HETATM   24  C   UNL     1     -46.278  55.578 -60.572  1.00  0.00     0.088 A 
HETATM   25  C   UNL     1     -47.231  56.522 -60.874  1.00  0.00     0.019 A 
HETATM   26  C   UNL     1     -47.031  57.618 -60.002  1.00  0.00     0.027 A 
ENDBRANCH  20  21
ENDBRANCH  17  20
ENDBRANCH  13  16
ENDBRANCH   9  10
ENDBRANCH   3   9
TORSDOF 5
ENDMDL
MODEL 5
REMARK VINA RESULT:      -7.4      5.370      6.789
REMARK  5 active torsions:
REMARK  status: ('A' for Active; 'I' for Inactive)
REMARK    1  A    between atoms: C_3  and  O_4 
REMARK    2  A    between atoms: O_4  and  C_5 
REMARK    3  A    between atoms: C_8  and  N_9 
REMARK       I    between atoms: N_9  and  C_10 
REMARK    4  A    between atoms: C_10  and  C_11 
REMARK    5  A    between atoms: C_11  and  C_12 
ROOT
HETATM    1  C   UNL     1     -40.260  53.250 -51.698  1.00  0.00     0.004 A 
HETATM    2  C   UNL     1     -40.566  54.325 -52.533  1.00  0.00     0.037 A 
HETATM    3  C   UNL     1     -40.607  54.147 -53.918  1.00  0.00     0.077 A 
HETATM    4  C   UNL     1     -40.371  52.885 -54.470  1.00  0.00     0.059 A 
HETATM    5  C   UNL     1     -40.071  51.805 -53.632  1.00  0.00     0.047 A 
HETATM    6  C   UNL     1     -39.842  50.505 -54.192  1.00  0.00     0.099 C 
HETATM    7  N   UNL     1     -39.658  49.451 -54.640  1.00  0.00    -0.191 NA
HETATM    8  C   UNL     1     -40.012  51.991 -52.246  1.00  0.00     0.023 A 
ENDROOT
BRANCH   3   9
HETATM    9  O   UNL     1     -40.979  55.239 -54.670  1.00  0.00    -0.311 OA
BRANCH   9  10
HETATM   10  C   UNL     1     -41.818  56.138 -54.060  1.00  0.00     0.076 A 
HETATM   11  C   UNL     1     -41.271  57.278 -53.478  1.00  0.00     0.039 A 
HETATM   12  C   UNL     1     -42.109  58.234 -52.896  1.00  0.00     0.032 A 
HETATM   13  C   UNL     1     -43.497  58.070 -52.920  1.00  0.00     0.034 A 
HETATM   14  C   UNL     1     -44.035  56.931 -53.539  1.00  0.00     0.032 A 
HETATM   15  C   UNL     1     -43.199  55.966 -54.107  1.00  0.00     0.039 A 
BRANCH  13  16
HETATM   16  N   UNL     1     -44.410  59.001 -52.377  1.00  0.00    -0.327 N 
HETATM   17  C   UNL     1     -45.213  58.839 -51.255  1.00  0.00     0.227 C 
HETATM   18  O   UNL     1     -45.317  57.808 -50.596  1.00  0.00    -0.273 OA
HETATM   19  H   UNL     1     -44.507  59.871 -52.887  1.00  0.00     0.169 HD
BRANCH  17  20
HETATM   20  C   UNL     1     -46.033  60.098 -50.954  1.00  0.00     0.159 C 
BRANCH  20  21
HETATM   21  C   UNL     1     -45.594  60.852 -49.733  1.00  0.00     0.017 A 
HETATM   22  N   UNL     1     -45.353  60.246 -48.519  1.00  0.00    -0.369 N 
HETATM   23  H   UNL     1     -45.415  59.244 -48.358  1.00  0.00     0.165 HD
HETATM   24  C   UNL     1     -44.990  61.187 -47.593  1.00  0.00     0.088 A 
HETATM   25  C   UNL     1     -45.000  62.416 -48.210  1.00  0.00     0.019 A 
HETATM   26  C   UNL     1     -45.381  62.208 -49.558  1.00  0.00     0.027 A 
ENDBRANCH  20  21
ENDBRANCH  17  20
ENDBRANCH  13  16
ENDBRANCH   9  10
ENDBRANCH   3   9
TORSDOF 5
ENDMDL
MODEL 6
REMARK VINA RESULT:      -7.4      2.516      3.164
REMARK  5 active torsions:
REMARK  status: ('A' for Active; 'I' for Inactive)
REMARK    1  A    between atoms: C_3  and  O_4 
REMARK    2  A    between atoms: O_4  and  C_5 
REMARK    3  A    between atoms: C_8  and  N_9 
REMARK       I    between atoms: N_9  and  C_10 
REMARK    4  A    between atoms: C_10  and  C_11 
REMARK    5  A    between atoms: C_11  and  C_12 
ROOT
HETATM    1  C   UNL     1     -40.100  51.432 -50.348  1.00  0.00     0.004 A 
HETATM    2  C   UNL     1     -40.420  52.767 -50.598  1.00  0.00     0.037 A 
HETATM    3  C   UNL     1     -40.436  53.250 -51.908  1.00  0.00     0.077 A 
HETATM    4  C   UNL     1     -40.163  52.391 -52.976  1.00  0.00     0.059 A 
HETATM    5  C   UNL     1     -39.850  51.050 -52.727  1.00  0.00     0.047 A 
HETATM    6  C   UNL     1     -39.581  50.161 -53.819  1.00  0.00     0.099 C 
HETATM    7  N   UNL     1     -39.366  49.437 -54.700  1.00  0.00    -0.191 NA
HETATM    8  C   UNL     1     -39.815  50.574 -51.411  1.00  0.00     0.023 A 
ENDROOT
BRANCH   3   9
HETATM    9  O   UNL     1     -40.823  54.560 -52.078  1.00  0.00    -0.311 OA
BRANCH   9  10
HETATM   10  C   UNL     1     -41.487  54.852 -53.244  1.00  0.00     0.076 A 
HETATM   11  C   UNL     1     -42.856  54.610 -53.315  1.00  0.00     0.039 A 
HETATM   12  C   UNL     1     -43.564  54.946 -54.474  1.00  0.00     0.032 A 
HETATM   13  C   UNL     1     -42.913  55.552 -55.552  1.00  0.00     0.034 A 
HETATM   14  C   UNL     1     -41.539  55.818 -55.453  1.00  0.00     0.032 A 
HETATM   15  C   UNL     1     -40.825  55.469 -54.302  1.00  0.00     0.039 A 
BRANCH  13  16
HETATM   16  N   UNL     1     -43.562  55.942 -56.744  1.00  0.00    -0.327 N 
HETATM   17  C   UNL     1     -43.813  57.237 -57.182  1.00  0.00     0.227 C 
HETATM   18  O   UNL     1     -43.578  58.262 -56.548  1.00  0.00    -0.273 OA
HETATM   19  H   UNL     1     -43.909  55.189 -57.325  1.00  0.00     0.169 HD
BRANCH  17  20
HETATM   20  C   UNL     1     -44.495  57.252 -58.554  1.00  0.00     0.159 C 
BRANCH  20  21
HETATM   21  C   UNL     1     -43.922  58.243 -59.525  1.00  0.00     0.017 A 
HETATM   22  N   UNL     1     -42.574  58.505 -59.627  1.00  0.00    -0.369 N 
HETATM   23  H   UNL     1     -41.857  58.030 -59.086  1.00  0.00     0.165 HD
HETATM   24  C   UNL     1     -42.358  59.465 -60.579  1.00  0.00     0.088 A 
HETATM   25  C   UNL     1     -43.578  59.832 -61.097  1.00  0.00     0.019 A 
HETATM   26  C   UNL     1     -44.565  59.064 -60.435  1.00  0.00     0.027 A 
ENDBRANCH  20  21
ENDBRANCH  17  20
ENDBRANCH  13  16
ENDBRANCH   9  10
ENDBRANCH   3   9
TORSDOF 5
ENDMDL
MODEL 7
REMARK VINA RESULT:      -7.4      3.451      4.485
REMARK  5 active torsions:
REMARK  status: ('A' for Active; 'I' for Inactive)
REMARK    1  A    between atoms: C_3  and  O_4 
REMARK    2  A    between atoms: O_4  and  C_5 
REMARK    3  A    between atoms: C_8  and  N_9 
REMARK       I    between atoms: N_9  and  C_10 
REMARK    4  A    between atoms: C_10  and  C_11 
REMARK    5  A    between atoms: C_11  and  C_12 
ROOT
HETATM    1  C   UNL     1     -39.927  53.028 -51.421  1.00  0.00     0.004 A 
HETATM    2  C   UNL     1     -40.972  53.837 -51.869  1.00  0.00     0.037 A 
HETATM    3  C   UNL     1     -41.605  53.556 -53.082  1.00  0.00     0.077 A 
HETATM    4  C   UNL     1     -41.215  52.447 -53.836  1.00  0.00     0.059 A 
HETATM    5  C   UNL     1     -40.172  51.631 -53.384  1.00  0.00     0.047 A 
HETATM    6  C   UNL     1     -39.776  50.483 -54.147  1.00  0.00     0.099 C 
HETATM    7  N   UNL     1     -39.453  49.552 -54.760  1.00  0.00    -0.191 NA
HETATM    8  C   UNL     1     -39.527  51.926 -52.177  1.00  0.00     0.023 A 
ENDROOT
BRANCH   3   9
HETATM    9  O   UNL     1     -42.668  54.361 -53.423  1.00  0.00    -0.311 OA
BRANCH   9  10
HETATM   10  C   UNL     1     -42.517  55.118 -54.559  1.00  0.00     0.076 A 
HETATM   11  C   UNL     1     -43.026  54.634 -55.761  1.00  0.00     0.039 A 
HETATM   12  C   UNL     1     -42.929  55.408 -56.921  1.00  0.00     0.032 A 
HETATM   13  C   UNL     1     -42.351  56.680 -56.879  1.00  0.00     0.034 A 
HETATM   14  C   UNL     1     -41.871  57.167 -55.654  1.00  0.00     0.032 A 
HETATM   15  C   UNL     1     -41.951  56.389 -54.495  1.00  0.00     0.039 A 
BRANCH  13  16
HETATM   16  N   UNL     1     -42.240  57.531 -58.000  1.00  0.00    -0.327 N 
HETATM   17  C   UNL     1     -43.116  58.539 -58.385  1.00  0.00     0.227 C 
HETATM   18  O   UNL     1     -44.188  58.796 -57.844  1.00  0.00    -0.273 OA
HETATM   19  H   UNL     1     -41.446  57.361 -58.606  1.00  0.00     0.169 HD
BRANCH  17  20
HETATM   20  C   UNL     1     -42.622  59.278 -59.634  1.00  0.00     0.159 C 
BRANCH  20  21
HETATM   21  C   UNL     1     -41.825  60.518 -59.351  1.00  0.00     0.017 A 
HETATM   22  N   UNL     1     -41.560  61.477 -60.304  1.00  0.00    -0.369 N 
HETATM   23  H   UNL     1     -41.908  61.446 -61.259  1.00  0.00     0.165 HD
HETATM   24  C   UNL     1     -40.797  62.475 -59.760  1.00  0.00     0.088 A 
HETATM   25  C   UNL     1     -40.560  62.158 -58.443  1.00  0.00     0.019 A 
HETATM   26  C   UNL     1     -41.207  60.926 -58.183  1.00  0.00     0.027 A 
ENDBRANCH  20  21
ENDBRANCH  17  20
ENDBRANCH  13  16
ENDBRANCH   9  10
ENDBRANCH   3   9
TORSDOF 5
ENDMDL
MODEL 8
REMARK VINA RESULT:      -7.3      2.747      3.431
REMARK  5 active torsions:
REMARK  status: ('A' for Active; 'I' for Inactive)
REMARK    1  A    between atoms: C_3  and  O_4 
REMARK    2  A    between atoms: O_4  and  C_5 
REMARK    3  A    between atoms: C_8  and  N_9 
REMARK       I    between atoms: N_9  and  C_10 
REMARK    4  A    between atoms: C_10  and  C_11 
REMARK    5  A    between atoms: C_11  and  C_12 
ROOT
HETATM    1  C   UNL     1     -40.549  54.833 -49.365  1.00  0.00     0.004 A 
HETATM    2  C   UNL     1     -41.606  55.368 -50.101  1.00  0.00     0.037 A 
HETATM    3  C   UNL     1     -42.045  54.729 -51.263  1.00  0.00     0.077 A 
HETATM    4  C   UNL     1     -41.447  53.535 -51.676  1.00  0.00     0.059 A 
HETATM    5  C   UNL     1     -40.392  52.994 -50.933  1.00  0.00     0.047 A 
HETATM    6  C   UNL     1     -39.783  51.763 -51.344  1.00  0.00     0.099 C 
HETATM    7  N   UNL     1     -39.289  50.765 -51.671  1.00  0.00    -0.191 NA
HETATM    8  C   UNL     1     -39.941  53.648 -49.780  1.00  0.00     0.023 A 
ENDROOT
BRANCH   3   9
HETATM    9  O   UNL     1     -43.133  55.284 -51.899  1.00  0.00    -0.311 OA
BRANCH   9  10
HETATM   10  C   UNL     1     -42.983  55.553 -53.236  1.00  0.00     0.076 A 
HETATM   11  C   UNL     1     -42.308  56.709 -53.616  1.00  0.00     0.039 A 
HETATM   12  C   UNL     1     -42.098  56.981 -54.972  1.00  0.00     0.032 A 
HETATM   13  C   UNL     1     -42.534  56.084 -55.951  1.00  0.00     0.034 A 
HETATM   14  C   UNL     1     -43.185  54.906 -55.551  1.00  0.00     0.032 A 
HETATM   15  C   UNL     1     -43.411  54.640 -54.197  1.00  0.00     0.039 A 
BRANCH  13  16
HETATM   16  N   UNL     1     -42.338  56.273 -57.336  1.00  0.00    -0.327 N 
HETATM   17  C   UNL     1     -43.228  56.832 -58.245  1.00  0.00     0.227 C 
HETATM   18  O   UNL     1     -44.379  57.178 -57.995  1.00  0.00    -0.273 OA
HETATM   19  H   UNL     1     -41.459  55.933 -57.708  1.00  0.00     0.169 HD
BRANCH  17  20
HETATM   20  C   UNL     1     -42.628  56.912 -59.654  1.00  0.00     0.159 C 
BRANCH  20  21
HETATM   21  C   UNL     1     -42.815  58.235 -60.337  1.00  0.00     0.017 A 
HETATM   22  N   UNL     1     -44.046  58.715 -60.727  1.00  0.00    -0.369 N 
HETATM   23  H   UNL     1     -44.927  58.238 -60.554  1.00  0.00     0.165 HD
HETATM   24  C   UNL     1     -43.898  59.930 -61.341  1.00  0.00     0.088 A 
HETATM   25  C   UNL     1     -42.559  60.239 -61.354  1.00  0.00     0.019 A 
HETATM   26  C   UNL     1     -41.874  59.173 -60.723  1.00  0.00     0.027 A 
ENDBRANCH  20  21
ENDBRANCH  17  20
ENDBRANCH  13  16
ENDBRANCH   9  10
ENDBRANCH   3   9
TORSDOF 5
ENDMDL
MODEL 9
REMARK VINA RESULT:      -7.1      2.999      3.784
REMARK  5 active torsions:
REMARK  status: ('A' for Active; 'I' for Inactive)
REMARK    1  A    between atoms: C_3  and  O_4 
REMARK    2  A    between atoms: O_4  and  C_5 
REMARK    3  A    between atoms: C_8  and  N_9 
REMARK       I    between atoms: N_9  and  C_10 
REMARK    4  A    between atoms: C_10  and  C_11 
REMARK    5  A    between atoms: C_11  and  C_12 
ROOT
HETATM    1  C   UNL     1     -40.221  52.807 -52.435  1.00  0.00     0.004 A 
HETATM    2  C   UNL     1     -41.379  53.231 -53.087  1.00  0.00     0.037 A 
HETATM    3  C   UNL     1     -42.363  53.930 -52.385  1.00  0.00     0.077 A 
HETATM    4  C   UNL     1     -42.179  54.233 -51.034  1.00  0.00     0.059 A 
HETATM    5  C   UNL     1     -41.015  53.815 -50.380  1.00  0.00     0.047 A 
HETATM    6  C   UNL     1     -40.814  54.135 -48.997  1.00  0.00     0.099 C 
HETATM    7  N   UNL     1     -40.646  54.394 -47.878  1.00  0.00    -0.191 NA
HETATM    8  C   UNL     1     -40.038  53.098 -51.082  1.00  0.00     0.023 A 
ENDROOT
BRANCH   3   9
HETATM    9  O   UNL     1     -43.446  54.369 -53.114  1.00  0.00    -0.311 OA
BRANCH   9  10
HETATM   10  C   UNL     1     -43.163  55.110 -54.234  1.00  0.00     0.076 A 
HETATM   11  C   UNL     1     -42.737  56.426 -54.079  1.00  0.00     0.039 A 
HETATM   12  C   UNL     1     -42.394  57.186 -55.202  1.00  0.00     0.032 A 
HETATM   13  C   UNL     1     -42.447  56.624 -56.481  1.00  0.00     0.034 A 
HETATM   14  C   UNL     1     -42.848  55.287 -56.619  1.00  0.00     0.032 A 
HETATM   15  C   UNL     1     -43.207  54.530 -55.500  1.00  0.00     0.039 A 
BRANCH  13  16
HETATM   16  N   UNL     1     -42.093  57.317 -57.659  1.00  0.00    -0.327 N 
HETATM   17  C   UNL     1     -42.940  58.004 -58.520  1.00  0.00     0.227 C 
HETATM   18  O   UNL     1     -44.164  58.046 -58.432  1.00  0.00    -0.273 OA
HETATM   19  H   UNL     1     -41.115  57.277 -57.917  1.00  0.00     0.169 HD
BRANCH  17  20
HETATM   20  C   UNL     1     -42.171  58.670 -59.667  1.00  0.00     0.159 C 
BRANCH  20  21
HETATM   21  C   UNL     1     -41.764  60.090 -59.403  1.00  0.00     0.017 A 
HETATM   22  N   UNL     1     -41.553  61.012 -60.404  1.00  0.00    -0.369 N 
HETATM   23  H   UNL     1     -41.690  60.823 -61.394  1.00  0.00     0.165 HD
HETATM   24  C   UNL     1     -41.172  62.210 -59.862  1.00  0.00     0.088 A 
HETATM   25  C   UNL     1     -41.131  62.063 -58.495  1.00  0.00     0.019 A 
HETATM   26  C   UNL     1     -41.502  60.728 -58.204  1.00  0.00     0.027 A 
ENDBRANCH  20  21
ENDBRANCH  17  20
ENDBRANCH  13  16
ENDBRANCH   9  10
ENDBRANCH   3   9
TORSDOF 5
ENDMDL
MODEL 10
REMARK VINA RESULT:      -6.8      1.916      9.098
REMARK  5 active torsions:
REMARK  status: ('A' for Active; 'I' for Inactive)
REMARK    1  A    between atoms: C_3  and  O_4 
REMARK    2  A    between atoms: O_4  and  C_5 
REMARK    3  A    between atoms: C_8  and  N_9 
REMARK       I    between atoms: N_9  and  C_10 
REMARK    4  A    between atoms: C_10  and  C_11 
REMARK    5  A    between atoms: C_11  and  C_12 
ROOT
HETATM    1  C   UNL     1     -41.978  58.011 -59.449  1.00  0.00     0.004 A 
HETATM    2  C   UNL     1     -42.371  58.050 -58.111  1.00  0.00     0.037 A 
HETATM    3  C   UNL     1     -43.448  57.276 -57.674  1.00  0.00     0.077 A 
HETATM    4  C   UNL     1     -44.117  56.437 -58.568  1.00  0.00     0.059 A 
HETATM    5  C   UNL     1     -43.719  56.392 -59.909  1.00  0.00     0.047 A 
HETATM    6  C   UNL     1     -44.393  55.523 -60.829  1.00  0.00     0.099 C 
HETATM    7  N   UNL     1     -44.934  54.819 -61.577  1.00  0.00    -0.191 NA
HETATM    8  C   UNL     1     -42.651  57.184 -60.348  1.00  0.00     0.023 A 
ENDROOT
BRANCH   3   9
HETATM    9  O   UNL     1     -43.733  57.320 -56.328  1.00  0.00    -0.311 OA
BRANCH   9  10
HETATM   10  C   UNL     1     -43.082  56.404 -55.539  1.00  0.00     0.076 A 
HETATM   11  C   UNL     1     -41.690  56.406 -55.518  1.00  0.00     0.039 A 
HETATM   12  C   UNL     1     -41.005  55.517 -54.684  1.00  0.00     0.032 A 
HETATM   13  C   UNL     1     -41.706  54.646 -53.846  1.00  0.00     0.034 A 
HETATM   14  C   UNL     1     -43.109  54.679 -53.854  1.00  0.00     0.032 A 
HETATM   15  C   UNL     1     -43.798  55.554 -54.699  1.00  0.00     0.039 A 
BRANCH  13  16
HETATM   16  N   UNL     1     -41.088  53.738 -52.959  1.00  0.00    -0.327 N 
HETATM   17  C   UNL     1     -40.301  52.641 -53.287  1.00  0.00     0.227 C 
HETATM   18  O   UNL     1     -40.084  52.234 -54.425  1.00  0.00    -0.273 OA
HETATM   19  H   UNL     1     -41.268  53.892 -51.974  1.00  0.00     0.169 HD
BRANCH  17  20
HETATM   20  C   UNL     1     -39.766  51.929 -52.039  1.00  0.00     0.159 C 
BRANCH  20  21
HETATM   21  C   UNL     1     -39.916  52.706 -50.764  1.00  0.00     0.017 A 
HETATM   22  N   UNL     1     -40.792  52.350 -49.763  1.00  0.00    -0.369 N 
HETATM   23  H   UNL     1     -41.378  51.520 -49.784  1.00  0.00     0.165 HD
HETATM   24  C   UNL     1     -40.722  53.257 -48.739  1.00  0.00     0.088 A 
HETATM   25  C   UNL     1     -39.795  54.213 -49.082  1.00  0.00     0.019 A 
HETATM   26  C   UNL     1     -39.286  53.869 -50.357  1.00  0.00     0.027 A 
ENDBRANCH  20  21
ENDBRANCH  17  20
ENDBRANCH  13  16
ENDBRANCH   9  10
ENDBRANCH   3   9
TORSDOF 5
ENDMDL
