MODEL 1
REMARK VINA RESULT:      -8.4      0.000      0.000
REMARK  6 active torsions:
REMARK  status: ('A' for Active; 'I' for Inactive)
REMARK    1  A    between atoms: C_2  and  C_3 
REMARK       I    between atoms: C_3  and  N_4 
REMARK    2  A    between atoms: N_4  and  C_5 
REMARK    3  A    between atoms: C_5  and  C_6 
REMARK    4  A    between atoms: N_8  and  C_10 
REMARK    5  A    between atoms: C_10  and  C_11 
REMARK    6  A    between atoms: C_12  and  C_13 
ROOT
HETATM    1  C   UNL     1     -42.773  56.198 -56.231  1.00  0.00     0.029 C 
HETATM    2  C   UNL     1     -42.717  54.976 -55.307  1.00  0.00     0.241 C 
HETATM    3  N   UNL     1     -42.541  55.407 -53.862  1.00  0.00    -0.067 N 
HETATM    4  H   UNL     1     -41.668  55.942 -53.799  1.00  0.00     0.280 HD
HETATM    5  C   UNL     1     -43.647  56.320 -53.404  1.00  0.00     0.235 C 
HETATM    6  C   UNL     1     -43.670  57.556 -54.288  1.00  0.00     0.028 C 
HETATM    7  C   UNL     1     -43.846  57.191 -55.756  1.00  0.00     0.009 C 
ENDROOT
BRANCH   3   8
HETATM    8  C   UNL     1     -42.357  54.191 -52.966  1.00  0.00     0.277 C 
BRANCH   8   9
HETATM    9  C   UNL     1     -41.413  54.422 -51.840  1.00  0.00     0.016 A 
HETATM   10  C   UNL     1     -40.465  53.514 -51.257  1.00  0.00     0.096 A 
HETATM   11  N   UNL     1     -39.823  54.100 -50.238  1.00  0.00    -0.174 NA
HETATM   12  N   UNL     1     -40.362  55.314 -50.124  1.00  0.00    -0.288 N 
HETATM   13  H   UNL     1     -40.033  55.919 -49.375  1.00  0.00     0.188 HD
HETATM   14  C   UNL     1     -41.318  55.562 -51.062  1.00  0.00     0.120 A 
BRANCH  10  15
HETATM   15  C   UNL     1     -40.159  52.121 -51.597  1.00  0.00    -0.003 A 
HETATM   16  C   UNL     1     -39.964  51.707 -52.918  1.00  0.00     0.037 A 
HETATM   17  C   UNL     1     -39.689  50.369 -53.204  1.00  0.00     0.035 A 
HETATM   18 CL   UNL     1     -39.489  49.889 -54.846  1.00  0.00    -0.084 Cl
HETATM   19  C   UNL     1     -39.579  49.429 -52.183  1.00  0.00     0.024 A 
HETATM   20  C   UNL     1     -39.745  49.833 -50.861  1.00  0.00     0.003 A 
HETATM   21  C   UNL     1     -40.034  51.170 -50.571  1.00  0.00     0.014 A 
ENDBRANCH  10  15
ENDBRANCH   8   9
ENDBRANCH   3   8
BRANCH   1  22
HETATM   22  C   UNL     1     -43.068  55.805 -57.690  1.00  0.00     0.128 C 
BRANCH  22  23
HETATM   23  N   UNL     1     -44.188  56.511 -58.278  1.00  0.00    -0.360 N 
HETATM   24  C   UNL     1     -44.419  56.494 -59.639  1.00  0.00     0.221 C 
HETATM   25  O   UNL     1     -43.562  56.104 -60.427  1.00  0.00    -0.273 OA
HETATM   26  H   UNL     1     -44.956  56.776 -57.668  1.00  0.00     0.162 HD
BRANCH  24  27
HETATM   27  C   UNL     1     -45.777  57.050 -60.061  1.00  0.00     0.070 C 
HETATM   28  C   UNL     1     -46.528  57.624 -58.861  1.00  0.00     0.019 C 
HETATM   29  C   UNL     1     -46.618  55.968 -60.737  1.00  0.00     0.019 C 
ENDBRANCH  24  27
ENDBRANCH  22  23
ENDBRANCH   1  22
TORSDOF 6
ENDMDL
MODEL 2
REMARK VINA RESULT:      -8.4      1.481      2.076
REMARK  6 active torsions:
REMARK  status: ('A' for Active; 'I' for Inactive)
REMARK    1  A    between atoms: C_2  and  C_3 
REMARK       I    between atoms: C_3  and  N_4 
REMARK    2  A    between atoms: N_4  and  C_5 
REMARK    3  A    between atoms: C_5  and  C_6 
REMARK    4  A    between atoms: N_8  and  C_10 
REMARK    5  A    between atoms: C_10  and  C_11 
REMARK    6  A    between atoms: C_12  and  C_13 
ROOT
HETATM    1  C   UNL     1     -42.877  57.582 -56.280  1.00  0.00     0.029 C 
HETATM    2  C   UNL     1     -42.901  56.314 -55.419  1.00  0.00     0.241 C 
HETATM    3  N   UNL     1     -43.409  56.627 -54.023  1.00  0.00    -0.067 N 
HETATM    4  H   UNL     1     -42.782  57.326 -53.610  1.00  0.00     0.280 HD
HETATM    5  C   UNL     1     -44.787  57.233 -54.044  1.00  0.00     0.235 C 
HETATM    6  C   UNL     1     -44.753  58.518 -54.856  1.00  0.00     0.028 C 
HETATM    7  C   UNL     1     -44.250  58.272 -56.273  1.00  0.00     0.009 C 
ENDROOT
BRANCH   3   8
HETATM    8  C   UNL     1     -43.310  55.395 -53.136  1.00  0.00     0.277 C 
BRANCH   8   9
HETATM    9  C   UNL     1     -42.429  55.585 -51.952  1.00  0.00     0.016 A 
HETATM   10  C   UNL     1     -41.309  54.795 -51.524  1.00  0.00     0.096 A 
HETATM   11  N   UNL     1     -40.799  55.285 -50.387  1.00  0.00    -0.174 NA
HETATM   12  N   UNL     1     -41.580  56.315 -50.057  1.00  0.00    -0.288 N 
HETATM   13  H   UNL     1     -41.380  56.813 -49.192  1.00  0.00     0.188 HD
HETATM   14  C   UNL     1     -42.571  56.542 -50.963  1.00  0.00     0.120 A 
BRANCH  10  15
HETATM   15  C   UNL     1     -40.720  53.591 -52.119  1.00  0.00    -0.003 A 
HETATM   16  C   UNL     1     -40.337  52.493 -51.343  1.00  0.00     0.037 A 
HETATM   17  C   UNL     1     -39.766  51.370 -51.944  1.00  0.00     0.035 A 
HETATM   18 CL   UNL     1     -39.274  50.051 -50.953  1.00  0.00    -0.084 Cl
HETATM   19  C   UNL     1     -39.590  51.310 -53.324  1.00  0.00     0.024 A 
HETATM   20  C   UNL     1     -39.992  52.387 -54.111  1.00  0.00     0.003 A 
HETATM   21  C   UNL     1     -40.552  53.519 -53.512  1.00  0.00     0.014 A 
ENDBRANCH  10  15
ENDBRANCH   8   9
ENDBRANCH   3   8
BRANCH   1  22
HETATM   22  C   UNL     1     -42.478  57.282 -57.737  1.00  0.00     0.128 C 
BRANCH  22  23
HETATM   23  N   UNL     1     -43.545  56.719 -58.538  1.00  0.00    -0.360 N 
HETATM   24  C   UNL     1     -43.295  56.115 -59.755  1.00  0.00     0.221 C 
HETATM   25  O   UNL     1     -42.215  56.251 -60.324  1.00  0.00    -0.273 OA
HETATM   26  H   UNL     1     -44.427  56.515 -58.079  1.00  0.00     0.162 HD
BRANCH  24  27
HETATM   27  C   UNL     1     -44.474  55.339 -60.335  1.00  0.00     0.070 C 
HETATM   28  C   UNL     1     -45.760  56.161 -60.255  1.00  0.00     0.019 C 
HETATM   29  C   UNL     1     -44.657  54.008 -59.607  1.00  0.00     0.019 C 
ENDBRANCH  24  27
ENDBRANCH  22  23
ENDBRANCH   1  22
TORSDOF 6
ENDMDL
MODEL 3
REMARK VINA RESULT:      -8.3      4.846      7.306
REMARK  6 active torsions:
REMARK  status: ('A' for Active; 'I' for Inactive)
REMARK    1  A    between atoms: C_2  and  C_3 
REMARK       I    between atoms: C_3  and  N_4 
REMARK    2  A    between atoms: N_4  and  C_5 
REMARK    3  A    between atoms: C_5  and  C_6 
REMARK    4  A    between atoms: N_8  and  C_10 
REMARK    5  A    between atoms: C_10  and  C_11 
REMARK    6  A    between atoms: C_12  and  C_13 
ROOT
HETATM    1  C   UNL     1     -43.091  59.757 -51.179  1.00  0.00     0.029 C 
HETATM    2  C   UNL     1     -43.158  58.234 -51.347  1.00  0.00     0.241 C 
HETATM    3  N   UNL     1     -41.836  57.696 -51.861  1.00  0.00    -0.067 N 
HETATM    4  H   UNL     1     -41.643  58.145 -52.763  1.00  0.00     0.280 HD
HETATM    5  C   UNL     1     -40.689  58.040 -50.948  1.00  0.00     0.235 C 
HETATM    6  C   UNL     1     -40.591  59.552 -50.822  1.00  0.00     0.028 C 
HETATM    7  C   UNL     1     -41.891  60.156 -50.307  1.00  0.00     0.009 C 
ENDROOT
BRANCH   3   8
HETATM    8  C   UNL     1     -41.947  56.205 -52.148  1.00  0.00     0.277 C 
BRANCH   8   9
HETATM    9  C   UNL     1     -41.768  55.862 -53.584  1.00  0.00     0.016 A 
HETATM   10  C   UNL     1     -41.195  54.680 -54.165  1.00  0.00     0.096 A 
HETATM   11  N   UNL     1     -41.192  54.772 -55.502  1.00  0.00    -0.174 NA
HETATM   12  N   UNL     1     -41.688  55.977 -55.781  1.00  0.00    -0.288 N 
HETATM   13  H   UNL     1     -41.740  56.263 -56.756  1.00  0.00     0.188 HD
HETATM   14  C   UNL     1     -42.054  56.673 -54.669  1.00  0.00     0.120 A 
BRANCH  10  15
HETATM   15  C   UNL     1     -40.630  53.490 -53.522  1.00  0.00    -0.003 A 
HETATM   16  C   UNL     1     -40.333  52.330 -54.243  1.00  0.00     0.037 A 
HETATM   17  C   UNL     1     -39.809  51.211 -53.592  1.00  0.00     0.035 A 
HETATM   18 CL   UNL     1     -39.487  49.788 -54.506  1.00  0.00    -0.084 Cl
HETATM   19  C   UNL     1     -39.551  51.236 -52.224  1.00  0.00     0.024 A 
HETATM   20  C   UNL     1     -39.819  52.395 -51.499  1.00  0.00     0.003 A 
HETATM   21  C   UNL     1     -40.356  53.513 -52.144  1.00  0.00     0.014 A 
ENDBRANCH  10  15
ENDBRANCH   8   9
ENDBRANCH   3   8
BRANCH   1  22
HETATM   22  C   UNL     1     -44.376  60.324 -50.549  1.00  0.00     0.128 C 
BRANCH  22  23
HETATM   23  N   UNL     1     -44.244  60.673 -49.149  1.00  0.00    -0.360 N 
HETATM   24  C   UNL     1     -45.321  61.120 -48.410  1.00  0.00     0.221 C 
HETATM   25  O   UNL     1     -46.362  61.480 -48.953  1.00  0.00    -0.273 OA
HETATM   26  H   UNL     1     -43.435  60.321 -48.646  1.00  0.00     0.162 HD
BRANCH  24  27
HETATM   27  C   UNL     1     -45.079  61.181 -46.904  1.00  0.00     0.070 C 
HETATM   28  C   UNL     1     -45.971  60.183 -46.167  1.00  0.00     0.019 C 
HETATM   29  C   UNL     1     -45.323  62.593 -46.373  1.00  0.00     0.019 C 
ENDBRANCH  24  27
ENDBRANCH  22  23
ENDBRANCH   1  22
TORSDOF 6
ENDMDL
MODEL 4
REMARK VINA RESULT:      -8.2      3.124      4.731
REMARK  6 active torsions:
REMARK  status: ('A' for Active; 'I' for Inactive)
REMARK    1  A    between atoms: C_2  and  C_3 
REMARK       I    between atoms: C_3  and  N_4 
REMARK    2  A    between atoms: N_4  and  C_5 
REMARK    3  A    between atoms: C_5  and  C_6 
REMARK    4  A    between atoms: N_8  and  C_10 
REMARK    5  A    between atoms: C_10  and  C_11 
REMARK    6  A    between atoms: C_12  and  C_13 
ROOT
HETATM    1  C   UNL     1     -43.209  56.928 -54.359  1.00  0.00     0.029 C 
HETATM    2  C   UNL     1     -43.025  56.164 -53.043  1.00  0.00     0.241 C 
HETATM    3  N   UNL     1     -42.902  54.674 -53.304  1.00  0.00    -0.067 N 
HETATM    4  H   UNL     1     -43.759  54.366 -53.777  1.00  0.00     0.280 HD
HETATM    5  C   UNL     1     -41.754  54.351 -54.224  1.00  0.00     0.235 C 
HETATM    6  C   UNL     1     -41.962  55.069 -55.548  1.00  0.00     0.028 C 
HETATM    7  C   UNL     1     -42.093  56.574 -55.355  1.00  0.00     0.009 C 
ENDROOT
BRANCH   3   8
HETATM    8  C   UNL     1     -42.849  53.909 -51.990  1.00  0.00     0.277 C 
BRANCH   8   9
HETATM    9  C   UNL     1     -41.648  54.221 -51.169  1.00  0.00     0.016 A 
HETATM   10  C   UNL     1     -40.502  53.400 -50.898  1.00  0.00     0.096 A 
HETATM   11  N   UNL     1     -39.649  54.041 -50.087  1.00  0.00    -0.174 NA
HETATM   12  N   UNL     1     -40.234  55.204 -49.797  1.00  0.00    -0.288 N 
HETATM   13  H   UNL     1     -39.759  55.836 -49.157  1.00  0.00     0.188 HD
HETATM   14  C   UNL     1     -41.433  55.367 -50.423  1.00  0.00     0.120 A 
BRANCH  10  15
HETATM   15  C   UNL     1     -40.188  52.039 -51.343  1.00  0.00    -0.003 A 
HETATM   16  C   UNL     1     -39.947  51.736 -52.687  1.00  0.00     0.037 A 
HETATM   17  C   UNL     1     -39.666  50.425 -53.074  1.00  0.00     0.035 A 
HETATM   18 CL   UNL     1     -39.409  50.083 -54.742  1.00  0.00    -0.084 Cl
HETATM   19  C   UNL     1     -39.597  49.401 -52.133  1.00  0.00     0.024 A 
HETATM   20  C   UNL     1     -39.810  49.694 -50.788  1.00  0.00     0.003 A 
HETATM   21  C   UNL     1     -40.104  51.004 -50.397  1.00  0.00     0.014 A 
ENDBRANCH  10  15
ENDBRANCH   8   9
ENDBRANCH   3   8
BRANCH   1  22
HETATM   22  C   UNL     1     -43.220  58.452 -54.144  1.00  0.00     0.128 C 
BRANCH  22  23
HETATM   23  N   UNL     1     -42.773  58.867 -52.829  1.00  0.00    -0.360 N 
HETATM   24  C   UNL     1     -41.538  59.455 -52.637  1.00  0.00     0.221 C 
HETATM   25  O   UNL     1     -40.673  59.422 -53.508  1.00  0.00    -0.273 OA
HETATM   26  H   UNL     1     -43.474  58.986 -52.105  1.00  0.00     0.162 HD
BRANCH  24  27
HETATM   27  C   UNL     1     -41.337  60.075 -51.257  1.00  0.00     0.070 C 
HETATM   28  C   UNL     1     -40.561  59.129 -50.341  1.00  0.00     0.019 C 
HETATM   29  C   UNL     1     -42.681  60.432 -50.622  1.00  0.00     0.019 C 
ENDBRANCH  24  27
ENDBRANCH  22  23
ENDBRANCH   1  22
TORSDOF 6
ENDMDL
MODEL 5
REMARK VINA RESULT:      -8.0      1.983      2.876
REMARK  6 active torsions:
REMARK  status: ('A' for Active; 'I' for Inactive)
REMARK    1  A    between atoms: C_2  and  C_3 
REMARK       I    between atoms: C_3  and  N_4 
REMARK    2  A    between atoms: N_4  and  C_5 
REMARK    3  A    between atoms: C_5  and  C_6 
REMARK    4  A    between atoms: N_8  and  C_10 
REMARK    5  A    between atoms: C_10  and  C_11 
REMARK    6  A    between atoms: C_12  and  C_13 
ROOT
HETATM    1  C   UNL     1     -41.758  58.016 -54.345  1.00  0.00     0.029 C 
HETATM    2  C   UNL     1     -42.497  57.058 -53.404  1.00  0.00     0.241 C 
HETATM    3  N   UNL     1     -41.739  56.903 -52.098  1.00  0.00    -0.067 N 
HETATM    4  H   UNL     1     -40.806  56.537 -52.317  1.00  0.00     0.280 HD
HETATM    5  C   UNL     1     -41.539  58.222 -51.399  1.00  0.00     0.235 C 
HETATM    6  C   UNL     1     -40.762  59.156 -52.313  1.00  0.00     0.028 C 
HETATM    7  C   UNL     1     -41.471  59.354 -53.645  1.00  0.00     0.009 C 
ENDROOT
BRANCH   3   8
HETATM    8  C   UNL     1     -42.407  55.855 -51.219  1.00  0.00     0.277 C 
BRANCH   8   9
HETATM    9  C   UNL     1     -41.451  55.102 -50.364  1.00  0.00     0.016 A 
HETATM   10  C   UNL     1     -40.592  54.008 -50.718  1.00  0.00     0.096 A 
HETATM   11  N   UNL     1     -39.905  53.587 -49.647  1.00  0.00    -0.174 NA
HETATM   12  N   UNL     1     -40.333  54.335 -48.630  1.00  0.00    -0.288 N 
HETATM   13  H   UNL     1     -39.954  54.150 -47.704  1.00  0.00     0.188 HD
HETATM   14  C   UNL     1     -41.258  55.263 -49.003  1.00  0.00     0.120 A 
BRANCH  10  15
HETATM   15  C   UNL     1     -40.411  53.327 -52.004  1.00  0.00    -0.003 A 
HETATM   16  C   UNL     1     -40.088  51.969 -52.084  1.00  0.00     0.037 A 
HETATM   17  C   UNL     1     -39.910  51.359 -53.327  1.00  0.00     0.035 A 
HETATM   18 CL   UNL     1     -39.478  49.693 -53.386  1.00  0.00    -0.084 Cl
HETATM   19  C   UNL     1     -40.073  52.080 -54.506  1.00  0.00     0.024 A 
HETATM   20  C   UNL     1     -40.421  53.428 -54.441  1.00  0.00     0.003 A 
HETATM   21  C   UNL     1     -40.587  54.045 -53.198  1.00  0.00     0.014 A 
ENDBRANCH  10  15
ENDBRANCH   8   9
ENDBRANCH   3   8
BRANCH   1  22
HETATM   22  C   UNL     1     -42.556  58.288 -55.633  1.00  0.00     0.128 C 
BRANCH  22  23
HETATM   23  N   UNL     1     -42.370  57.288 -56.666  1.00  0.00    -0.360 N 
HETATM   24  C   UNL     1     -43.259  57.157 -57.714  1.00  0.00     0.221 C 
HETATM   25  O   UNL     1     -44.363  57.695 -57.685  1.00  0.00    -0.273 OA
HETATM   26  H   UNL     1     -41.446  56.882 -56.773  1.00  0.00     0.162 HD
BRANCH  24  27
HETATM   27  C   UNL     1     -42.778  56.255 -58.848  1.00  0.00     0.070 C 
HETATM   28  C   UNL     1     -42.237  57.084 -60.012  1.00  0.00     0.019 C 
HETATM   29  C   UNL     1     -43.907  55.347 -59.333  1.00  0.00     0.019 C 
ENDBRANCH  24  27
ENDBRANCH  22  23
ENDBRANCH   1  22
TORSDOF 6
ENDMDL
MODEL 6
REMARK VINA RESULT:      -7.7     15.092     18.673
REMARK  6 active torsions:
REMARK  status: ('A' for Active; 'I' for Inactive)
REMARK    1  A    between atoms: C_2  and  C_3 
REMARK       I    between atoms: C_3  and  N_4 
REMARK    2  A    between atoms: N_4  and  C_5 
REMARK    3  A    between atoms: C_5  and  C_6 
REMARK    4  A    between atoms: N_8  and  C_10 
REMARK    5  A    between atoms: C_10  and  C_11 
REMARK    6  A    between atoms: C_12  and  C_13 
ROOT
HETATM    1  C   UNL     1     -32.848  39.881 -50.039  1.00  0.00     0.029 C 
HETATM    2  C   UNL     1     -33.955  39.050 -50.699  1.00  0.00     0.241 C 
HETATM    3  N   UNL     1     -34.373  39.672 -52.019  1.00  0.00    -0.067 N 
HETATM    4  H   UNL     1     -34.708  40.622 -51.827  1.00  0.00     0.280 HD
HETATM    5  C   UNL     1     -33.218  39.800 -52.977  1.00  0.00     0.235 C 
HETATM    6  C   UNL     1     -32.142  40.666 -52.342  1.00  0.00     0.028 C 
HETATM    7  C   UNL     1     -31.676  40.095 -51.010  1.00  0.00     0.009 C 
ENDROOT
BRANCH   3   8
HETATM    8  C   UNL     1     -35.557  38.918 -52.607  1.00  0.00     0.277 C 
BRANCH   8   9
HETATM    9  C   UNL     1     -36.840  39.667 -52.520  1.00  0.00     0.016 A 
HETATM   10  C   UNL     1     -37.373  40.651 -53.421  1.00  0.00     0.096 A 
HETATM   11  N   UNL     1     -38.547  41.111 -52.968  1.00  0.00    -0.174 NA
HETATM   12  N   UNL     1     -38.747  40.498 -51.800  1.00  0.00    -0.288 N 
HETATM   13  H   UNL     1     -39.581  40.737 -51.268  1.00  0.00     0.188 HD
HETATM   14  C   UNL     1     -37.756  39.618 -51.485  1.00  0.00     0.120 A 
BRANCH  10  15
HETATM   15  C   UNL     1     -36.817  41.193 -54.664  1.00  0.00    -0.003 A 
HETATM   16  C   UNL     1     -37.430  40.981 -55.903  1.00  0.00     0.037 A 
HETATM   17  C   UNL     1     -36.862  41.502 -57.068  1.00  0.00     0.035 A 
HETATM   18 CL   UNL     1     -37.626  41.192 -58.580  1.00  0.00    -0.084 Cl
HETATM   19  C   UNL     1     -35.694  42.258 -57.017  1.00  0.00     0.024 A 
HETATM   20  C   UNL     1     -35.088  42.497 -55.786  1.00  0.00     0.003 A 
HETATM   21  C   UNL     1     -35.646  41.967 -54.619  1.00  0.00     0.014 A 
ENDBRANCH  10  15
ENDBRANCH   8   9
ENDBRANCH   3   8
BRANCH   1  22
HETATM   22  C   UNL     1     -32.318  39.218 -48.755  1.00  0.00     0.128 C 
BRANCH  22  23
HETATM   23  N   UNL     1     -31.369  40.028 -48.020  1.00  0.00    -0.360 N 
HETATM   24  C   UNL     1     -30.932  39.666 -46.760  1.00  0.00     0.221 C 
HETATM   25  O   UNL     1     -31.507  38.797 -46.110  1.00  0.00    -0.273 OA
HETATM   26  H   UNL     1     -30.814  40.701 -48.540  1.00  0.00     0.162 HD
BRANCH  24  27
HETATM   27  C   UNL     1     -29.741  40.470 -46.245  1.00  0.00     0.070 C 
HETATM   28  C   UNL     1     -28.425  39.764 -46.567  1.00  0.00     0.019 C 
HETATM   29  C   UNL     1     -29.855  40.701 -44.739  1.00  0.00     0.019 C 
ENDBRANCH  24  27
ENDBRANCH  22  23
ENDBRANCH   1  22
TORSDOF 6
ENDMDL
MODEL 7
REMARK VINA RESULT:      -7.5      3.706      9.372
REMARK  6 active torsions:
REMARK  status: ('A' for Active; 'I' for Inactive)
REMARK    1  A    between atoms: C_2  and  C_3 
REMARK       I    between atoms: C_3  and  N_4 
REMARK    2  A    between atoms: N_4  and  C_5 
REMARK    3  A    between atoms: C_5  and  C_6 
REMARK    4  A    between atoms: N_8  and  C_10 
REMARK    5  A    between atoms: C_10  and  C_11 
REMARK    6  A    between atoms: C_12  and  C_13 
ROOT
HETATM    1  C   UNL     1     -43.840  55.354 -54.231  1.00  0.00     0.029 C 
HETATM    2  C   UNL     1     -43.077  55.341 -55.561  1.00  0.00     0.241 C 
HETATM    3  N   UNL     1     -43.791  56.193 -56.593  1.00  0.00    -0.067 N 
HETATM    4  H   UNL     1     -44.734  55.808 -56.720  1.00  0.00     0.280 HD
HETATM    5  C   UNL     1     -43.958  57.618 -56.136  1.00  0.00     0.235 C 
HETATM    6  C   UNL     1     -44.758  57.634 -54.844  1.00  0.00     0.028 C 
HETATM    7  C   UNL     1     -44.092  56.795 -53.762  1.00  0.00     0.009 C 
ENDROOT
BRANCH   3   8
HETATM    8  C   UNL     1     -43.102  56.075 -57.945  1.00  0.00     0.277 C 
BRANCH   8   9
HETATM    9  C   UNL     1     -44.012  55.641 -59.039  1.00  0.00     0.016 A 
HETATM   10  C   UNL     1     -45.126  56.340 -59.617  1.00  0.00     0.096 A 
HETATM   11  N   UNL     1     -45.707  55.590 -60.563  1.00  0.00    -0.174 NA
HETATM   12  N   UNL     1     -45.040  54.436 -60.567  1.00  0.00    -0.288 N 
HETATM   13  H   UNL     1     -45.350  53.703 -61.202  1.00  0.00     0.188 HD
HETATM   14  C   UNL     1     -44.011  54.413 -59.676  1.00  0.00     0.120 A 
BRANCH  10  15
HETATM   15  C   UNL     1     -45.679  57.661 -59.301  1.00  0.00    -0.003 A 
HETATM   16  C   UNL     1     -45.121  58.838 -59.809  1.00  0.00     0.037 A 
HETATM   17  C   UNL     1     -45.668  60.078 -59.473  1.00  0.00     0.035 A 
HETATM   18 CL   UNL     1     -44.933  61.509 -60.089  1.00  0.00    -0.084 Cl
HETATM   19  C   UNL     1     -46.788  60.166 -58.652  1.00  0.00     0.024 A 
HETATM   20  C   UNL     1     -47.369  58.999 -58.161  1.00  0.00     0.003 A 
HETATM   21  C   UNL     1     -46.817  57.756 -58.483  1.00  0.00     0.014 A 
ENDBRANCH  10  15
ENDBRANCH   8   9
ENDBRANCH   3   8
BRANCH   1  22
HETATM   22  C   UNL     1     -43.083  54.594 -53.125  1.00  0.00     0.128 C 
BRANCH  22  23
HETATM   23  N   UNL     1     -42.012  53.751 -53.615  1.00  0.00    -0.360 N 
HETATM   24  C   UNL     1     -40.874  53.519 -52.866  1.00  0.00     0.221 C 
HETATM   25  O   UNL     1     -40.606  54.206 -51.884  1.00  0.00    -0.273 OA
HETATM   26  H   UNL     1     -42.221  53.109 -54.373  1.00  0.00     0.162 HD
BRANCH  24  27
HETATM   27  C   UNL     1     -39.979  52.403 -53.399  1.00  0.00     0.070 C 
HETATM   28  C   UNL     1     -40.744  51.506 -54.371  1.00  0.00     0.019 C 
HETATM   29  C   UNL     1     -39.414  51.568 -52.250  1.00  0.00     0.019 C 
ENDBRANCH  24  27
ENDBRANCH  22  23
ENDBRANCH   1  22
TORSDOF 6
ENDMDL
MODEL 8
REMARK VINA RESULT:      -7.5     14.821     17.742
REMARK  6 active torsions:
REMARK  status: ('A' for Active; 'I' for Inactive)
REMARK    1  A    between atoms: C_2  and  C_3 
REMARK       I    between atoms: C_3  and  N_4 
REMARK    2  A    between atoms: N_4  and  C_5 
REMARK    3  A    between atoms: C_5  and  C_6 
REMARK    4  A    between atoms: N_8  and  C_10 
REMARK    5  A    between atoms: C_10  and  C_11 
REMARK    6  A    between atoms: C_12  and  C_13 
ROOT
HETATM    1  C   UNL     1     -33.736  38.725 -55.369  1.00  0.00     0.029 C 
HETATM    2  C   UNL     1     -34.933  38.321 -56.239  1.00  0.00     0.241 C 
HETATM    3  N   UNL     1     -34.634  38.570 -57.706  1.00  0.00    -0.067 N 
HETATM    4  H   UNL     1     -34.432  39.570 -57.820  1.00  0.00     0.280 HD
HETATM    5  C   UNL     1     -33.413  37.821 -58.171  1.00  0.00     0.235 C 
HETATM    6  C   UNL     1     -32.216  38.259 -57.342  1.00  0.00     0.028 C 
HETATM    7  C   UNL     1     -32.452  38.034 -55.855  1.00  0.00     0.009 C 
ENDROOT
BRANCH   3   8
HETATM    8  C   UNL     1     -35.867  38.290 -58.552  1.00  0.00     0.277 C 
BRANCH   8   9
HETATM    9  C   UNL     1     -36.411  39.498 -59.227  1.00  0.00     0.016 A 
HETATM   10  C   UNL     1     -36.682  40.796 -58.675  1.00  0.00     0.096 A 
HETATM   11  N   UNL     1     -37.197  41.604 -59.612  1.00  0.00    -0.174 NA
HETATM   12  N   UNL     1     -37.307  40.856 -60.710  1.00  0.00    -0.288 N 
HETATM   13  H   UNL     1     -37.715  41.279 -61.541  1.00  0.00     0.188 HD
HETATM   14  C   UNL     1     -36.847  39.586 -60.538  1.00  0.00     0.120 A 
BRANCH  10  15
HETATM   15  C   UNL     1     -36.506  41.296 -57.308  1.00  0.00    -0.003 A 
HETATM   16  C   UNL     1     -37.432  41.025 -56.296  1.00  0.00     0.037 A 
HETATM   17  C   UNL     1     -37.237  41.532 -55.009  1.00  0.00     0.035 A 
HETATM   18 CL   UNL     1     -38.416  41.207 -53.796  1.00  0.00    -0.084 Cl
HETATM   19  C   UNL     1     -36.111  42.291 -54.703  1.00  0.00     0.024 A 
HETATM   20  C   UNL     1     -35.168  42.545 -55.697  1.00  0.00     0.003 A 
HETATM   21  C   UNL     1     -35.366  42.052 -56.990  1.00  0.00     0.014 A 
ENDBRANCH  10  15
ENDBRANCH   8   9
ENDBRANCH   3   8
BRANCH   1  22
HETATM   22  C   UNL     1     -33.959  38.378 -53.886  1.00  0.00     0.128 C 
BRANCH  22  23
HETATM   23  N   UNL     1     -34.429  39.489 -53.083  1.00  0.00    -0.360 N 
HETATM   24  C   UNL     1     -35.632  39.435 -52.408  1.00  0.00     0.221 C 
HETATM   25  O   UNL     1     -36.464  38.566 -52.655  1.00  0.00    -0.273 OA
HETATM   26  H   UNL     1     -33.750  40.184 -52.789  1.00  0.00     0.162 HD
BRANCH  24  27
HETATM   27  C   UNL     1     -35.848  40.561 -51.400  1.00  0.00     0.070 C 
HETATM   28  C   UNL     1     -34.543  41.308 -51.129  1.00  0.00     0.019 C 
HETATM   29  C   UNL     1     -36.420  40.015 -50.092  1.00  0.00     0.019 C 
ENDBRANCH  24  27
ENDBRANCH  22  23
ENDBRANCH   1  22
TORSDOF 6
ENDMDL
MODEL 9
REMARK VINA RESULT:      -7.4      3.740      7.128
REMARK  6 active torsions:
REMARK  status: ('A' for Active; 'I' for Inactive)
REMARK    1  A    between atoms: C_2  and  C_3 
REMARK       I    between atoms: C_3  and  N_4 
REMARK    2  A    between atoms: N_4  and  C_5 
REMARK    3  A    between atoms: C_5  and  C_6 
REMARK    4  A    between atoms: N_8  and  C_10 
REMARK    5  A    between atoms: C_10  and  C_11 
REMARK    6  A    between atoms: C_12  and  C_13 
ROOT
HETATM    1  C   UNL     1     -41.064  54.583 -55.060  1.00  0.00     0.029 C 
HETATM    2  C   UNL     1     -41.201  56.084 -54.780  1.00  0.00     0.241 C 
HETATM    3  N   UNL     1     -42.358  56.671 -55.568  1.00  0.00    -0.067 N 
HETATM    4  H   UNL     1     -42.172  56.511 -56.564  1.00  0.00     0.280 HD
HETATM    5  C   UNL     1     -43.663  55.991 -55.251  1.00  0.00     0.235 C 
HETATM    6  C   UNL     1     -43.544  54.511 -55.577  1.00  0.00     0.028 C 
HETATM    7  C   UNL     1     -42.398  53.860 -54.815  1.00  0.00     0.009 C 
ENDROOT
BRANCH   3   8
HETATM    8  C   UNL     1     -42.410  58.181 -55.387  1.00  0.00     0.277 C 
BRANCH   8   9
HETATM    9  C   UNL     1     -43.543  58.638 -54.539  1.00  0.00     0.016 A 
HETATM   10  C   UNL     1     -43.726  58.493 -53.122  1.00  0.00     0.096 A 
HETATM   11  N   UNL     1     -44.900  59.018 -52.746  1.00  0.00    -0.174 NA
HETATM   12  N   UNL     1     -45.483  59.437 -53.870  1.00  0.00    -0.288 N 
HETATM   13  H   UNL     1     -46.413  59.843 -53.807  1.00  0.00     0.188 HD
HETATM   14  C   UNL     1     -44.711  59.238 -54.975  1.00  0.00     0.120 A 
BRANCH  10  15
HETATM   15  C   UNL     1     -42.863  57.863 -52.118  1.00  0.00    -0.003 A 
HETATM   16  C   UNL     1     -43.097  56.566 -51.650  1.00  0.00     0.037 A 
HETATM   17  C   UNL     1     -42.261  56.005 -50.682  1.00  0.00     0.035 A 
HETATM   18 CL   UNL     1     -42.600  54.418 -50.105  1.00  0.00    -0.084 Cl
HETATM   19  C   UNL     1     -41.170  56.712 -50.184  1.00  0.00     0.024 A 
HETATM   20  C   UNL     1     -40.912  57.995 -50.661  1.00  0.00     0.003 A 
HETATM   21  C   UNL     1     -41.753  58.565 -51.620  1.00  0.00     0.014 A 
ENDBRANCH  10  15
ENDBRANCH   8   9
ENDBRANCH   3   8
BRANCH   1  22
HETATM   22  C   UNL     1     -39.975  53.931 -54.189  1.00  0.00     0.128 C 
BRANCH  22  23
HETATM   23  N   UNL     1     -39.967  52.483 -54.238  1.00  0.00    -0.360 N 
HETATM   24  C   UNL     1     -39.885  51.721 -53.090  1.00  0.00     0.221 C 
HETATM   25  O   UNL     1     -39.563  52.219 -52.015  1.00  0.00    -0.273 OA
HETATM   26  H   UNL     1     -40.306  52.035 -55.084  1.00  0.00     0.162 HD
BRANCH  24  27
HETATM   27  C   UNL     1     -40.163  50.233 -53.292  1.00  0.00     0.070 C 
HETATM   28  C   UNL     1     -39.571  49.408 -52.151  1.00  0.00     0.019 C 
HETATM   29  C   UNL     1     -39.600  49.755 -54.630  1.00  0.00     0.019 C 
ENDBRANCH  24  27
ENDBRANCH  22  23
ENDBRANCH   1  22
TORSDOF 6
ENDMDL
MODEL 10
REMARK VINA RESULT:      -7.2      4.365      7.971
REMARK  6 active torsions:
REMARK  status: ('A' for Active; 'I' for Inactive)
REMARK    1  A    between atoms: C_2  and  C_3 
REMARK       I    between atoms: C_3  and  N_4 
REMARK    2  A    between atoms: N_4  and  C_5 
REMARK    3  A    between atoms: C_5  and  C_6 
REMARK    4  A    between atoms: N_8  and  C_10 
REMARK    5  A    between atoms: C_10  and  C_11 
REMARK    6  A    between atoms: C_12  and  C_13 
ROOT
HETATM    1  C   UNL     1     -41.629  54.764 -54.463  1.00  0.00     0.029 C 
HETATM    2  C   UNL     1     -41.842  56.177 -53.909  1.00  0.00     0.241 C 
HETATM    3  N   UNL     1     -41.878  57.193 -55.036  1.00  0.00    -0.067 N 
HETATM    4  H   UNL     1     -40.984  57.137 -55.536  1.00  0.00     0.280 HD
HETATM    5  C   UNL     1     -42.960  56.890 -56.039  1.00  0.00     0.235 C 
HETATM    6  C   UNL     1     -42.720  55.508 -56.626  1.00  0.00     0.028 C 
HETATM    7  C   UNL     1     -42.674  54.439 -55.542  1.00  0.00     0.009 C 
ENDROOT
BRANCH   3   8
HETATM    8  C   UNL     1     -41.960  58.604 -54.474  1.00  0.00     0.277 C 
BRANCH   8   9
HETATM    9  C   UNL     1     -41.274  58.763 -53.164  1.00  0.00     0.016 A 
HETATM   10  C   UNL     1     -41.848  58.970 -51.864  1.00  0.00     0.096 A 
HETATM   11  N   UNL     1     -40.884  59.093 -50.942  1.00  0.00    -0.174 NA
HETATM   12  N   UNL     1     -39.734  59.023 -51.613  1.00  0.00    -0.288 N 
HETATM   13  H   UNL     1     -38.866  59.130 -51.093  1.00  0.00     0.188 HD
HETATM   14  C   UNL     1     -39.908  58.821 -52.949  1.00  0.00     0.120 A 
BRANCH  10  15
HETATM   15  C   UNL     1     -43.253  59.085 -51.459  1.00  0.00    -0.003 A 
HETATM   16  C   UNL     1     -43.810  60.303 -51.058  1.00  0.00     0.037 A 
HETATM   17  C   UNL     1     -45.148  60.370 -50.666  1.00  0.00     0.035 A 
HETATM   18 CL   UNL     1     -45.792  61.880 -50.145  1.00  0.00    -0.084 Cl
HETATM   19  C   UNL     1     -45.957  59.237 -50.688  1.00  0.00     0.024 A 
HETATM   20  C   UNL     1     -45.420  58.022 -51.111  1.00  0.00     0.003 A 
HETATM   21  C   UNL     1     -44.077  57.948 -51.492  1.00  0.00     0.014 A 
ENDBRANCH  10  15
ENDBRANCH   8   9
ENDBRANCH   3   8
BRANCH   1  22
HETATM   22  C   UNL     1     -41.705  53.694 -53.358  1.00  0.00     0.128 C 
BRANCH  22  23
HETATM   23  N   UNL     1     -40.896  52.520 -53.616  1.00  0.00    -0.360 N 
HETATM   24  C   UNL     1     -39.963  52.070 -52.702  1.00  0.00     0.221 C 
HETATM   25  O   UNL     1     -39.600  52.773 -51.762  1.00  0.00    -0.273 OA
HETATM   26  H   UNL     1     -41.212  51.872 -54.330  1.00  0.00     0.162 HD
BRANCH  24  27
HETATM   27  C   UNL     1     -39.399  50.683 -52.999  1.00  0.00     0.070 C 
HETATM   28  C   UNL     1     -40.040  50.090 -54.252  1.00  0.00     0.019 C 
HETATM   29  C   UNL     1     -39.609  49.747 -51.810  1.00  0.00     0.019 C 
ENDBRANCH  24  27
ENDBRANCH  22  23
ENDBRANCH   1  22
TORSDOF 6
ENDMDL
