MODEL 1
REMARK VINA RESULT:      -8.8      0.000      0.000
REMARK  9 active torsions:
REMARK  status: ('A' for Active; 'I' for Inactive)
REMARK    1  A    between atoms: C_2  and  O_3 
REMARK    2  A    between atoms: O_3  and  C_4 
REMARK    3  A    between atoms: C_7  and  N_8 
REMARK       I    between atoms: N_8  and  C_9 
REMARK    4  A    between atoms: C_9  and  C_10 
REMARK    5  A    between atoms: C_10  and  S_11 
REMARK    6  A    between atoms: S_11  and  C_12 
REMARK    7  A    between atoms: C_16  and  C_17 
REMARK       I    between atoms: C_17  and  N_18 
REMARK    8  A    between atoms: N_18  and  C_19 
REMARK    9  A    between atoms: C_27  and  C_28 
ROOT
HETATM    1  C   UNL     1     -43.467  59.772 -51.797  1.00  0.00     0.087 C 
HETATM    2  N   UNL     1     -42.754  58.932 -50.961  1.00  0.00    -0.353 N 
HETATM    3  C   UNL     1     -42.190  57.728 -51.337  1.00  0.00     0.019 C 
HETATM    4  C   UNL     1     -41.282  57.083 -50.317  1.00  0.00     0.069 C 
HETATM    5  C   UNL     1     -42.474  57.211 -52.553  1.00  0.00     0.046 C 
HETATM    6  C   UNL     1     -43.512  57.880 -53.452  1.00  0.00     0.104 C 
HETATM    7  C   UNL     1     -43.896  59.303 -52.991  1.00  0.00     0.055 C 
HETATM    8  C   UNL     1     -44.901  60.055 -53.849  1.00  0.00     0.019 C 
HETATM    9  N   UNL     1     -45.734  60.679 -54.559  1.00  0.00    -0.096 N 
HETATM   10  H   UNL     1     -42.370  59.378 -50.122  1.00  0.00     0.166 HD
ENDROOT
BRANCH   1  11
HETATM   11  S   UNL     1     -43.828  61.400 -51.257  1.00  0.00    -0.102 SA
BRANCH  11  12
HETATM   12  C   UNL     1     -45.614  61.269 -50.881  1.00  0.00     0.184 C 
BRANCH  12  13
HETATM   13  C   UNL     1     -45.974  61.881 -49.529  1.00  0.00     0.231 C 
HETATM   14  N   UNL     1     -44.919  61.843 -48.625  1.00  0.00    -0.327 N 
HETATM   15  H   UNL     1     -44.062  61.404 -48.937  1.00  0.00     0.169 HD
HETATM   16  O   UNL     1     -47.116  62.271 -49.292  1.00  0.00    -0.272 OA
BRANCH  14  17
HETATM   17  C   UNL     1     -44.965  62.148 -47.248  1.00  0.00     0.034 A 
HETATM   18  C   UNL     1     -44.827  61.207 -46.229  1.00  0.00     0.032 A 
HETATM   19  C   UNL     1     -44.770  61.618 -44.889  1.00  0.00     0.039 A 
HETATM   20  C   UNL     1     -44.831  62.970 -44.559  1.00  0.00     0.068 A 
HETATM   21  C   UNL     1     -45.046  63.908 -45.565  1.00  0.00     0.039 A 
HETATM   22  C   UNL     1     -45.124  63.496 -46.901  1.00  0.00     0.032 A 
BRANCH  20  23
HETATM   23  O   UNL     1     -44.697  63.271 -43.231  1.00  0.00    -0.352 OA
BRANCH  23  24
HETATM   24  C   UNL     1     -43.468  62.836 -42.641  1.00  0.00     0.171 C 
HETATM   25  C   UNL     1     -42.566  64.047 -42.473  1.00  0.00     0.034 C 
ENDBRANCH  23  24
ENDBRANCH  20  23
ENDBRANCH  14  17
ENDBRANCH  12  13
ENDBRANCH  11  12
ENDBRANCH   1  11
BRANCH   6  26
HETATM   26  C   UNL     1     -43.162  57.840 -54.937  1.00  0.00    -0.042 A 
HETATM   27  C   UNL     1     -43.665  56.811 -55.746  1.00  0.00     0.027 A 
HETATM   28  C   UNL     1     -43.329  56.791 -57.090  1.00  0.00     0.116 A 
HETATM   29  N   UNL     1     -42.535  57.710 -57.675  1.00  0.00    -0.273 NA
HETATM   30  C   UNL     1     -42.064  58.698 -56.887  1.00  0.00     0.116 A 
HETATM   31  C   UNL     1     -42.354  58.813 -55.536  1.00  0.00     0.027 A 
ENDBRANCH   6  26
BRANCH   5  32
HETATM   32  C   UNL     1     -41.606  56.103 -53.043  1.00  0.00     0.255 C 
HETATM   33  N   UNL     1     -42.042  54.833 -52.744  1.00  0.00    -0.323 N 
HETATM   34  H   UNL     1     -42.957  54.727 -52.331  1.00  0.00     0.169 HD
HETATM   35  O   UNL     1     -40.615  56.385 -53.711  1.00  0.00    -0.268 OA
BRANCH  33  36
HETATM   36  C   UNL     1     -41.353  53.639 -53.064  1.00  0.00     0.035 A 
HETATM   37  C   UNL     1     -41.496  52.969 -54.287  1.00  0.00     0.031 A 
HETATM   38  C   UNL     1     -40.788  51.792 -54.546  1.00  0.00     0.026 A 
HETATM   39  C   UNL     1     -39.933  51.273 -53.581  1.00  0.00     0.034 A 
HETATM   40 CL   UNL     1     -39.071  49.820 -53.894  1.00  0.00    -0.084 Cl
HETATM   41  C   UNL     1     -39.772  51.932 -52.364  1.00  0.00     0.026 A 
HETATM   42  C   UNL     1     -40.472  53.117 -52.111  1.00  0.00     0.031 A 
ENDBRANCH  33  36
ENDBRANCH   5  32
TORSDOF 9
ENDMDL
MODEL 2
REMARK VINA RESULT:      -8.5      2.798      4.756
REMARK  9 active torsions:
REMARK  status: ('A' for Active; 'I' for Inactive)
REMARK    1  A    between atoms: C_2  and  O_3 
REMARK    2  A    between atoms: O_3  and  C_4 
REMARK    3  A    between atoms: C_7  and  N_8 
REMARK       I    between atoms: N_8  and  C_9 
REMARK    4  A    between atoms: C_9  and  C_10 
REMARK    5  A    between atoms: C_10  and  S_11 
REMARK    6  A    between atoms: S_11  and  C_12 
REMARK    7  A    between atoms: C_16  and  C_17 
REMARK       I    between atoms: C_17  and  N_18 
REMARK    8  A    between atoms: N_18  and  C_19 
REMARK    9  A    between atoms: C_27  and  C_28 
ROOT
HETATM    1  C   UNL     1     -43.024  60.226 -52.098  1.00  0.00     0.087 C 
HETATM    2  N   UNL     1     -42.264  59.440 -51.251  1.00  0.00    -0.353 N 
HETATM    3  C   UNL     1     -41.775  58.184 -51.558  1.00  0.00     0.019 C 
HETATM    4  C   UNL     1     -40.798  57.601 -50.565  1.00  0.00     0.069 C 
HETATM    5  C   UNL     1     -42.187  57.568 -52.688  1.00  0.00     0.046 C 
HETATM    6  C   UNL     1     -43.281  58.191 -53.552  1.00  0.00     0.104 C 
HETATM    7  C   UNL     1     -43.575  59.665 -53.199  1.00  0.00     0.055 C 
HETATM    8  C   UNL     1     -44.630  60.375 -54.033  1.00  0.00     0.019 C 
HETATM    9  N   UNL     1     -45.505  60.962 -54.723  1.00  0.00    -0.096 N 
HETATM   10  H   UNL     1     -41.790  59.946 -50.497  1.00  0.00     0.166 HD
ENDROOT
BRANCH   1  11
HETATM   11  S   UNL     1     -43.282  61.910 -51.687  1.00  0.00    -0.102 SA
BRANCH  11  12
HETATM   12  C   UNL     1     -44.085  61.765 -50.050  1.00  0.00     0.184 C 
BRANCH  12  13
HETATM   13  C   UNL     1     -45.604  61.665 -50.150  1.00  0.00     0.231 C 
HETATM   14  N   UNL     1     -46.118  62.361 -51.238  1.00  0.00    -0.327 N 
HETATM   15  H   UNL     1     -45.456  62.866 -51.814  1.00  0.00     0.169 HD
HETATM   16  O   UNL     1     -46.262  61.090 -49.284  1.00  0.00    -0.272 OA
BRANCH  14  17
HETATM   17  C   UNL     1     -47.476  62.628 -51.516  1.00  0.00     0.034 A 
HETATM   18  C   UNL     1     -48.248  63.565 -50.831  1.00  0.00     0.032 A 
HETATM   19  C   UNL     1     -49.556  63.846 -51.252  1.00  0.00     0.039 A 
HETATM   20  C   UNL     1     -50.094  63.209 -52.368  1.00  0.00     0.068 A 
HETATM   21  C   UNL     1     -49.355  62.219 -53.009  1.00  0.00     0.039 A 
HETATM   22  C   UNL     1     -48.057  61.923 -52.577  1.00  0.00     0.032 A 
BRANCH  20  23
HETATM   23  O   UNL     1     -51.351  63.605 -52.738  1.00  0.00    -0.352 OA
BRANCH  23  24
HETATM   24  C   UNL     1     -52.377  62.638 -52.492  1.00  0.00     0.171 C 
HETATM   25  C   UNL     1     -53.081  63.009 -51.198  1.00  0.00     0.034 C 
ENDBRANCH  23  24
ENDBRANCH  20  23
ENDBRANCH  14  17
ENDBRANCH  12  13
ENDBRANCH  11  12
ENDBRANCH   1  11
BRANCH   6  26
HETATM   26  C   UNL     1     -43.070  58.000 -55.052  1.00  0.00    -0.042 A 
HETATM   27  C   UNL     1     -43.684  56.925 -55.712  1.00  0.00     0.027 A 
HETATM   28  C   UNL     1     -43.474  56.765 -57.072  1.00  0.00     0.116 A 
HETATM   29  N   UNL     1     -42.703  57.590 -57.809  1.00  0.00    -0.273 NA
HETATM   30  C   UNL     1     -42.125  58.624 -57.164  1.00  0.00     0.116 A 
HETATM   31  C   UNL     1     -42.285  58.875 -55.809  1.00  0.00     0.027 A 
ENDBRANCH   6  26
BRANCH   5  32
HETATM   32  C   UNL     1     -41.403  56.385 -53.145  1.00  0.00     0.255 C 
HETATM   33  N   UNL     1     -41.876  55.164 -52.725  1.00  0.00    -0.323 N 
HETATM   34  H   UNL     1     -42.767  55.134 -52.251  1.00  0.00     0.169 HD
HETATM   35  O   UNL     1     -40.445  56.567 -53.890  1.00  0.00    -0.268 OA
BRANCH  33  36
HETATM   36  C   UNL     1     -41.265  53.916 -52.995  1.00  0.00     0.035 A 
HETATM   37  C   UNL     1     -40.380  53.284 -52.111  1.00  0.00     0.031 A 
HETATM   38  C   UNL     1     -39.806  52.050 -52.432  1.00  0.00     0.026 A 
HETATM   39  C   UNL     1     -40.112  51.441 -53.645  1.00  0.00     0.034 A 
HETATM   40 CL   UNL     1     -39.398  49.930 -54.046  1.00  0.00    -0.084 Cl
HETATM   41  C   UNL     1     -40.996  52.052 -54.530  1.00  0.00     0.026 A 
HETATM   42  C   UNL     1     -41.579  53.281 -54.201  1.00  0.00     0.031 A 
ENDBRANCH  33  36
ENDBRANCH   5  32
TORSDOF 9
ENDMDL
MODEL 3
REMARK VINA RESULT:      -8.4      5.453      9.399
REMARK  9 active torsions:
REMARK  status: ('A' for Active; 'I' for Inactive)
REMARK    1  A    between atoms: C_2  and  O_3 
REMARK    2  A    between atoms: O_3  and  C_4 
REMARK    3  A    between atoms: C_7  and  N_8 
REMARK       I    between atoms: N_8  and  C_9 
REMARK    4  A    between atoms: C_9  and  C_10 
REMARK    5  A    between atoms: C_10  and  S_11 
REMARK    6  A    between atoms: S_11  and  C_12 
REMARK    7  A    between atoms: C_16  and  C_17 
REMARK       I    between atoms: C_17  and  N_18 
REMARK    8  A    between atoms: N_18  and  C_19 
REMARK    9  A    between atoms: C_27  and  C_28 
ROOT
HETATM    1  C   UNL     1     -43.861  58.179 -53.625  1.00  0.00     0.087 C 
HETATM    2  N   UNL     1     -43.472  59.505 -53.568  1.00  0.00    -0.353 N 
HETATM    3  C   UNL     1     -43.064  60.261 -54.651  1.00  0.00     0.019 C 
HETATM    4  C   UNL     1     -42.887  61.737 -54.390  1.00  0.00     0.069 C 
HETATM    5  C   UNL     1     -42.850  59.657 -55.841  1.00  0.00     0.046 C 
HETATM    6  C   UNL     1     -42.928  58.136 -55.959  1.00  0.00     0.104 C 
HETATM    7  C   UNL     1     -43.585  57.460 -54.737  1.00  0.00     0.055 C 
HETATM    8  C   UNL     1     -43.733  55.947 -54.786  1.00  0.00     0.019 C 
HETATM    9  N   UNL     1     -43.855  54.694 -54.826  1.00  0.00    -0.096 N 
HETATM   10  H   UNL     1     -43.802  60.020 -52.746  1.00  0.00     0.166 HD
ENDROOT
BRANCH   1  11
HETATM   11  S   UNL     1     -44.658  57.469 -52.235  1.00  0.00    -0.102 SA
BRANCH  11  12
HETATM   12  C   UNL     1     -43.332  57.551 -50.977  1.00  0.00     0.184 C 
BRANCH  12  13
HETATM   13  C   UNL     1     -42.104  56.732 -51.367  1.00  0.00     0.231 C 
HETATM   14  N   UNL     1     -42.392  55.384 -51.548  1.00  0.00    -0.327 N 
HETATM   15  H   UNL     1     -43.347  55.093 -51.381  1.00  0.00     0.169 HD
HETATM   16  O   UNL     1     -40.987  57.245 -51.416  1.00  0.00    -0.272 OA
BRANCH  14  17
HETATM   17  C   UNL     1     -41.470  54.332 -51.726  1.00  0.00     0.034 A 
HETATM   18  C   UNL     1     -41.032  53.489 -50.706  1.00  0.00     0.032 A 
HETATM   19  C   UNL     1     -40.203  52.396 -50.998  1.00  0.00     0.039 A 
HETATM   20  C   UNL     1     -39.822  52.127 -52.311  1.00  0.00     0.068 A 
HETATM   21  C   UNL     1     -40.192  53.007 -53.322  1.00  0.00     0.039 A 
HETATM   22  C   UNL     1     -41.003  54.110 -53.028  1.00  0.00     0.032 A 
BRANCH  20  23
HETATM   23  O   UNL     1     -39.070  50.998 -52.498  1.00  0.00    -0.352 OA
BRANCH  23  24
HETATM   24  C   UNL     1     -39.803  49.864 -52.972  1.00  0.00     0.171 C 
HETATM   25  C   UNL     1     -39.669  49.807 -54.484  1.00  0.00     0.034 C 
ENDBRANCH  23  24
ENDBRANCH  20  23
ENDBRANCH  14  17
ENDBRANCH  12  13
ENDBRANCH  11  12
ENDBRANCH   1  11
BRANCH   6  26
HETATM   26  C   UNL     1     -43.537  57.648 -57.272  1.00  0.00    -0.042 A 
HETATM   27  C   UNL     1     -44.873  57.947 -57.576  1.00  0.00     0.027 A 
HETATM   28  C   UNL     1     -45.407  57.489 -58.769  1.00  0.00     0.116 A 
HETATM   29  N   UNL     1     -44.713  56.760 -59.667  1.00  0.00    -0.273 NA
HETATM   30  C   UNL     1     -43.427  56.486 -59.364  1.00  0.00     0.116 A 
HETATM   31  C   UNL     1     -42.799  56.911 -58.204  1.00  0.00     0.027 A 
ENDBRANCH   6  26
BRANCH   5  32
HETATM   32  C   UNL     1     -42.736  60.534 -57.041  1.00  0.00     0.255 C 
HETATM   33  N   UNL     1     -41.561  60.421 -57.747  1.00  0.00    -0.323 N 
HETATM   34  H   UNL     1     -40.919  59.686 -57.491  1.00  0.00     0.169 HD
HETATM   35  O   UNL     1     -43.693  61.241 -57.344  1.00  0.00    -0.268 OA
BRANCH  33  36
HETATM   36  C   UNL     1     -41.217  61.190 -58.885  1.00  0.00     0.035 A 
HETATM   37  C   UNL     1     -41.677  60.905 -60.177  1.00  0.00     0.031 A 
HETATM   38  C   UNL     1     -41.303  61.702 -61.263  1.00  0.00     0.026 A 
HETATM   39  C   UNL     1     -40.460  62.790 -61.063  1.00  0.00     0.034 A 
HETATM   40 CL   UNL     1     -39.990  63.763 -62.399  1.00  0.00    -0.084 Cl
HETATM   41  C   UNL     1     -40.001  63.092 -59.783  1.00  0.00     0.026 A 
HETATM   42  C   UNL     1     -40.388  62.301 -58.696  1.00  0.00     0.031 A 
ENDBRANCH  33  36
ENDBRANCH   5  32
TORSDOF 9
ENDMDL
MODEL 4
REMARK VINA RESULT:      -8.3      5.275      9.069
REMARK  9 active torsions:
REMARK  status: ('A' for Active; 'I' for Inactive)
REMARK    1  A    between atoms: C_2  and  O_3 
REMARK    2  A    between atoms: O_3  and  C_4 
REMARK    3  A    between atoms: C_7  and  N_8 
REMARK       I    between atoms: N_8  and  C_9 
REMARK    4  A    between atoms: C_9  and  C_10 
REMARK    5  A    between atoms: C_10  and  S_11 
REMARK    6  A    between atoms: S_11  and  C_12 
REMARK    7  A    between atoms: C_16  and  C_17 
REMARK       I    between atoms: C_17  and  N_18 
REMARK    8  A    between atoms: N_18  and  C_19 
REMARK    9  A    between atoms: C_27  and  C_28 
ROOT
HETATM    1  C   UNL     1     -44.045  58.266 -55.804  1.00  0.00     0.087 C 
HETATM    2  N   UNL     1     -43.838  57.039 -56.408  1.00  0.00    -0.353 N 
HETATM    3  C   UNL     1     -42.837  56.147 -56.071  1.00  0.00     0.019 C 
HETATM    4  C   UNL     1     -42.928  54.786 -56.718  1.00  0.00     0.069 C 
HETATM    5  C   UNL     1     -41.865  56.530 -55.213  1.00  0.00     0.046 C 
HETATM    6  C   UNL     1     -41.794  57.975 -54.724  1.00  0.00     0.104 C 
HETATM    7  C   UNL     1     -43.075  58.785 -55.016  1.00  0.00     0.055 C 
HETATM    8  C   UNL     1     -43.102  60.226 -54.533  1.00  0.00     0.019 C 
HETATM    9  N   UNL     1     -43.125  61.421 -54.132  1.00  0.00    -0.096 N 
HETATM   10  H   UNL     1     -44.649  56.656 -56.902  1.00  0.00     0.166 HD
ENDROOT
BRANCH   1  11
HETATM   11  S   UNL     1     -45.541  59.123 -56.118  1.00  0.00    -0.102 SA
BRANCH  11  12
HETATM   12  C   UNL     1     -45.720  58.890 -57.923  1.00  0.00     0.184 C 
BRANCH  12  13
HETATM   13  C   UNL     1     -44.966  59.946 -58.727  1.00  0.00     0.231 C 
HETATM   14  N   UNL     1     -43.636  59.605 -58.947  1.00  0.00    -0.327 N 
HETATM   15  H   UNL     1     -43.312  58.736 -58.542  1.00  0.00     0.169 HD
HETATM   16  O   UNL     1     -45.502  61.006 -59.046  1.00  0.00    -0.272 OA
BRANCH  14  17
HETATM   17  C   UNL     1     -42.623  60.427 -59.485  1.00  0.00     0.034 A 
HETATM   18  C   UNL     1     -42.462  60.687 -60.845  1.00  0.00     0.032 A 
HETATM   19  C   UNL     1     -41.498  61.609 -61.279  1.00  0.00     0.039 A 
HETATM   20  C   UNL     1     -40.704  62.291 -60.360  1.00  0.00     0.068 A 
HETATM   21  C   UNL     1     -40.808  61.980 -59.007  1.00  0.00     0.039 A 
HETATM   22  C   UNL     1     -41.756  61.044 -58.575  1.00  0.00     0.032 A 
BRANCH  20  23
HETATM   23  O   UNL     1     -39.844  63.219 -60.881  1.00  0.00    -0.352 OA
BRANCH  23  24
HETATM   24  C   UNL     1     -39.512  63.019 -62.259  1.00  0.00     0.171 C 
HETATM   25  C   UNL     1     -38.219  63.762 -62.550  1.00  0.00     0.034 C 
ENDBRANCH  23  24
ENDBRANCH  20  23
ENDBRANCH  14  17
ENDBRANCH  12  13
ENDBRANCH  11  12
ENDBRANCH   1  11
BRANCH   6  26
HETATM   26  C   UNL     1     -41.356  58.113 -53.267  1.00  0.00    -0.042 A 
HETATM   27  C   UNL     1     -40.163  58.782 -52.957  1.00  0.00     0.027 A 
HETATM   28  C   UNL     1     -39.781  58.891 -51.630  1.00  0.00     0.116 A 
HETATM   29  N   UNL     1     -40.495  58.384 -50.604  1.00  0.00    -0.273 NA
HETATM   30  C   UNL     1     -41.644  57.749 -50.916  1.00  0.00     0.116 A 
HETATM   31  C   UNL     1     -42.117  57.600 -52.211  1.00  0.00     0.027 A 
ENDBRANCH   6  26
BRANCH   5  32
HETATM   32  C   UNL     1     -41.010  55.458 -54.629  1.00  0.00     0.255 C 
HETATM   33  N   UNL     1     -41.657  54.569 -53.803  1.00  0.00    -0.323 N 
HETATM   34  H   UNL     1     -42.663  54.621 -53.740  1.00  0.00     0.169 HD
HETATM   35  O   UNL     1     -39.828  55.405 -54.957  1.00  0.00    -0.268 OA
BRANCH  33  36
HETATM   36  C   UNL     1     -41.036  53.508 -53.102  1.00  0.00     0.035 A 
HETATM   37  C   UNL     1     -40.846  53.506 -51.714  1.00  0.00     0.031 A 
HETATM   38  C   UNL     1     -40.226  52.428 -51.076  1.00  0.00     0.026 A 
HETATM   39  C   UNL     1     -39.787  51.342 -51.826  1.00  0.00     0.034 A 
HETATM   40 CL   UNL     1     -39.014  50.021 -51.045  1.00  0.00    -0.084 Cl
HETATM   41  C   UNL     1     -39.977  51.323 -53.206  1.00  0.00     0.026 A 
HETATM   42  C   UNL     1     -40.609  52.399 -53.840  1.00  0.00     0.031 A 
ENDBRANCH  33  36
ENDBRANCH   5  32
TORSDOF 9
ENDMDL
MODEL 5
REMARK VINA RESULT:      -8.3      1.346      1.788
REMARK  9 active torsions:
REMARK  status: ('A' for Active; 'I' for Inactive)
REMARK    1  A    between atoms: C_2  and  O_3 
REMARK    2  A    between atoms: O_3  and  C_4 
REMARK    3  A    between atoms: C_7  and  N_8 
REMARK       I    between atoms: N_8  and  C_9 
REMARK    4  A    between atoms: C_9  and  C_10 
REMARK    5  A    between atoms: C_10  and  S_11 
REMARK    6  A    between atoms: S_11  and  C_12 
REMARK    7  A    between atoms: C_16  and  C_17 
REMARK       I    between atoms: C_17  and  N_18 
REMARK    8  A    between atoms: N_18  and  C_19 
REMARK    9  A    between atoms: C_27  and  C_28 
ROOT
HETATM    1  C   UNL     1     -43.508  61.157 -52.909  1.00  0.00     0.087 C 
HETATM    2  N   UNL     1     -42.730  60.583 -51.920  1.00  0.00    -0.353 N 
HETATM    3  C   UNL     1     -42.133  59.339 -51.999  1.00  0.00     0.019 C 
HETATM    4  C   UNL     1     -41.162  59.007 -50.892  1.00  0.00     0.069 C 
HETATM    5  C   UNL     1     -42.445  58.516 -53.025  1.00  0.00     0.046 C 
HETATM    6  C   UNL     1     -43.542  58.899 -54.015  1.00  0.00     0.104 C 
HETATM    7  C   UNL     1     -43.964  60.381 -53.920  1.00  0.00     0.055 C 
HETATM    8  C   UNL     1     -45.030  60.857 -54.894  1.00  0.00     0.019 C 
HETATM    9  N   UNL     1     -45.915  61.251 -55.700  1.00  0.00    -0.096 N 
HETATM   10  H   UNL     1     -42.331  61.243 -51.245  1.00  0.00     0.166 HD
ENDROOT
BRANCH   1  11
HETATM   11  S   UNL     1     -43.911  62.858 -52.791  1.00  0.00    -0.102 SA
BRANCH  11  12
HETATM   12  C   UNL     1     -45.154  62.843 -51.449  1.00  0.00     0.184 C 
BRANCH  12  13
HETATM   13  C   UNL     1     -44.519  62.894 -50.062  1.00  0.00     0.231 C 
HETATM   14  N   UNL     1     -45.456  63.055 -49.048  1.00  0.00    -0.327 N 
HETATM   15  H   UNL     1     -46.425  63.145 -49.328  1.00  0.00     0.169 HD
HETATM   16  O   UNL     1     -43.297  62.878 -49.921  1.00  0.00    -0.272 OA
BRANCH  14  17
HETATM   17  C   UNL     1     -45.201  63.324 -47.686  1.00  0.00     0.034 A 
HETATM   18  C   UNL     1     -44.876  64.582 -47.181  1.00  0.00     0.032 A 
HETATM   19  C   UNL     1     -44.753  64.778 -45.798  1.00  0.00     0.039 A 
HETATM   20  C   UNL     1     -44.973  63.728 -44.910  1.00  0.00     0.068 A 
HETATM   21  C   UNL     1     -45.223  62.453 -45.411  1.00  0.00     0.039 A 
HETATM   22  C   UNL     1     -45.325  62.252 -46.793  1.00  0.00     0.032 A 
BRANCH  20  23
HETATM   23  O   UNL     1     -44.898  64.039 -43.579  1.00  0.00    -0.352 OA
BRANCH  23  24
HETATM   24  C   UNL     1     -43.582  64.358 -43.114  1.00  0.00     0.171 C 
HETATM   25  C   UNL     1     -43.004  63.125 -42.441  1.00  0.00     0.034 C 
ENDBRANCH  23  24
ENDBRANCH  20  23
ENDBRANCH  14  17
ENDBRANCH  12  13
ENDBRANCH  11  12
ENDBRANCH   1  11
BRANCH   6  26
HETATM   26  C   UNL     1     -43.249  58.485 -55.456  1.00  0.00    -0.042 A 
HETATM   27  C   UNL     1     -42.353  59.237 -56.229  1.00  0.00     0.027 A 
HETATM   28  C   UNL     1     -42.106  58.848 -57.536  1.00  0.00     0.116 A 
HETATM   29  N   UNL     1     -42.684  57.778 -58.118  1.00  0.00    -0.273 NA
HETATM   30  C   UNL     1     -43.538  57.059 -57.359  1.00  0.00     0.116 A 
HETATM   31  C   UNL     1     -43.840  57.360 -56.040  1.00  0.00     0.027 A 
ENDBRANCH   6  26
BRANCH   5  32
HETATM   32  C   UNL     1     -41.553  57.344 -53.254  1.00  0.00     0.255 C 
HETATM   33  N   UNL     1     -42.152  56.112 -53.129  1.00  0.00    -0.323 N 
HETATM   34  H   UNL     1     -43.154  56.077 -53.015  1.00  0.00     0.169 HD
HETATM   35  O   UNL     1     -40.388  57.547 -53.584  1.00  0.00    -0.268 OA
BRANCH  33  36
HETATM   36  C   UNL     1     -41.489  54.867 -53.252  1.00  0.00     0.035 A 
HETATM   37  C   UNL     1     -41.153  54.290 -54.483  1.00  0.00     0.031 A 
HETATM   38  C   UNL     1     -40.497  53.057 -54.542  1.00  0.00     0.026 A 
HETATM   39  C   UNL     1     -40.175  52.389 -53.365  1.00  0.00     0.034 A 
HETATM   40 CL   UNL     1     -39.379  50.868 -53.436  1.00  0.00    -0.084 Cl
HETATM   41  C   UNL     1     -40.494  52.954 -52.132  1.00  0.00     0.026 A 
HETATM   42  C   UNL     1     -41.139  54.194 -52.076  1.00  0.00     0.031 A 
ENDBRANCH  33  36
ENDBRANCH   5  32
TORSDOF 9
ENDMDL
MODEL 6
REMARK VINA RESULT:      -8.0      5.098      9.156
REMARK  9 active torsions:
REMARK  status: ('A' for Active; 'I' for Inactive)
REMARK    1  A    between atoms: C_2  and  O_3 
REMARK    2  A    between atoms: O_3  and  C_4 
REMARK    3  A    between atoms: C_7  and  N_8 
REMARK       I    between atoms: N_8  and  C_9 
REMARK    4  A    between atoms: C_9  and  C_10 
REMARK    5  A    between atoms: C_10  and  S_11 
REMARK    6  A    between atoms: S_11  and  C_12 
REMARK    7  A    between atoms: C_16  and  C_17 
REMARK       I    between atoms: C_17  and  N_18 
REMARK    8  A    between atoms: N_18  and  C_19 
REMARK    9  A    between atoms: C_27  and  C_28 
ROOT
HETATM    1  C   UNL     1     -42.660  59.092 -53.924  1.00  0.00     0.087 C 
HETATM    2  N   UNL     1     -42.542  57.918 -54.645  1.00  0.00    -0.353 N 
HETATM    3  C   UNL     1     -43.197  57.646 -55.831  1.00  0.00     0.019 C 
HETATM    4  C   UNL     1     -42.759  56.391 -56.548  1.00  0.00     0.069 C 
HETATM    5  C   UNL     1     -44.162  58.486 -56.268  1.00  0.00     0.046 C 
HETATM    6  C   UNL     1     -44.619  59.653 -55.396  1.00  0.00     0.104 C 
HETATM    7  C   UNL     1     -43.669  59.945 -54.214  1.00  0.00     0.055 C 
HETATM    8  C   UNL     1     -44.033  61.114 -53.312  1.00  0.00     0.019 C 
HETATM    9  N   UNL     1     -44.334  62.082 -52.565  1.00  0.00    -0.096 N 
HETATM   10  H   UNL     1     -41.699  57.370 -54.448  1.00  0.00     0.166 HD
ENDROOT
BRANCH   1  11
HETATM   11  S   UNL     1     -41.521  59.409 -52.630  1.00  0.00    -0.102 SA
BRANCH  11  12
HETATM   12  C   UNL     1     -42.391  58.680 -51.195  1.00  0.00     0.184 C 
BRANCH  12  13
HETATM   13  C   UNL     1     -42.439  57.155 -51.252  1.00  0.00     0.231 C 
HETATM   14  N   UNL     1     -41.249  56.598 -51.706  1.00  0.00    -0.327 N 
HETATM   15  H   UNL     1     -40.511  57.240 -51.968  1.00  0.00     0.169 HD
HETATM   16  O   UNL     1     -43.473  56.541 -50.996  1.00  0.00    -0.272 OA
BRANCH  14  17
HETATM   17  C   UNL     1     -41.016  55.250 -52.052  1.00  0.00     0.034 A 
HETATM   18  C   UNL     1     -41.154  54.734 -53.340  1.00  0.00     0.032 A 
HETATM   19  C   UNL     1     -40.790  53.408 -53.613  1.00  0.00     0.039 A 
HETATM   20  C   UNL     1     -40.268  52.595 -52.610  1.00  0.00     0.068 A 
HETATM   21  C   UNL     1     -40.199  53.080 -51.307  1.00  0.00     0.039 A 
HETATM   22  C   UNL     1     -40.582  54.397 -51.029  1.00  0.00     0.032 A 
BRANCH  20  23
HETATM   23  O   UNL     1     -39.878  51.340 -52.994  1.00  0.00    -0.352 OA
BRANCH  23  24
HETATM   24  C   UNL     1     -40.236  50.988 -54.335  1.00  0.00     0.171 C 
HETATM   25  C   UNL     1     -39.483  49.724 -54.712  1.00  0.00     0.034 C 
ENDBRANCH  23  24
ENDBRANCH  20  23
ENDBRANCH  14  17
ENDBRANCH  12  13
ENDBRANCH  11  12
ENDBRANCH   1  11
BRANCH   6  26
HETATM   26  C   UNL     1     -44.951  60.920 -56.182  1.00  0.00    -0.042 A 
HETATM   27  C   UNL     1     -46.284  61.342 -56.295  1.00  0.00     0.027 A 
HETATM   28  C   UNL     1     -46.563  62.490 -57.018  1.00  0.00     0.116 A 
HETATM   29  N   UNL     1     -45.621  63.234 -57.630  1.00  0.00    -0.273 NA
HETATM   30  C   UNL     1     -44.343  62.820 -57.507  1.00  0.00     0.116 A 
HETATM   31  C   UNL     1     -43.961  61.694 -56.794  1.00  0.00     0.027 A 
ENDBRANCH   6  26
BRANCH   5  32
HETATM   32  C   UNL     1     -44.604  58.341 -57.684  1.00  0.00     0.255 C 
HETATM   33  N   UNL     1     -45.886  57.877 -57.859  1.00  0.00    -0.323 N 
HETATM   34  H   UNL     1     -46.475  57.782 -57.045  1.00  0.00     0.169 HD
HETATM   35  O   UNL     1     -43.836  58.688 -58.577  1.00  0.00    -0.268 OA
BRANCH  33  36
HETATM   36  C   UNL     1     -46.494  57.615 -59.110  1.00  0.00     0.035 A 
HETATM   37  C   UNL     1     -46.488  56.356 -59.723  1.00  0.00     0.031 A 
HETATM   38  C   UNL     1     -47.107  56.157 -60.961  1.00  0.00     0.026 A 
HETATM   39  C   UNL     1     -47.734  57.222 -61.598  1.00  0.00     0.034 A 
HETATM   40 CL   UNL     1     -48.484  56.983 -63.125  1.00  0.00    -0.084 Cl
HETATM   41  C   UNL     1     -47.757  58.480 -60.998  1.00  0.00     0.026 A 
HETATM   42  C   UNL     1     -47.148  58.672 -59.753  1.00  0.00     0.031 A 
ENDBRANCH  33  36
ENDBRANCH   5  32
TORSDOF 9
ENDMDL
MODEL 7
REMARK VINA RESULT:      -8.0      5.623      9.150
REMARK  9 active torsions:
REMARK  status: ('A' for Active; 'I' for Inactive)
REMARK    1  A    between atoms: C_2  and  O_3 
REMARK    2  A    between atoms: O_3  and  C_4 
REMARK    3  A    between atoms: C_7  and  N_8 
REMARK       I    between atoms: N_8  and  C_9 
REMARK    4  A    between atoms: C_9  and  C_10 
REMARK    5  A    between atoms: C_10  and  S_11 
REMARK    6  A    between atoms: S_11  and  C_12 
REMARK    7  A    between atoms: C_16  and  C_17 
REMARK       I    between atoms: C_17  and  N_18 
REMARK    8  A    between atoms: N_18  and  C_19 
REMARK    9  A    between atoms: C_27  and  C_28 
ROOT
HETATM    1  C   UNL     1     -46.030  60.299 -57.013  1.00  0.00     0.087 C 
HETATM    2  N   UNL     1     -45.746  60.142 -55.668  1.00  0.00    -0.353 N 
HETATM    3  C   UNL     1     -44.947  59.149 -55.136  1.00  0.00     0.019 C 
HETATM    4  C   UNL     1     -44.608  59.295 -53.672  1.00  0.00     0.069 C 
HETATM    5  C   UNL     1     -44.529  58.135 -55.926  1.00  0.00     0.046 C 
HETATM    6  C   UNL     1     -45.043  58.013 -57.359  1.00  0.00     0.104 C 
HETATM    7  C   UNL     1     -45.752  59.287 -57.867  1.00  0.00     0.055 C 
HETATM    8  C   UNL     1     -46.266  59.263 -59.297  1.00  0.00     0.019 C 
HETATM    9  N   UNL     1     -46.693  59.244 -60.483  1.00  0.00    -0.096 N 
HETATM   10  H   UNL     1     -45.882  60.980 -55.095  1.00  0.00     0.166 HD
ENDROOT
BRANCH   1  11
HETATM   11  S   UNL     1     -46.781  61.787 -57.553  1.00  0.00    -0.102 SA
BRANCH  11  12
HETATM   12  C   UNL     1     -47.781  62.240 -56.090  1.00  0.00     0.184 C 
BRANCH  12  13
HETATM   13  C   UNL     1     -49.282  62.132 -56.351  1.00  0.00     0.231 C 
HETATM   14  N   UNL     1     -49.627  60.965 -57.021  1.00  0.00    -0.327 N 
HETATM   15  H   UNL     1     -48.872  60.343 -57.281  1.00  0.00     0.169 HD
HETATM   16  O   UNL     1     -50.046  63.049 -56.055  1.00  0.00    -0.272 OA
BRANCH  14  17
HETATM   17  C   UNL     1     -50.884  60.640 -57.576  1.00  0.00     0.034 A 
HETATM   18  C   UNL     1     -51.249  60.897 -58.897  1.00  0.00     0.032 A 
HETATM   19  C   UNL     1     -52.477  60.435 -59.393  1.00  0.00     0.039 A 
HETATM   20  C   UNL     1     -53.338  59.699 -58.582  1.00  0.00     0.068 A 
HETATM   21  C   UNL     1     -53.013  59.506 -57.242  1.00  0.00     0.039 A 
HETATM   22  C   UNL     1     -51.797  59.984 -56.741  1.00  0.00     0.032 A 
BRANCH  20  23
HETATM   23  O   UNL     1     -54.479  59.235 -59.181  1.00  0.00    -0.352 OA
BRANCH  23  24
HETATM   24  C   UNL     1     -54.256  58.353 -60.285  1.00  0.00     0.171 C 
HETATM   25  C   UNL     1     -54.445  56.926 -59.800  1.00  0.00     0.034 C 
ENDBRANCH  23  24
ENDBRANCH  20  23
ENDBRANCH  14  17
ENDBRANCH  12  13
ENDBRANCH  11  12
ENDBRANCH   1  11
BRANCH   6  26
HETATM   26  C   UNL     1     -43.995  57.514 -58.352  1.00  0.00    -0.042 A 
HETATM   27  C   UNL     1     -43.003  58.389 -58.819  1.00  0.00     0.027 A 
HETATM   28  C   UNL     1     -42.066  57.918 -59.724  1.00  0.00     0.116 A 
HETATM   29  N   UNL     1     -42.051  56.654 -60.192  1.00  0.00    -0.273 NA
HETATM   30  C   UNL     1     -43.006  55.821 -59.729  1.00  0.00     0.116 A 
HETATM   31  C   UNL     1     -43.978  56.194 -58.813  1.00  0.00     0.027 A 
ENDBRANCH   6  26
BRANCH   5  32
HETATM   32  C   UNL     1     -43.421  57.280 -55.412  1.00  0.00     0.255 C 
HETATM   33  N   UNL     1     -43.798  56.044 -54.941  1.00  0.00    -0.323 N 
HETATM   34  H   UNL     1     -44.753  55.750 -55.080  1.00  0.00     0.169 HD
HETATM   35  O   UNL     1     -42.271  57.700 -55.491  1.00  0.00    -0.268 OA
BRANCH  33  36
HETATM   36  C   UNL     1     -42.924  55.092 -54.362  1.00  0.00     0.035 A 
HETATM   37  C   UNL     1     -42.311  54.064 -55.090  1.00  0.00     0.031 A 
HETATM   38  C   UNL     1     -41.456  53.153 -54.463  1.00  0.00     0.026 A 
HETATM   39  C   UNL     1     -41.212  53.262 -53.098  1.00  0.00     0.034 A 
HETATM   40 CL   UNL     1     -40.171  52.135 -52.323  1.00  0.00    -0.084 Cl
HETATM   41  C   UNL     1     -41.807  54.283 -52.361  1.00  0.00     0.026 A 
HETATM   42  C   UNL     1     -42.652  55.202 -52.994  1.00  0.00     0.031 A 
ENDBRANCH  33  36
ENDBRANCH   5  32
TORSDOF 9
ENDMDL
MODEL 8
REMARK VINA RESULT:      -7.9      5.321      7.821
REMARK  9 active torsions:
REMARK  status: ('A' for Active; 'I' for Inactive)
REMARK    1  A    between atoms: C_2  and  O_3 
REMARK    2  A    between atoms: O_3  and  C_4 
REMARK    3  A    between atoms: C_7  and  N_8 
REMARK       I    between atoms: N_8  and  C_9 
REMARK    4  A    between atoms: C_9  and  C_10 
REMARK    5  A    between atoms: C_10  and  S_11 
REMARK    6  A    between atoms: S_11  and  C_12 
REMARK    7  A    between atoms: C_16  and  C_17 
REMARK       I    between atoms: C_17  and  N_18 
REMARK    8  A    between atoms: N_18  and  C_19 
REMARK    9  A    between atoms: C_27  and  C_28 
ROOT
HETATM    1  C   UNL     1     -43.780  59.092 -58.563  1.00  0.00     0.087 C 
HETATM    2  N   UNL     1     -43.687  57.745 -58.860  1.00  0.00    -0.353 N 
HETATM    3  C   UNL     1     -43.248  56.767 -57.988  1.00  0.00     0.019 C 
HETATM    4  C   UNL     1     -43.428  55.343 -58.456  1.00  0.00     0.069 C 
HETATM    5  C   UNL     1     -42.699  57.127 -56.806  1.00  0.00     0.046 C 
HETATM    6  C   UNL     1     -42.441  58.599 -56.493  1.00  0.00     0.104 C 
HETATM    7  C   UNL     1     -43.161  59.566 -57.457  1.00  0.00     0.055 C 
HETATM    8  C   UNL     1     -42.986  61.054 -57.196  1.00  0.00     0.019 C 
HETATM    9  N   UNL     1     -42.840  62.287 -56.981  1.00  0.00    -0.096 N 
HETATM   10  H   UNL     1     -44.262  57.433 -59.649  1.00  0.00     0.166 HD
ENDROOT
BRANCH   1  11
HETATM   11  S   UNL     1     -44.659  60.143 -59.656  1.00  0.00    -0.102 SA
BRANCH  11  12
HETATM   12  C   UNL     1     -46.203  59.195 -59.906  1.00  0.00     0.184 C 
BRANCH  12  13
HETATM   13  C   UNL     1     -47.152  59.296 -58.715  1.00  0.00     0.231 C 
HETATM   14  N   UNL     1     -47.960  60.426 -58.767  1.00  0.00    -0.327 N 
HETATM   15  H   UNL     1     -47.821  61.054 -59.549  1.00  0.00     0.169 HD
HETATM   16  O   UNL     1     -47.104  58.484 -57.793  1.00  0.00    -0.272 OA
BRANCH  14  17
HETATM   17  C   UNL     1     -48.806  60.917 -57.750  1.00  0.00     0.034 A 
HETATM   18  C   UNL     1     -48.460  61.936 -56.864  1.00  0.00     0.032 A 
HETATM   19  C   UNL     1     -49.407  62.439 -55.960  1.00  0.00     0.039 A 
HETATM   20  C   UNL     1     -50.708  61.942 -55.947  1.00  0.00     0.068 A 
HETATM   21  C   UNL     1     -51.038  60.874 -56.775  1.00  0.00     0.039 A 
HETATM   22  C   UNL     1     -50.087  60.357 -57.664  1.00  0.00     0.032 A 
BRANCH  20  23
HETATM   23  O   UNL     1     -51.574  62.548 -55.076  1.00  0.00    -0.352 OA
BRANCH  23  24
HETATM   24  C   UNL     1     -52.265  61.650 -54.201  1.00  0.00     0.171 C 
HETATM   25  C   UNL     1     -51.765  61.885 -52.786  1.00  0.00     0.034 C 
ENDBRANCH  23  24
ENDBRANCH  20  23
ENDBRANCH  14  17
ENDBRANCH  12  13
ENDBRANCH  11  12
ENDBRANCH   1  11
BRANCH   6  26
HETATM   26  C   UNL     1     -42.683  58.972 -55.032  1.00  0.00    -0.042 A 
HETATM   27  C   UNL     1     -43.992  59.009 -54.528  1.00  0.00     0.027 A 
HETATM   28  C   UNL     1     -44.189  59.356 -53.201  1.00  0.00     0.116 A 
HETATM   29  N   UNL     1     -43.187  59.667 -52.354  1.00  0.00    -0.273 NA
HETATM   30  C   UNL     1     -41.933  59.621 -52.850  1.00  0.00     0.116 A 
HETATM   31  C   UNL     1     -41.633  59.272 -54.158  1.00  0.00     0.027 A 
ENDBRANCH   6  26
BRANCH   5  32
HETATM   32  C   UNL     1     -42.545  56.064 -55.773  1.00  0.00     0.255 C 
HETATM   33  N   UNL     1     -41.251  55.684 -55.502  1.00  0.00    -0.323 N 
HETATM   34  H   UNL     1     -40.501  56.217 -55.916  1.00  0.00     0.169 HD
HETATM   35  O   UNL     1     -43.551  55.646 -55.207  1.00  0.00    -0.268 OA
BRANCH  33  36
HETATM   36  C   UNL     1     -40.874  54.662 -54.598  1.00  0.00     0.035 A 
HETATM   37  C   UNL     1     -40.431  53.397 -55.005  1.00  0.00     0.031 A 
HETATM   38  C   UNL     1     -40.071  52.427 -54.066  1.00  0.00     0.026 A 
HETATM   39  C   UNL     1     -40.157  52.715 -52.708  1.00  0.00     0.034 A 
HETATM   40 CL   UNL     1     -39.727  51.519 -51.551  1.00  0.00    -0.084 Cl
HETATM   41  C   UNL     1     -40.587  53.971 -52.286  1.00  0.00     0.026 A 
HETATM   42  C   UNL     1     -40.935  54.945 -53.229  1.00  0.00     0.031 A 
ENDBRANCH  33  36
ENDBRANCH   5  32
TORSDOF 9
ENDMDL
MODEL 9
REMARK VINA RESULT:      -7.8      5.212      9.230
REMARK  9 active torsions:
REMARK  status: ('A' for Active; 'I' for Inactive)
REMARK    1  A    between atoms: C_2  and  O_3 
REMARK    2  A    between atoms: O_3  and  C_4 
REMARK    3  A    between atoms: C_7  and  N_8 
REMARK       I    between atoms: N_8  and  C_9 
REMARK    4  A    between atoms: C_9  and  C_10 
REMARK    5  A    between atoms: C_10  and  S_11 
REMARK    6  A    between atoms: S_11  and  C_12 
REMARK    7  A    between atoms: C_16  and  C_17 
REMARK       I    between atoms: C_17  and  N_18 
REMARK    8  A    between atoms: N_18  and  C_19 
REMARK    9  A    between atoms: C_27  and  C_28 
ROOT
HETATM    1  C   UNL     1     -43.841  60.080 -52.966  1.00  0.00     0.087 C 
HETATM    2  N   UNL     1     -44.915  60.918 -53.203  1.00  0.00    -0.353 N 
HETATM    3  C   UNL     1     -45.385  61.272 -54.453  1.00  0.00     0.019 C 
HETATM    4  C   UNL     1     -46.692  62.028 -54.471  1.00  0.00     0.069 C 
HETATM    5  C   UNL     1     -44.673  60.937 -55.552  1.00  0.00     0.046 C 
HETATM    6  C   UNL     1     -43.296  60.292 -55.411  1.00  0.00     0.104 C 
HETATM    7  C   UNL     1     -43.003  59.780 -53.985  1.00  0.00     0.055 C 
HETATM    8  C   UNL     1     -41.665  59.092 -53.763  1.00  0.00     0.019 C 
HETATM    9  N   UNL     1     -40.556  58.523 -53.579  1.00  0.00    -0.096 N 
HETATM   10  H   UNL     1     -45.567  61.020 -52.420  1.00  0.00     0.166 HD
ENDROOT
BRANCH   1  11
HETATM   11  S   UNL     1     -43.581  59.473 -51.342  1.00  0.00    -0.102 SA
BRANCH  11  12
HETATM   12  C   UNL     1     -44.815  58.125 -51.258  1.00  0.00     0.184 C 
BRANCH  12  13
HETATM   13  C   UNL     1     -44.169  56.747 -51.142  1.00  0.00     0.231 C 
HETATM   14  N   UNL     1     -43.092  56.584 -52.006  1.00  0.00    -0.327 N 
HETATM   15  H   UNL     1     -42.874  57.360 -52.619  1.00  0.00     0.169 HD
HETATM   16  O   UNL     1     -44.644  55.881 -50.409  1.00  0.00    -0.272 OA
BRANCH  14  17
HETATM   17  C   UNL     1     -42.397  55.388 -52.287  1.00  0.00     0.034 A 
HETATM   18  C   UNL     1     -42.620  54.595 -53.411  1.00  0.00     0.032 A 
HETATM   19  C   UNL     1     -41.802  53.485 -53.667  1.00  0.00     0.039 A 
HETATM   20  C   UNL     1     -40.746  53.172 -52.815  1.00  0.00     0.068 A 
HETATM   21  C   UNL     1     -40.566  53.914 -51.651  1.00  0.00     0.039 A 
HETATM   22  C   UNL     1     -41.396  55.009 -51.384  1.00  0.00     0.032 A 
BRANCH  20  23
HETATM   23  O   UNL     1     -39.964  52.112 -53.190  1.00  0.00    -0.352 OA
BRANCH  23  24
HETATM   24  C   UNL     1     -40.487  51.340 -54.277  1.00  0.00     0.171 C 
HETATM   25  C   UNL     1     -39.720  50.031 -54.343  1.00  0.00     0.034 C 
ENDBRANCH  23  24
ENDBRANCH  20  23
ENDBRANCH  14  17
ENDBRANCH  12  13
ENDBRANCH  11  12
ENDBRANCH   1  11
BRANCH   6  26
HETATM   26  C   UNL     1     -43.000  59.229 -56.467  1.00  0.00    -0.042 A 
HETATM   27  C   UNL     1     -43.609  57.969 -56.379  1.00  0.00     0.027 A 
HETATM   28  C   UNL     1     -43.321  57.017 -57.344  1.00  0.00     0.116 A 
HETATM   29  N   UNL     1     -42.478  57.230 -58.374  1.00  0.00    -0.273 NA
HETATM   30  C   UNL     1     -41.905  58.450 -58.451  1.00  0.00     0.116 A 
HETATM   31  C   UNL     1     -42.140  59.471 -57.543  1.00  0.00     0.027 A 
ENDBRANCH   6  26
BRANCH   5  32
HETATM   32  C   UNL     1     -45.362  61.042 -56.870  1.00  0.00     0.255 C 
HETATM   33  N   UNL     1     -46.298  60.067 -57.127  1.00  0.00    -0.323 N 
HETATM   34  H   UNL     1     -46.543  59.432 -56.382  1.00  0.00     0.169 HD
HETATM   35  O   UNL     1     -45.097  61.995 -57.597  1.00  0.00    -0.268 OA
BRANCH  33  36
HETATM   36  C   UNL     1     -47.033  59.941 -58.330  1.00  0.00     0.035 A 
HETATM   37  C   UNL     1     -48.197  60.671 -58.603  1.00  0.00     0.031 A 
HETATM   38  C   UNL     1     -48.882  60.503 -59.811  1.00  0.00     0.026 A 
HETATM   39  C   UNL     1     -48.407  59.599 -60.754  1.00  0.00     0.034 A 
HETATM   40 CL   UNL     1     -49.253  59.383 -62.234  1.00  0.00    -0.084 Cl
HETATM   41  C   UNL     1     -47.245  58.872 -60.502  1.00  0.00     0.026 A 
HETATM   42  C   UNL     1     -46.555  59.051 -59.297  1.00  0.00     0.031 A 
ENDBRANCH  33  36
ENDBRANCH   5  32
TORSDOF 9
ENDMDL
MODEL 10
REMARK VINA RESULT:      -7.8      4.603      6.961
REMARK  9 active torsions:
REMARK  status: ('A' for Active; 'I' for Inactive)
REMARK    1  A    between atoms: C_2  and  O_3 
REMARK    2  A    between atoms: O_3  and  C_4 
REMARK    3  A    between atoms: C_7  and  N_8 
REMARK       I    between atoms: N_8  and  C_9 
REMARK    4  A    between atoms: C_9  and  C_10 
REMARK    5  A    between atoms: C_10  and  S_11 
REMARK    6  A    between atoms: S_11  and  C_12 
REMARK    7  A    between atoms: C_16  and  C_17 
REMARK       I    between atoms: C_17  and  N_18 
REMARK    8  A    between atoms: N_18  and  C_19 
REMARK    9  A    between atoms: C_27  and  C_28 
ROOT
HETATM    1  C   UNL     1     -45.137  60.635 -53.795  1.00  0.00     0.087 C 
HETATM    2  N   UNL     1     -44.633  60.007 -52.670  1.00  0.00    -0.353 N 
HETATM    3  C   UNL     1     -43.823  58.887 -52.682  1.00  0.00     0.019 C 
HETATM    4  C   UNL     1     -43.223  58.499 -51.352  1.00  0.00     0.069 C 
HETATM    5  C   UNL     1     -43.624  58.222 -53.842  1.00  0.00     0.046 C 
HETATM    6  C   UNL     1     -44.389  58.622 -55.101  1.00  0.00     0.104 C 
HETATM    7  C   UNL     1     -45.086  59.994 -54.985  1.00  0.00     0.055 C 
HETATM    8  C   UNL     1     -45.844  60.486 -56.208  1.00  0.00     0.019 C 
HETATM    9  N   UNL     1     -46.474  60.893 -57.221  1.00  0.00    -0.096 N 
HETATM   10  H   UNL     1     -44.606  60.585 -51.825  1.00  0.00     0.166 HD
ENDROOT
BRANCH   1  11
HETATM   11  S   UNL     1     -45.866  62.220 -53.625  1.00  0.00    -0.102 SA
BRANCH  11  12
HETATM   12  C   UNL     1     -47.439  61.808 -52.787  1.00  0.00     0.184 C 
BRANCH  12  13
HETATM   13  C   UNL     1     -48.657  62.357 -53.525  1.00  0.00     0.231 C 
HETATM   14  N   UNL     1     -49.848  62.107 -52.854  1.00  0.00    -0.327 N 
HETATM   15  H   UNL     1     -49.788  61.582 -51.990  1.00  0.00     0.169 HD
HETATM   16  O   UNL     1     -48.548  62.879 -54.633  1.00  0.00    -0.272 OA
BRANCH  14  17
HETATM   17  C   UNL     1     -51.158  62.309 -53.338  1.00  0.00     0.034 A 
HETATM   18  C   UNL     1     -51.962  63.397 -53.001  1.00  0.00     0.032 A 
HETATM   19  C   UNL     1     -53.207  63.575 -53.621  1.00  0.00     0.039 A 
HETATM   20  C   UNL     1     -53.649  62.683 -54.594  1.00  0.00     0.068 A 
HETATM   21  C   UNL     1     -52.886  61.554 -54.880  1.00  0.00     0.039 A 
HETATM   22  C   UNL     1     -51.653  61.364 -54.246  1.00  0.00     0.032 A 
BRANCH  20  23
HETATM   23  O   UNL     1     -54.845  62.984 -55.188  1.00  0.00    -0.352 OA
BRANCH  23  24
HETATM   24  C   UNL     1     -54.831  64.172 -55.988  1.00  0.00     0.171 C 
HETATM   25  C   UNL     1     -54.477  63.782 -57.412  1.00  0.00     0.034 C 
ENDBRANCH  23  24
ENDBRANCH  20  23
ENDBRANCH  14  17
ENDBRANCH  12  13
ENDBRANCH  11  12
ENDBRANCH   1  11
BRANCH   6  26
HETATM   26  C   UNL     1     -43.570  58.509 -56.385  1.00  0.00    -0.042 A 
HETATM   27  C   UNL     1     -43.794  57.440 -57.265  1.00  0.00     0.027 A 
HETATM   28  C   UNL     1     -43.035  57.353 -58.421  1.00  0.00     0.116 A 
HETATM   29  N   UNL     1     -42.079  58.243 -58.754  1.00  0.00    -0.273 NA
HETATM   30  C   UNL     1     -41.879  59.270 -57.902  1.00  0.00     0.116 A 
HETATM   31  C   UNL     1     -42.595  59.451 -56.729  1.00  0.00     0.027 A 
ENDBRANCH   6  26
BRANCH   5  32
HETATM   32  C   UNL     1     -42.505  57.237 -53.880  1.00  0.00     0.255 C 
HETATM   33  N   UNL     1     -42.879  55.914 -53.831  1.00  0.00    -0.323 N 
HETATM   34  H   UNL     1     -43.862  55.693 -53.894  1.00  0.00     0.169 HD
HETATM   35  O   UNL     1     -41.358  57.656 -54.005  1.00  0.00    -0.268 OA
BRANCH  33  36
HETATM   36  C   UNL     1     -41.987  54.816 -53.803  1.00  0.00     0.035 A 
HETATM   37  C   UNL     1     -41.337  54.321 -54.941  1.00  0.00     0.031 A 
HETATM   38  C   UNL     1     -40.465  53.231 -54.852  1.00  0.00     0.026 A 
HETATM   39  C   UNL     1     -40.240  52.626 -53.620  1.00  0.00     0.034 A 
HETATM   40 CL   UNL     1     -39.178  51.280 -53.511  1.00  0.00    -0.084 Cl
HETATM   41  C   UNL     1     -40.871  53.112 -52.477  1.00  0.00     0.026 A 
HETATM   42  C   UNL     1     -41.734  54.211 -52.568  1.00  0.00     0.031 A 
ENDBRANCH  33  36
ENDBRANCH   5  32
TORSDOF 9
ENDMDL
