MODEL 1
REMARK VINA RESULT:      -7.5      0.000      0.000
REMARK  9 active torsions:
REMARK  status: ('A' for Active; 'I' for Inactive)
REMARK    1  A    between atoms: C_2  and  C_3 
REMARK    2  A    between atoms: C_3  and  C_4 
REMARK    3  A    between atoms: C_3  and  C_23 
REMARK    4  A    between atoms: C_4  and  C_5 
REMARK    5  A    between atoms: C_4  and  C_17 
REMARK    6  A    between atoms: C_15  and  O_16 
REMARK    7  A    between atoms: C_23  and  N_24 
REMARK    8  A    between atoms: N_31  and  N_32 
REMARK       I    between atoms: N_32  and  C_33 
REMARK    9  A    between atoms: C_33  and  C_34 
ROOT
HETATM    1  C   UNL     1     -42.320  60.113 -61.520  1.00  0.00     0.213 C 
HETATM    2  C   UNL     1     -41.650  61.478 -61.522  1.00  0.00    -0.011 C 
HETATM    3  N   UNL     1     -41.095  62.610 -61.523  1.00  0.00    -0.101 N 
ENDROOT
BRANCH   1   4
HETATM    4  C   UNL     1     -41.919  59.342 -60.278  1.00  0.00     0.249 C 
HETATM    5  N   UNL     1     -41.732  60.095 -59.125  1.00  0.00    -0.246 N 
HETATM    6  H   UNL     1     -41.764  61.113 -59.134  1.00  0.00     0.192 HD
HETATM    7  O   UNL     1     -41.695  58.129 -60.312  1.00  0.00    -0.271 OA
BRANCH   5   8
HETATM    8  N   UNL     1     -41.612  59.443 -57.941  1.00  0.00    -0.181 NA
HETATM    9  C   UNL     1     -42.199  59.920 -56.887  1.00  0.00     0.035 C 
HETATM   10  C   UNL     1     -43.013  61.194 -56.862  1.00  0.00     0.068 C 
BRANCH   9  11
HETATM   11  C   UNL     1     -42.137  59.084 -55.610  1.00  0.00     0.074 C 
BRANCH  11  12
HETATM   12  C   UNL     1     -43.162  57.907 -55.527  1.00  0.00     0.072 C 
BRANCH  12  13
HETATM   13  C   UNL     1     -44.017  57.603 -56.763  1.00  0.00     0.061 C 
HETATM   14  C   UNL     1     -45.369  58.230 -56.748  1.00  0.00     0.298 C 
HETATM   15  O   UNL     1     -45.640  59.085 -55.901  1.00  0.00    -0.259 OA
HETATM   16  O   UNL     1     -46.269  57.918 -57.746  1.00  0.00    -0.274 OA
HETATM   17  C   UNL     1     -45.889  57.125 -58.838  1.00  0.00     0.092 A 
HETATM   18  C   UNL     1     -44.601  56.608 -58.931  1.00  0.00     0.032 A 
HETATM   19  C   UNL     1     -46.853  56.895 -59.819  1.00  0.00     0.038 A 
HETATM   20  C   UNL     1     -44.289  55.820 -60.046  1.00  0.00     0.017 A 
HETATM   21  C   UNL     1     -43.665  56.877 -57.837  1.00  0.00     0.091 C 
HETATM   22  C   UNL     1     -45.245  55.580 -61.039  1.00  0.00     0.001 A 
HETATM   23  C   UNL     1     -46.525  56.118 -60.927  1.00  0.00     0.003 A 
BRANCH  21  24
HETATM   24  O   UNL     1     -42.400  56.363 -57.985  1.00  0.00    -0.359 OA
HETATM   25  H   UNL     1     -42.175  55.909 -57.139  1.00  0.00     0.218 HD
ENDBRANCH  21  24
ENDBRANCH  12  13
BRANCH  12  26
HETATM   26  C   UNL     1     -42.686  56.665 -54.763  1.00  0.00    -0.049 A 
HETATM   27  C   UNL     1     -43.643  55.837 -54.144  1.00  0.00     0.008 A 
HETATM   28  C   UNL     1     -43.264  54.698 -53.428  1.00  0.00     0.001 A 
HETATM   29  C   UNL     1     -41.921  54.359 -53.324  1.00  0.00     0.000 A 
HETATM   30  C   UNL     1     -40.960  55.149 -53.947  1.00  0.00     0.001 A 
HETATM   31  C   UNL     1     -41.340  56.287 -54.664  1.00  0.00     0.008 A 
ENDBRANCH  12  26
ENDBRANCH  11  12
BRANCH  11  32
HETATM   32  C   UNL     1     -42.220  60.103 -54.452  1.00  0.00     0.246 C 
BRANCH  32  33
HETATM   33  N   UNL     1     -41.949  59.529 -53.068  1.00  0.00    -0.070 N 
HETATM   34  H   UNL     1     -42.589  58.717 -52.931  1.00  0.00     0.279 HD
HETATM   35  C   UNL     1     -40.525  59.077 -52.863  1.00  0.00     0.235 C 
HETATM   36  C   UNL     1     -40.341  58.491 -51.471  1.00  0.00     0.028 C 
HETATM   37  C   UNL     1     -40.782  59.460 -50.384  1.00  0.00     0.003 C 
HETATM   38  C   UNL     1     -42.217  59.910 -50.618  1.00  0.00     0.028 C 
HETATM   39  C   UNL     1     -42.389  60.519 -52.001  1.00  0.00     0.235 C 
ENDBRANCH  32  33
ENDBRANCH  11  32
ENDBRANCH   9  11
ENDBRANCH   5   8
ENDBRANCH   1   4
TORSDOF 9
ENDMDL
MODEL 2
REMARK VINA RESULT:      -7.4      2.512      6.475
REMARK  9 active torsions:
REMARK  status: ('A' for Active; 'I' for Inactive)
REMARK    1  A    between atoms: C_2  and  C_3 
REMARK    2  A    between atoms: C_3  and  C_4 
REMARK    3  A    between atoms: C_3  and  C_23 
REMARK    4  A    between atoms: C_4  and  C_5 
REMARK    5  A    between atoms: C_4  and  C_17 
REMARK    6  A    between atoms: C_15  and  O_16 
REMARK    7  A    between atoms: C_23  and  N_24 
REMARK    8  A    between atoms: N_31  and  N_32 
REMARK       I    between atoms: N_32  and  C_33 
REMARK    9  A    between atoms: C_33  and  C_34 
ROOT
HETATM    1  C   UNL     1     -46.877  57.145 -59.334  1.00  0.00     0.213 C 
HETATM    2  C   UNL     1     -46.176  56.163 -60.259  1.00  0.00    -0.011 C 
HETATM    3  N   UNL     1     -45.595  55.349 -61.028  1.00  0.00    -0.101 N 
ENDROOT
BRANCH   1   4
HETATM    4  C   UNL     1     -45.852  57.937 -58.549  1.00  0.00     0.249 C 
HETATM    5  N   UNL     1     -45.468  57.398 -57.326  1.00  0.00    -0.246 N 
HETATM    6  H   UNL     1     -45.919  56.574 -56.935  1.00  0.00     0.192 HD
HETATM    7  O   UNL     1     -45.445  59.036 -58.938  1.00  0.00    -0.271 OA
BRANCH   5   8
HETATM    8  N   UNL     1     -44.389  57.930 -56.697  1.00  0.00    -0.181 NA
HETATM    9  C   UNL     1     -43.254  57.302 -56.738  1.00  0.00     0.035 C 
HETATM   10  C   UNL     1     -43.031  55.976 -57.430  1.00  0.00     0.068 C 
BRANCH   9  11
HETATM   11  C   UNL     1     -42.043  58.001 -56.123  1.00  0.00     0.074 C 
BRANCH  11  12
HETATM   12  C   UNL     1     -41.709  57.597 -54.651  1.00  0.00     0.072 C 
BRANCH  12  13
HETATM   13  C   UNL     1     -42.284  58.452 -53.516  1.00  0.00     0.061 C 
HETATM   14  C   UNL     1     -41.270  59.245 -52.765  1.00  0.00     0.298 C 
HETATM   15  O   UNL     1     -40.120  59.339 -53.200  1.00  0.00    -0.259 OA
HETATM   16  O   UNL     1     -41.658  59.948 -51.643  1.00  0.00    -0.274 OA
HETATM   17  C   UNL     1     -43.009  60.031 -51.276  1.00  0.00     0.092 A 
HETATM   18  C   UNL     1     -43.991  59.384 -52.017  1.00  0.00     0.032 A 
HETATM   19  C   UNL     1     -43.312  60.797 -50.150  1.00  0.00     0.038 A 
HETATM   20  C   UNL     1     -45.320  59.505 -51.591  1.00  0.00     0.017 A 
HETATM   21  C   UNL     1     -43.575  58.578 -53.166  1.00  0.00     0.091 C 
HETATM   22  C   UNL     1     -45.642  60.269 -50.465  1.00  0.00     0.001 A 
HETATM   23  C   UNL     1     -44.639  60.916 -49.745  1.00  0.00     0.003 A 
BRANCH  21  24
HETATM   24  O   UNL     1     -44.584  57.976 -53.878  1.00  0.00    -0.359 OA
HETATM   25  H   UNL     1     -44.739  57.094 -53.465  1.00  0.00     0.218 HD
ENDBRANCH  21  24
ENDBRANCH  12  13
BRANCH  12  26
HETATM   26  C   UNL     1     -41.692  56.090 -54.365  1.00  0.00    -0.049 A 
HETATM   27  C   UNL     1     -40.648  55.307 -54.897  1.00  0.00     0.008 A 
HETATM   28  C   UNL     1     -40.588  53.929 -54.674  1.00  0.00     0.001 A 
HETATM   29  C   UNL     1     -41.565  53.306 -53.908  1.00  0.00     0.000 A 
HETATM   30  C   UNL     1     -42.592  54.063 -53.353  1.00  0.00     0.001 A 
HETATM   31  C   UNL     1     -42.651  55.442 -53.574  1.00  0.00     0.008 A 
ENDBRANCH  12  26
ENDBRANCH  11  12
BRANCH  11  32
HETATM   32  C   UNL     1     -42.289  59.510 -56.344  1.00  0.00     0.246 C 
BRANCH  32  33
HETATM   33  N   UNL     1     -42.618  59.906 -57.777  1.00  0.00    -0.070 N 
HETATM   34  H   UNL     1     -43.521  59.450 -58.031  1.00  0.00     0.279 HD
HETATM   35  C   UNL     1     -42.739  61.395 -57.986  1.00  0.00     0.235 C 
HETATM   36  C   UNL     1     -43.096  61.707 -59.432  1.00  0.00     0.028 C 
HETATM   37  C   UNL     1     -42.112  61.083 -60.409  1.00  0.00     0.003 C 
HETATM   38  C   UNL     1     -41.999  59.584 -60.172  1.00  0.00     0.028 C 
HETATM   39  C   UNL     1     -41.615  59.278 -58.732  1.00  0.00     0.235 C 
ENDBRANCH  32  33
ENDBRANCH  11  32
ENDBRANCH   9  11
ENDBRANCH   5   8
ENDBRANCH   1   4
TORSDOF 9
ENDMDL
MODEL 3
REMARK VINA RESULT:      -7.4      2.105      6.262
REMARK  9 active torsions:
REMARK  status: ('A' for Active; 'I' for Inactive)
REMARK    1  A    between atoms: C_2  and  C_3 
REMARK    2  A    between atoms: C_3  and  C_4 
REMARK    3  A    between atoms: C_3  and  C_23 
REMARK    4  A    between atoms: C_4  and  C_5 
REMARK    5  A    between atoms: C_4  and  C_17 
REMARK    6  A    between atoms: C_15  and  O_16 
REMARK    7  A    between atoms: C_23  and  N_24 
REMARK    8  A    between atoms: N_31  and  N_32 
REMARK       I    between atoms: N_32  and  C_33 
REMARK    9  A    between atoms: C_33  and  C_34 
ROOT
HETATM    1  C   UNL     1     -41.715  62.006 -60.543  1.00  0.00     0.213 C 
HETATM    2  C   UNL     1     -40.427  62.708 -60.143  1.00  0.00    -0.011 C 
HETATM    3  N   UNL     1     -39.358  63.291 -59.811  1.00  0.00    -0.101 N 
ENDROOT
BRANCH   1   4
HETATM    4  C   UNL     1     -41.768  60.627 -59.918  1.00  0.00     0.249 C 
HETATM    5  N   UNL     1     -41.484  60.560 -58.559  1.00  0.00    -0.246 N 
HETATM    6  H   UNL     1     -41.163  61.371 -58.034  1.00  0.00     0.192 HD
HETATM    7  O   UNL     1     -41.971  59.615 -60.596  1.00  0.00    -0.271 OA
BRANCH   5   8
HETATM    8  N   UNL     1     -41.749  59.403 -57.900  1.00  0.00    -0.181 NA
HETATM    9  C   UNL     1     -42.764  59.346 -57.094  1.00  0.00     0.035 C 
HETATM   10  C   UNL     1     -43.693  60.503 -56.801  1.00  0.00     0.068 C 
BRANCH   9  11
HETATM   11  C   UNL     1     -43.093  57.989 -56.476  1.00  0.00     0.074 C 
BRANCH  11  12
HETATM   12  C   UNL     1     -42.382  57.678 -55.119  1.00  0.00     0.072 C 
BRANCH  12  13
HETATM   13  C   UNL     1     -42.766  58.512 -53.892  1.00  0.00     0.061 C 
HETATM   14  C   UNL     1     -41.626  59.222 -53.246  1.00  0.00     0.298 C 
HETATM   15  O   UNL     1     -40.534  59.278 -53.818  1.00  0.00    -0.259 OA
HETATM   16  O   UNL     1     -41.834  59.895 -52.060  1.00  0.00    -0.274 OA
HETATM   17  C   UNL     1     -43.122  60.029 -51.524  1.00  0.00     0.092 A 
HETATM   18  C   UNL     1     -44.222  59.463 -52.159  1.00  0.00     0.032 A 
HETATM   19  C   UNL     1     -43.243  60.760 -50.342  1.00  0.00     0.038 A 
HETATM   20  C   UNL     1     -45.480  59.630 -51.566  1.00  0.00     0.017 A 
HETATM   21  C   UNL     1     -43.995  58.686 -53.379  1.00  0.00     0.091 C 
HETATM   22  C   UNL     1     -45.619  60.362 -50.382  1.00  0.00     0.001 A 
HETATM   23  C   UNL     1     -44.501  60.928 -49.771  1.00  0.00     0.003 A 
BRANCH  21  24
HETATM   24  O   UNL     1     -45.115  58.164 -53.980  1.00  0.00    -0.359 OA
HETATM   25  H   UNL     1     -44.801  57.557 -54.691  1.00  0.00     0.218 HD
ENDBRANCH  21  24
ENDBRANCH  12  13
BRANCH  12  26
HETATM   26  C   UNL     1     -42.133  56.193 -54.826  1.00  0.00    -0.049 A 
HETATM   27  C   UNL     1     -40.808  55.712 -54.817  1.00  0.00     0.008 A 
HETATM   28  C   UNL     1     -40.525  54.368 -54.564  1.00  0.00     0.001 A 
HETATM   29  C   UNL     1     -41.559  53.477 -54.305  1.00  0.00     0.000 A 
HETATM   30  C   UNL     1     -42.873  53.934 -54.287  1.00  0.00     0.001 A 
HETATM   31  C   UNL     1     -43.156  55.279 -54.538  1.00  0.00     0.008 A 
ENDBRANCH  12  26
ENDBRANCH  11  12
BRANCH  11  32
HETATM   32  C   UNL     1     -42.838  56.957 -57.597  1.00  0.00     0.246 C 
BRANCH  32  33
HETATM   33  N   UNL     1     -44.091  56.393 -58.251  1.00  0.00    -0.070 N 
HETATM   34  H   UNL     1     -44.601  55.837 -57.531  1.00  0.00     0.279 HD
HETATM   35  C   UNL     1     -45.015  57.447 -58.809  1.00  0.00     0.235 C 
HETATM   36  C   UNL     1     -46.254  56.807 -59.418  1.00  0.00     0.028 C 
HETATM   37  C   UNL     1     -45.898  55.763 -60.467  1.00  0.00     0.003 C 
HETATM   38  C   UNL     1     -44.957  54.719 -59.885  1.00  0.00     0.028 C 
HETATM   39  C   UNL     1     -43.708  55.362 -59.301  1.00  0.00     0.235 C 
ENDBRANCH  32  33
ENDBRANCH  11  32
ENDBRANCH   9  11
ENDBRANCH   5   8
ENDBRANCH   1   4
TORSDOF 9
ENDMDL
MODEL 4
REMARK VINA RESULT:      -7.3      4.487      8.874
REMARK  9 active torsions:
REMARK  status: ('A' for Active; 'I' for Inactive)
REMARK    1  A    between atoms: C_2  and  C_3 
REMARK    2  A    between atoms: C_3  and  C_4 
REMARK    3  A    between atoms: C_3  and  C_23 
REMARK    4  A    between atoms: C_4  and  C_5 
REMARK    5  A    between atoms: C_4  and  C_17 
REMARK    6  A    between atoms: C_15  and  O_16 
REMARK    7  A    between atoms: C_23  and  N_24 
REMARK    8  A    between atoms: N_31  and  N_32 
REMARK       I    between atoms: N_32  and  C_33 
REMARK    9  A    between atoms: C_33  and  C_34 
ROOT
HETATM    1  C   UNL     1     -40.975  54.242 -49.072  1.00  0.00     0.213 C 
HETATM    2  C   UNL     1     -40.594  52.893 -49.661  1.00  0.00    -0.011 C 
HETATM    3  N   UNL     1     -40.278  51.774 -50.149  1.00  0.00    -0.101 N 
ENDROOT
BRANCH   1   4
HETATM    4  C   UNL     1     -41.798  55.029 -50.072  1.00  0.00     0.249 C 
HETATM    5  N   UNL     1     -41.725  56.413 -49.970  1.00  0.00    -0.246 N 
HETATM    6  H   UNL     1     -41.228  56.873 -49.210  1.00  0.00     0.192 HD
HETATM    7  O   UNL     1     -42.551  54.469 -50.875  1.00  0.00    -0.271 OA
BRANCH   5   8
HETATM    8  N   UNL     1     -42.241  57.162 -50.978  1.00  0.00    -0.181 NA
HETATM    9  C   UNL     1     -41.543  58.140 -51.467  1.00  0.00     0.035 C 
HETATM   10  C   UNL     1     -40.169  58.542 -50.980  1.00  0.00     0.068 C 
BRANCH   9  11
HETATM   11  C   UNL     1     -42.115  58.871 -52.681  1.00  0.00     0.074 C 
BRANCH  11  12
HETATM   12  C   UNL     1     -43.644  59.190 -52.614  1.00  0.00     0.072 C 
BRANCH  12  13
HETATM   13  C   UNL     1     -44.180  59.913 -51.373  1.00  0.00     0.061 C 
HETATM   14  C   UNL     1     -45.254  59.179 -50.647  1.00  0.00     0.298 C 
HETATM   15  O   UNL     1     -45.496  58.003 -50.932  1.00  0.00    -0.259 OA
HETATM   16  O   UNL     1     -45.899  59.794 -49.594  1.00  0.00    -0.274 OA
HETATM   17  C   UNL     1     -45.472  61.041 -49.117  1.00  0.00     0.092 A 
HETATM   18  C   UNL     1     -44.405  61.706 -49.711  1.00  0.00     0.032 A 
HETATM   19  C   UNL     1     -46.158  61.569 -48.022  1.00  0.00     0.038 A 
HETATM   20  C   UNL     1     -44.034  62.952 -49.188  1.00  0.00     0.017 A 
HETATM   21  C   UNL     1     -43.766  61.090 -50.875  1.00  0.00     0.091 C 
HETATM   22  C   UNL     1     -44.710  63.494 -48.090  1.00  0.00     0.001 A 
HETATM   23  C   UNL     1     -45.770  62.803 -47.507  1.00  0.00     0.003 A 
BRANCH  21  24
HETATM   24  O   UNL     1     -42.704  61.774 -51.414  1.00  0.00    -0.359 OA
HETATM   25  H   UNL     1     -43.077  62.551 -51.892  1.00  0.00     0.218 HD
ENDBRANCH  21  24
ENDBRANCH  12  13
BRANCH  12  26
HETATM   26  C   UNL     1     -44.287  59.632 -53.935  1.00  0.00    -0.049 A 
HETATM   27  C   UNL     1     -45.147  58.739 -54.606  1.00  0.00     0.008 A 
HETATM   28  C   UNL     1     -45.753  59.087 -55.816  1.00  0.00     0.001 A 
HETATM   29  C   UNL     1     -45.520  60.337 -56.376  1.00  0.00     0.000 A 
HETATM   30  C   UNL     1     -44.693  61.243 -55.719  1.00  0.00     0.001 A 
HETATM   31  C   UNL     1     -44.088  60.895 -54.507  1.00  0.00     0.008 A 
ENDBRANCH  12  26
ENDBRANCH  11  12
BRANCH  11  32
HETATM   32  C   UNL     1     -41.676  58.036 -53.903  1.00  0.00     0.246 C 
BRANCH  32  33
HETATM   33  N   UNL     1     -41.891  56.535 -53.770  1.00  0.00    -0.070 N 
HETATM   34  H   UNL     1     -42.041  56.326 -52.759  1.00  0.00     0.279 HD
HETATM   35  C   UNL     1     -43.063  56.013 -54.563  1.00  0.00     0.235 C 
HETATM   36  C   UNL     1     -43.229  54.515 -54.355  1.00  0.00     0.028 C 
HETATM   37  C   UNL     1     -41.953  53.752 -54.676  1.00  0.00     0.003 C 
HETATM   38  C   UNL     1     -40.783  54.303 -53.873  1.00  0.00     0.028 C 
HETATM   39  C   UNL     1     -40.606  55.795 -54.105  1.00  0.00     0.235 C 
ENDBRANCH  32  33
ENDBRANCH  11  32
ENDBRANCH   9  11
ENDBRANCH   5   8
ENDBRANCH   1   4
TORSDOF 9
ENDMDL
MODEL 5
REMARK VINA RESULT:      -7.2      2.726      6.433
REMARK  9 active torsions:
REMARK  status: ('A' for Active; 'I' for Inactive)
REMARK    1  A    between atoms: C_2  and  C_3 
REMARK    2  A    between atoms: C_3  and  C_4 
REMARK    3  A    between atoms: C_3  and  C_23 
REMARK    4  A    between atoms: C_4  and  C_5 
REMARK    5  A    between atoms: C_4  and  C_17 
REMARK    6  A    between atoms: C_15  and  O_16 
REMARK    7  A    between atoms: C_23  and  N_24 
REMARK    8  A    between atoms: N_31  and  N_32 
REMARK       I    between atoms: N_32  and  C_33 
REMARK    9  A    between atoms: C_33  and  C_34 
ROOT
HETATM    1  C   UNL     1     -44.590  54.775 -59.859  1.00  0.00     0.213 C 
HETATM    2  C   UNL     1     -45.836  55.580 -60.189  1.00  0.00    -0.011 C 
HETATM    3  N   UNL     1     -46.871  56.249 -60.462  1.00  0.00    -0.101 N 
ENDROOT
BRANCH   1   4
HETATM    4  C   UNL     1     -43.587  55.647 -59.131  1.00  0.00     0.249 C 
HETATM    5  N   UNL     1     -43.932  56.028 -57.840  1.00  0.00    -0.246 N 
HETATM    6  H   UNL     1     -44.845  55.817 -57.441  1.00  0.00     0.192 HD
HETATM    7  O   UNL     1     -42.564  56.060 -59.686  1.00  0.00    -0.271 OA
BRANCH   5   8
HETATM    8  N   UNL     1     -42.980  56.599 -57.060  1.00  0.00    -0.181 NA
HETATM    9  C   UNL     1     -43.310  57.087 -55.904  1.00  0.00     0.035 C 
HETATM   10  C   UNL     1     -44.715  57.091 -55.344  1.00  0.00     0.068 C 
BRANCH   9  11
HETATM   11  C   UNL     1     -42.182  57.605 -55.013  1.00  0.00     0.074 C 
BRANCH  11  12
HETATM   12  C   UNL     1     -42.241  57.146 -53.520  1.00  0.00     0.072 C 
BRANCH  12  13
HETATM   13  C   UNL     1     -41.731  55.743 -53.173  1.00  0.00     0.061 C 
HETATM   14  C   UNL     1     -42.108  55.268 -51.811  1.00  0.00     0.298 C 
HETATM   15  O   UNL     1     -42.941  55.895 -51.151  1.00  0.00    -0.259 OA
HETATM   16  O   UNL     1     -41.593  54.076 -51.346  1.00  0.00    -0.274 OA
HETATM   17  C   UNL     1     -40.830  53.246 -52.178  1.00  0.00     0.092 A 
HETATM   18  C   UNL     1     -40.546  53.616 -53.488  1.00  0.00     0.032 A 
HETATM   19  C   UNL     1     -40.385  52.041 -51.635  1.00  0.00     0.038 A 
HETATM   20  C   UNL     1     -39.773  52.742 -54.265  1.00  0.00     0.017 A 
HETATM   21  C   UNL     1     -41.029  54.914 -53.963  1.00  0.00     0.091 C 
HETATM   22  C   UNL     1     -39.320  51.529 -53.735  1.00  0.00     0.001 A 
HETATM   23  C   UNL     1     -39.627  51.178 -52.422  1.00  0.00     0.003 A 
BRANCH  21  24
HETATM   24  O   UNL     1     -40.741  55.224 -55.270  1.00  0.00    -0.359 OA
HETATM   25  H   UNL     1     -40.868  56.197 -55.367  1.00  0.00     0.218 HD
ENDBRANCH  21  24
ENDBRANCH  12  13
BRANCH  12  26
HETATM   26  C   UNL     1     -41.898  58.222 -52.482  1.00  0.00    -0.049 A 
HETATM   27  C   UNL     1     -42.938  59.010 -51.948  1.00  0.00     0.008 A 
HETATM   28  C   UNL     1     -42.680  60.009 -51.005  1.00  0.00     0.001 A 
HETATM   29  C   UNL     1     -41.381  60.236 -50.570  1.00  0.00     0.000 A 
HETATM   30  C   UNL     1     -40.342  59.455 -51.067  1.00  0.00     0.001 A 
HETATM   31  C   UNL     1     -40.600  58.454 -52.008  1.00  0.00     0.008 A 
ENDBRANCH  12  26
ENDBRANCH  11  12
BRANCH  11  32
HETATM   32  C   UNL     1     -42.167  59.135 -55.224  1.00  0.00     0.246 C 
BRANCH  32  33
HETATM   33  N   UNL     1     -42.762  59.609 -56.543  1.00  0.00    -0.070 N 
HETATM   34  H   UNL     1     -43.246  58.797 -56.982  1.00  0.00     0.279 HD
HETATM   35  C   UNL     1     -43.739  60.749 -56.396  1.00  0.00     0.235 C 
HETATM   36  C   UNL     1     -44.309  61.145 -57.750  1.00  0.00     0.028 C 
HETATM   37  C   UNL     1     -43.214  61.473 -58.755  1.00  0.00     0.003 C 
HETATM   38  C   UNL     1     -42.236  60.314 -58.877  1.00  0.00     0.028 C 
HETATM   39  C   UNL     1     -41.649  59.939 -57.525  1.00  0.00     0.235 C 
ENDBRANCH  32  33
ENDBRANCH  11  32
ENDBRANCH   9  11
ENDBRANCH   5   8
ENDBRANCH   1   4
TORSDOF 9
ENDMDL
MODEL 6
REMARK VINA RESULT:      -7.2      4.116      6.825
REMARK  9 active torsions:
REMARK  status: ('A' for Active; 'I' for Inactive)
REMARK    1  A    between atoms: C_2  and  C_3 
REMARK    2  A    between atoms: C_3  and  C_4 
REMARK    3  A    between atoms: C_3  and  C_23 
REMARK    4  A    between atoms: C_4  and  C_5 
REMARK    5  A    between atoms: C_4  and  C_17 
REMARK    6  A    between atoms: C_15  and  O_16 
REMARK    7  A    between atoms: C_23  and  N_24 
REMARK    8  A    between atoms: N_31  and  N_32 
REMARK       I    between atoms: N_32  and  C_33 
REMARK    9  A    between atoms: C_33  and  C_34 
ROOT
HETATM    1  C   UNL     1     -45.679  61.290 -48.797  1.00  0.00     0.213 C 
HETATM    2  C   UNL     1     -45.549  60.989 -47.313  1.00  0.00    -0.011 C 
HETATM    3  N   UNL     1     -45.441  60.739 -46.081  1.00  0.00    -0.101 N 
ENDROOT
BRANCH   1   4
HETATM    4  C   UNL     1     -45.418  60.035 -49.604  1.00  0.00     0.249 C 
HETATM    5  N   UNL     1     -44.352  60.092 -50.495  1.00  0.00    -0.246 N 
HETATM    6  H   UNL     1     -43.840  60.954 -50.669  1.00  0.00     0.192 HD
HETATM    7  O   UNL     1     -46.159  59.050 -49.530  1.00  0.00    -0.271 OA
BRANCH   5   8
HETATM    8  N   UNL     1     -43.923  58.935 -51.062  1.00  0.00    -0.181 NA
HETATM    9  C   UNL     1     -42.685  58.829 -51.435  1.00  0.00     0.035 C 
HETATM   10  C   UNL     1     -41.653  59.927 -51.307  1.00  0.00     0.068 C 
BRANCH   9  11
HETATM   11  C   UNL     1     -42.222  57.467 -51.951  1.00  0.00     0.074 C 
BRANCH  11  12
HETATM   12  C   UNL     1     -42.783  57.052 -53.349  1.00  0.00     0.072 C 
BRANCH  12  13
HETATM   13  C   UNL     1     -43.209  58.162 -54.317  1.00  0.00     0.061 C 
HETATM   14  C   UNL     1     -44.672  58.208 -54.600  1.00  0.00     0.298 C 
HETATM   15  O   UNL     1     -45.450  57.534 -53.919  1.00  0.00    -0.259 OA
HETATM   16  O   UNL     1     -45.147  59.080 -55.556  1.00  0.00    -0.274 OA
HETATM   17  C   UNL     1     -44.297  60.011 -56.169  1.00  0.00     0.092 A 
HETATM   18  C   UNL     1     -42.945  60.061 -55.851  1.00  0.00     0.032 A 
HETATM   19  C   UNL     1     -44.874  60.881 -57.095  1.00  0.00     0.038 A 
HETATM   20  C   UNL     1     -42.150  61.011 -56.505  1.00  0.00     0.017 A 
HETATM   21  C   UNL     1     -42.422  59.087 -54.891  1.00  0.00     0.091 C 
HETATM   22  C   UNL     1     -42.713  61.892 -57.435  1.00  0.00     0.001 A 
HETATM   23  C   UNL     1     -44.074  61.828 -57.729  1.00  0.00     0.003 A 
BRANCH  21  24
HETATM   24  O   UNL     1     -41.084  59.190 -54.594  1.00  0.00    -0.359 OA
HETATM   25  H   UNL     1     -40.840  58.377 -54.093  1.00  0.00     0.218 HD
ENDBRANCH  21  24
ENDBRANCH  12  13
BRANCH  12  26
HETATM   26  C   UNL     1     -42.086  55.860 -54.015  1.00  0.00    -0.049 A 
HETATM   27  C   UNL     1     -42.872  54.793 -54.497  1.00  0.00     0.008 A 
HETATM   28  C   UNL     1     -42.288  53.679 -55.106  1.00  0.00     0.001 A 
HETATM   29  C   UNL     1     -40.908  53.611 -55.254  1.00  0.00     0.000 A 
HETATM   30  C   UNL     1     -40.115  54.663 -54.806  1.00  0.00     0.001 A 
HETATM   31  C   UNL     1     -40.699  55.778 -54.199  1.00  0.00     0.008 A 
ENDBRANCH  12  26
ENDBRANCH  11  12
BRANCH  11  32
HETATM   32  C   UNL     1     -42.524  56.475 -50.806  1.00  0.00     0.246 C 
BRANCH  32  33
HETATM   33  N   UNL     1     -41.474  55.393 -50.598  1.00  0.00    -0.070 N 
HETATM   34  H   UNL     1     -40.659  55.621 -51.208  1.00  0.00     0.279 HD
HETATM   35  C   UNL     1     -41.003  55.267 -49.170  1.00  0.00     0.235 C 
HETATM   36  C   UNL     1     -39.937  54.188 -49.050  1.00  0.00     0.028 C 
HETATM   37  C   UNL     1     -40.413  52.852 -49.601  1.00  0.00     0.003 C 
HETATM   38  C   UNL     1     -40.893  53.007 -51.037  1.00  0.00     0.028 C 
HETATM   39  C   UNL     1     -41.978  54.068 -51.148  1.00  0.00     0.235 C 
ENDBRANCH  32  33
ENDBRANCH  11  32
ENDBRANCH   9  11
ENDBRANCH   5   8
ENDBRANCH   1   4
TORSDOF 9
ENDMDL
MODEL 7
REMARK VINA RESULT:      -7.2      2.638      8.168
REMARK  9 active torsions:
REMARK  status: ('A' for Active; 'I' for Inactive)
REMARK    1  A    between atoms: C_2  and  C_3 
REMARK    2  A    between atoms: C_3  and  C_4 
REMARK    3  A    between atoms: C_3  and  C_23 
REMARK    4  A    between atoms: C_4  and  C_5 
REMARK    5  A    between atoms: C_4  and  C_17 
REMARK    6  A    between atoms: C_15  and  O_16 
REMARK    7  A    between atoms: C_23  and  N_24 
REMARK    8  A    between atoms: N_31  and  N_32 
REMARK       I    between atoms: N_32  and  C_33 
REMARK    9  A    between atoms: C_33  and  C_34 
ROOT
HETATM    1  C   UNL     1     -43.233  54.297 -52.355  1.00  0.00     0.213 C 
HETATM    2  C   UNL     1     -42.067  53.900 -51.464  1.00  0.00    -0.011 C 
HETATM    3  N   UNL     1     -41.099  53.570 -50.724  1.00  0.00    -0.101 N 
ENDROOT
BRANCH   1   4
HETATM    4  C   UNL     1     -42.741  55.174 -53.489  1.00  0.00     0.249 C 
HETATM    5  N   UNL     1     -43.601  55.310 -54.573  1.00  0.00    -0.246 N 
HETATM    6  H   UNL     1     -44.465  54.776 -54.647  1.00  0.00     0.192 HD
HETATM    7  O   UNL     1     -41.611  55.670 -53.482  1.00  0.00    -0.271 OA
BRANCH   5   8
HETATM    8  N   UNL     1     -43.325  56.263 -55.499  1.00  0.00    -0.181 NA
HETATM    9  C   UNL     1     -44.133  57.269 -55.639  1.00  0.00     0.035 C 
HETATM   10  C   UNL     1     -45.408  57.462 -54.848  1.00  0.00     0.068 C 
BRANCH   9  11
HETATM   11  C   UNL     1     -43.714  58.376 -56.605  1.00  0.00     0.074 C 
BRANCH  11  12
HETATM   12  C   UNL     1     -43.397  59.757 -55.946  1.00  0.00     0.072 C 
BRANCH  12  13
HETATM   13  C   UNL     1     -42.930  59.773 -54.486  1.00  0.00     0.061 C 
HETATM   14  C   UNL     1     -43.844  60.492 -53.553  1.00  0.00     0.298 C 
HETATM   15  O   UNL     1     -44.967  60.831 -53.934  1.00  0.00    -0.259 OA
HETATM   16  O   UNL     1     -43.458  60.680 -52.242  1.00  0.00    -0.274 OA
HETATM   17  C   UNL     1     -42.285  60.096 -51.744  1.00  0.00     0.092 A 
HETATM   18  C   UNL     1     -41.463  59.335 -52.567  1.00  0.00     0.032 A 
HETATM   19  C   UNL     1     -41.996  60.308 -50.396  1.00  0.00     0.038 A 
HETATM   20  C   UNL     1     -40.302  58.785 -52.007  1.00  0.00     0.017 A 
HETATM   21  C   UNL     1     -41.830  59.193 -53.977  1.00  0.00     0.091 C 
HETATM   22  C   UNL     1     -39.998  58.986 -50.656  1.00  0.00     0.001 A 
HETATM   23  C   UNL     1     -40.845  59.746 -49.851  1.00  0.00     0.003 A 
BRANCH  21  24
HETATM   24  O   UNL     1     -40.998  58.414 -54.743  1.00  0.00    -0.359 OA
HETATM   25  H   UNL     1     -40.088  58.526 -54.380  1.00  0.00     0.218 HD
ENDBRANCH  21  24
ENDBRANCH  12  13
BRANCH  12  26
HETATM   26  C   UNL     1     -42.692  60.776 -56.850  1.00  0.00    -0.049 A 
HETATM   27  C   UNL     1     -43.156  62.107 -56.868  1.00  0.00     0.008 A 
HETATM   28  C   UNL     1     -42.556  63.074 -57.679  1.00  0.00     0.001 A 
HETATM   29  C   UNL     1     -41.474  62.734 -58.481  1.00  0.00     0.000 A 
HETATM   30  C   UNL     1     -40.985  61.432 -58.462  1.00  0.00     0.001 A 
HETATM   31  C   UNL     1     -41.584  60.465 -57.649  1.00  0.00     0.008 A 
ENDBRANCH  12  26
ENDBRANCH  11  12
BRANCH  11  32
HETATM   32  C   UNL     1     -44.814  58.408 -57.689  1.00  0.00     0.246 C 
BRANCH  32  33
HETATM   33  N   UNL     1     -44.977  57.118 -58.480  1.00  0.00    -0.070 N 
HETATM   34  H   UNL     1     -45.153  56.349 -57.798  1.00  0.00     0.279 HD
HETATM   35  C   UNL     1     -46.101  57.156 -59.485  1.00  0.00     0.235 C 
HETATM   36  C   UNL     1     -46.217  55.825 -60.212  1.00  0.00     0.028 C 
HETATM   37  C   UNL     1     -44.903  55.413 -60.859  1.00  0.00     0.003 C 
HETATM   38  C   UNL     1     -43.783  55.393 -59.829  1.00  0.00     0.028 C 
HETATM   39  C   UNL     1     -43.654  56.734 -59.124  1.00  0.00     0.235 C 
ENDBRANCH  32  33
ENDBRANCH  11  32
ENDBRANCH   9  11
ENDBRANCH   5   8
ENDBRANCH   1   4
TORSDOF 9
ENDMDL
MODEL 8
REMARK VINA RESULT:      -7.0      2.741      6.879
REMARK  9 active torsions:
REMARK  status: ('A' for Active; 'I' for Inactive)
REMARK    1  A    between atoms: C_2  and  C_3 
REMARK    2  A    between atoms: C_3  and  C_4 
REMARK    3  A    between atoms: C_3  and  C_23 
REMARK    4  A    between atoms: C_4  and  C_5 
REMARK    5  A    between atoms: C_4  and  C_17 
REMARK    6  A    between atoms: C_15  and  O_16 
REMARK    7  A    between atoms: C_23  and  N_24 
REMARK    8  A    between atoms: N_31  and  N_32 
REMARK       I    between atoms: N_32  and  C_33 
REMARK    9  A    between atoms: C_33  and  C_34 
ROOT
HETATM    1  C   UNL     1     -45.689  62.974 -55.784  1.00  0.00     0.213 C 
HETATM    2  C   UNL     1     -44.385  63.453 -56.402  1.00  0.00    -0.011 C 
HETATM    3  N   UNL     1     -43.303  63.850 -56.915  1.00  0.00    -0.101 N 
ENDROOT
BRANCH   1   4
HETATM    4  C   UNL     1     -45.598  61.496 -55.465  1.00  0.00     0.249 C 
HETATM    5  N   UNL     1     -45.274  60.660 -56.527  1.00  0.00    -0.246 N 
HETATM    6  H   UNL     1     -45.198  61.005 -57.482  1.00  0.00     0.192 HD
HETATM    7  O   UNL     1     -45.876  61.056 -54.345  1.00  0.00    -0.271 OA
BRANCH   5   8
HETATM    8  N   UNL     1     -44.943  59.371 -56.256  1.00  0.00    -0.181 NA
HETATM    9  C   UNL     1     -43.737  58.958 -56.497  1.00  0.00     0.035 C 
HETATM   10  C   UNL     1     -42.640  59.812 -57.092  1.00  0.00     0.068 C 
BRANCH   9  11
HETATM   11  C   UNL     1     -43.382  57.538 -56.059  1.00  0.00     0.074 C 
BRANCH  11  12
HETATM   12  C   UNL     1     -42.462  57.433 -54.800  1.00  0.00     0.072 C 
BRANCH  12  13
HETATM   13  C   UNL     1     -42.745  58.366 -53.617  1.00  0.00     0.061 C 
HETATM   14  C   UNL     1     -41.588  59.210 -53.205  1.00  0.00     0.298 C 
HETATM   15  O   UNL     1     -40.588  59.274 -53.925  1.00  0.00    -0.259 OA
HETATM   16  O   UNL     1     -41.690  59.989 -52.071  1.00  0.00    -0.274 OA
HETATM   17  C   UNL     1     -42.904  60.098 -51.378  1.00  0.00     0.092 A 
HETATM   18  C   UNL     1     -44.030  59.400 -51.798  1.00  0.00     0.032 A 
HETATM   19  C   UNL     1     -42.924  60.940 -50.266  1.00  0.00     0.038 A 
HETATM   20  C   UNL     1     -45.209  59.550 -51.056  1.00  0.00     0.017 A 
HETATM   21  C   UNL     1     -43.906  58.515 -52.958  1.00  0.00     0.091 C 
HETATM   22  C   UNL     1     -45.247  60.391 -49.939  1.00  0.00     0.001 A 
HETATM   23  C   UNL     1     -44.106  61.087 -49.545  1.00  0.00     0.003 A 
BRANCH  21  24
HETATM   24  O   UNL     1     -45.052  57.864 -53.346  1.00  0.00    -0.359 OA
HETATM   25  H   UNL     1     -45.491  58.436 -54.018  1.00  0.00     0.218 HD
ENDBRANCH  21  24
ENDBRANCH  12  13
BRANCH  12  26
HETATM   26  C   UNL     1     -42.040  56.013 -54.403  1.00  0.00    -0.049 A 
HETATM   27  C   UNL     1     -40.727  55.587 -54.688  1.00  0.00     0.008 A 
HETATM   28  C   UNL     1     -40.293  54.302 -54.356  1.00  0.00     0.001 A 
HETATM   29  C   UNL     1     -41.158  53.418 -53.724  1.00  0.00     0.000 A 
HETATM   30  C   UNL     1     -42.451  53.824 -53.412  1.00  0.00     0.001 A 
HETATM   31  C   UNL     1     -42.886  55.111 -53.742  1.00  0.00     0.008 A 
ENDBRANCH  12  26
ENDBRANCH  11  12
BRANCH  11  32
HETATM   32  C   UNL     1     -42.833  56.846 -57.326  1.00  0.00     0.246 C 
BRANCH  32  33
HETATM   33  N   UNL     1     -43.894  56.326 -58.287  1.00  0.00    -0.070 N 
HETATM   34  H   UNL     1     -44.765  56.162 -57.738  1.00  0.00     0.279 HD
HETATM   35  C   UNL     1     -44.196  57.264 -59.428  1.00  0.00     0.235 C 
HETATM   36  C   UNL     1     -45.282  56.687 -60.324  1.00  0.00     0.028 C 
HETATM   37  C   UNL     1     -44.927  55.294 -60.824  1.00  0.00     0.003 C 
HETATM   38  C   UNL     1     -44.615  54.370 -59.656  1.00  0.00     0.028 C 
HETATM   39  C   UNL     1     -43.511  54.939 -58.779  1.00  0.00     0.235 C 
ENDBRANCH  32  33
ENDBRANCH  11  32
ENDBRANCH   9  11
ENDBRANCH   5   8
ENDBRANCH   1   4
TORSDOF 9
ENDMDL
MODEL 9
REMARK VINA RESULT:      -7.0      2.846      7.483
REMARK  9 active torsions:
REMARK  status: ('A' for Active; 'I' for Inactive)
REMARK    1  A    between atoms: C_2  and  C_3 
REMARK    2  A    between atoms: C_3  and  C_4 
REMARK    3  A    between atoms: C_3  and  C_23 
REMARK    4  A    between atoms: C_4  and  C_5 
REMARK    5  A    between atoms: C_4  and  C_17 
REMARK    6  A    between atoms: C_15  and  O_16 
REMARK    7  A    between atoms: C_23  and  N_24 
REMARK    8  A    between atoms: N_31  and  N_32 
REMARK       I    between atoms: N_32  and  C_33 
REMARK    9  A    between atoms: C_33  and  C_34 
ROOT
HETATM    1  C   UNL     1     -45.071  60.192 -49.951  1.00  0.00     0.213 C 
HETATM    2  C   UNL     1     -44.045  61.300 -50.124  1.00  0.00    -0.011 C 
HETATM    3  N   UNL     1     -43.193  62.219 -50.268  1.00  0.00    -0.101 N 
ENDROOT
BRANCH   1   4
HETATM    4  C   UNL     1     -45.182  59.385 -51.229  1.00  0.00     0.249 C 
HETATM    5  N   UNL     1     -45.599  60.081 -52.357  1.00  0.00    -0.246 N 
HETATM    6  H   UNL     1     -45.907  61.050 -52.310  1.00  0.00     0.192 HD
HETATM    7  O   UNL     1     -44.990  58.166 -51.244  1.00  0.00    -0.271 OA
BRANCH   5   8
HETATM    8  N   UNL     1     -45.485  59.476 -53.567  1.00  0.00    -0.181 NA
HETATM    9  C   UNL     1     -44.667  59.962 -54.448  1.00  0.00     0.035 C 
HETATM   10  C   UNL     1     -43.818  61.197 -54.243  1.00  0.00     0.068 C 
BRANCH   9  11
HETATM   11  C   UNL     1     -44.483  59.174 -55.744  1.00  0.00     0.074 C 
BRANCH  11  12
HETATM   12  C   UNL     1     -43.161  58.346 -55.846  1.00  0.00     0.072 C 
BRANCH  12  13
HETATM   13  C   UNL     1     -42.731  57.517 -54.630  1.00  0.00     0.061 C 
HETATM   14  C   UNL     1     -41.473  57.982 -53.980  1.00  0.00     0.298 C 
HETATM   15  O   UNL     1     -40.984  59.070 -54.295  1.00  0.00    -0.259 OA
HETATM   16  O   UNL     1     -40.924  57.233 -52.960  1.00  0.00    -0.274 OA
HETATM   17  C   UNL     1     -41.597  56.118 -52.441  1.00  0.00     0.092 A 
HETATM   18  C   UNL     1     -42.823  55.719 -52.960  1.00  0.00     0.032 A 
HETATM   19  C   UNL     1     -40.985  55.445 -51.383  1.00  0.00     0.038 A 
HETATM   20  C   UNL     1     -43.439  54.593 -52.399  1.00  0.00     0.017 A 
HETATM   21  C   UNL     1     -43.374  56.468 -54.092  1.00  0.00     0.091 C 
HETATM   22  C   UNL     1     -42.839  53.907 -51.337  1.00  0.00     0.001 A 
HETATM   23  C   UNL     1     -41.614  54.334 -50.828  1.00  0.00     0.003 A 
BRANCH  21  24
HETATM   24  O   UNL     1     -44.597  56.048 -54.555  1.00  0.00    -0.359 OA
HETATM   25  H   UNL     1     -45.260  56.283 -53.865  1.00  0.00     0.218 HD
ENDBRANCH  21  24
ENDBRANCH  12  13
BRANCH  12  26
HETATM   26  C   UNL     1     -42.904  57.671 -57.199  1.00  0.00    -0.049 A 
HETATM   27  C   UNL     1     -42.000  58.270 -58.099  1.00  0.00     0.008 A 
HETATM   28  C   UNL     1     -41.735  57.702 -59.347  1.00  0.00     0.001 A 
HETATM   29  C   UNL     1     -42.360  56.518 -59.719  1.00  0.00     0.000 A 
HETATM   30  C   UNL     1     -43.239  55.897 -58.837  1.00  0.00     0.001 A 
HETATM   31  C   UNL     1     -43.503  56.464 -57.587  1.00  0.00     0.008 A 
ENDBRANCH  12  26
ENDBRANCH  11  12
BRANCH  11  32
HETATM   32  C   UNL     1     -44.698  60.200 -56.879  1.00  0.00     0.246 C 
BRANCH  32  33
HETATM   33  N   UNL     1     -45.635  59.747 -57.989  1.00  0.00    -0.070 N 
HETATM   34  H   UNL     1     -46.405  60.446 -58.059  1.00  0.00     0.279 HD
HETATM   35  C   UNL     1     -44.965  59.610 -59.334  1.00  0.00     0.235 C 
HETATM   36  C   UNL     1     -45.970  59.182 -60.393  1.00  0.00     0.028 C 
HETATM   37  C   UNL     1     -46.703  57.907 -60.001  1.00  0.00     0.003 C 
HETATM   38  C   UNL     1     -47.359  58.065 -58.637  1.00  0.00     0.028 C 
HETATM   39  C   UNL     1     -46.346  58.467 -57.577  1.00  0.00     0.235 C 
ENDBRANCH  32  33
ENDBRANCH  11  32
ENDBRANCH   9  11
ENDBRANCH   5   8
ENDBRANCH   1   4
TORSDOF 9
ENDMDL
MODEL 10
REMARK VINA RESULT:      -7.0      2.880      5.950
REMARK  9 active torsions:
REMARK  status: ('A' for Active; 'I' for Inactive)
REMARK    1  A    between atoms: C_2  and  C_3 
REMARK    2  A    between atoms: C_3  and  C_4 
REMARK    3  A    between atoms: C_3  and  C_23 
REMARK    4  A    between atoms: C_4  and  C_5 
REMARK    5  A    between atoms: C_4  and  C_17 
REMARK    6  A    between atoms: C_15  and  O_16 
REMARK    7  A    between atoms: C_23  and  N_24 
REMARK    8  A    between atoms: N_31  and  N_32 
REMARK       I    between atoms: N_32  and  C_33 
REMARK    9  A    between atoms: C_33  and  C_34 
ROOT
HETATM    1  C   UNL     1     -43.881  55.357 -59.271  1.00  0.00     0.213 C 
HETATM    2  C   UNL     1     -45.076  56.159 -59.761  1.00  0.00    -0.011 C 
HETATM    3  N   UNL     1     -46.068  56.823 -60.167  1.00  0.00    -0.101 N 
ENDROOT
BRANCH   1   4
HETATM    4  C   UNL     1     -43.159  56.120 -58.179  1.00  0.00     0.249 C 
HETATM    5  N   UNL     1     -43.237  55.580 -56.901  1.00  0.00    -0.246 N 
HETATM    6  H   UNL     1     -43.824  54.775 -56.690  1.00  0.00     0.192 HD
HETATM    7  O   UNL     1     -42.604  57.200 -58.402  1.00  0.00    -0.271 OA
BRANCH   5   8
HETATM    8  N   UNL     1     -42.420  56.078 -55.939  1.00  0.00    -0.181 NA
HETATM    9  C   UNL     1     -42.901  56.328 -54.760  1.00  0.00     0.035 C 
HETATM   10  C   UNL     1     -44.346  56.125 -54.362  1.00  0.00     0.068 C 
BRANCH   9  11
HETATM   11  C   UNL     1     -41.915  56.769 -53.679  1.00  0.00     0.074 C 
BRANCH  11  12
HETATM   12  C   UNL     1     -41.638  58.305 -53.607  1.00  0.00     0.072 C 
BRANCH  12  13
HETATM   13  C   UNL     1     -42.785  59.264 -53.946  1.00  0.00     0.061 C 
HETATM   14  C   UNL     1     -42.596  60.033 -55.208  1.00  0.00     0.298 C 
HETATM   15  O   UNL     1     -41.687  59.724 -55.984  1.00  0.00    -0.259 OA
HETATM   16  O   UNL     1     -43.501  61.018 -55.542  1.00  0.00    -0.274 OA
HETATM   17  C   UNL     1     -44.662  61.217 -54.782  1.00  0.00     0.092 A 
HETATM   18  C   UNL     1     -44.918  60.445 -53.653  1.00  0.00     0.032 A 
HETATM   19  C   UNL     1     -45.541  62.209 -55.217  1.00  0.00     0.038 A 
HETATM   20  C   UNL     1     -46.094  60.701 -52.936  1.00  0.00     0.017 A 
HETATM   21  C   UNL     1     -43.923  59.448 -53.255  1.00  0.00     0.091 C 
HETATM   22  C   UNL     1     -46.987  61.691 -53.360  1.00  0.00     0.001 A 
HETATM   23  C   UNL     1     -46.712  62.444 -54.500  1.00  0.00     0.003 A 
BRANCH  21  24
HETATM   24  O   UNL     1     -44.230  58.698 -52.146  1.00  0.00    -0.359 OA
HETATM   25  H   UNL     1     -43.382  58.326 -51.809  1.00  0.00     0.218 HD
ENDBRANCH  21  24
ENDBRANCH  12  13
BRANCH  12  26
HETATM   26  C   UNL     1     -40.747  58.765 -52.447  1.00  0.00    -0.049 A 
HETATM   27  C   UNL     1     -39.364  58.922 -52.670  1.00  0.00     0.008 A 
HETATM   28  C   UNL     1     -38.505  59.331 -51.647  1.00  0.00     0.001 A 
HETATM   29  C   UNL     1     -39.011  59.599 -50.381  1.00  0.00     0.000 A 
HETATM   30  C   UNL     1     -40.376  59.473 -50.144  1.00  0.00     0.001 A 
HETATM   31  C   UNL     1     -41.236  59.066 -51.168  1.00  0.00     0.008 A 
ENDBRANCH  12  26
ENDBRANCH  11  12
BRANCH  11  32
HETATM   32  C   UNL     1     -40.662  55.890 -53.888  1.00  0.00     0.246 C 
BRANCH  32  33
HETATM   33  N   UNL     1     -40.846  54.416 -53.556  1.00  0.00    -0.070 N 
HETATM   34  H   UNL     1     -41.871  54.231 -53.490  1.00  0.00     0.279 HD
HETATM   35  C   UNL     1     -40.240  53.481 -54.573  1.00  0.00     0.235 C 
HETATM   36  C   UNL     1     -40.490  52.031 -54.187  1.00  0.00     0.028 C 
HETATM   37  C   UNL     1     -39.997  51.723 -52.781  1.00  0.00     0.003 C 
HETATM   38  C   UNL     1     -40.613  52.685 -51.775  1.00  0.00     0.028 C 
HETATM   39  C   UNL     1     -40.337  54.133 -52.152  1.00  0.00     0.235 C 
ENDBRANCH  32  33
ENDBRANCH  11  32
ENDBRANCH   9  11
ENDBRANCH   5   8
ENDBRANCH   1   4
TORSDOF 9
ENDMDL
