MODEL 1
REMARK VINA RESULT:      -7.5      0.000      0.000
REMARK  2 active torsions:
REMARK  status: ('A' for Active; 'I' for Inactive)
REMARK    1  A    between atoms: C_8  and  S_9 
REMARK    2  A    between atoms: S_9  and  C_10 
ROOT
HETATM    1  C   UNL     1     -40.041  51.129 -54.319  1.00  0.00     0.002 A 
HETATM    2  C   UNL     1     -40.536  52.415 -54.102  1.00  0.00     0.034 A 
HETATM    3  C   UNL     1     -40.570  52.968 -52.828  1.00  0.00     0.087 A 
HETATM    4  C   UNL     1     -40.094  52.207 -51.730  1.00  0.00     0.087 A 
HETATM    5  N   UNL     1     -40.099  52.706 -50.476  1.00  0.00    -0.231 NA
HETATM    6  C   UNL     1     -40.617  53.942 -50.300  1.00  0.00     0.167 A 
HETATM    7 CL   UNL     1     -40.468  54.498 -48.688  1.00  0.00    -0.059 Cl
HETATM    8  C   UNL     1     -41.082  54.669 -51.370  1.00  0.00     0.192 A 
HETATM    9  N   UNL     1     -41.047  54.217 -52.656  1.00  0.00    -0.232 NA
HETATM   10  C   UNL     1     -39.601  50.929 -51.960  1.00  0.00     0.034 A 
HETATM   11  C   UNL     1     -39.571  50.384 -53.244  1.00  0.00     0.002 A 
ENDROOT
BRANCH   8  12
HETATM   12  S   UNL     1     -41.735  56.299 -51.228  1.00  0.00     0.200 S 
HETATM   13  O   UNL     1     -43.047  56.230 -50.608  1.00  0.00    -0.221 OA
HETATM   14  O   UNL     1     -40.738  57.176 -50.651  1.00  0.00    -0.221 OA
BRANCH  12  15
HETATM   15  C   UNL     1     -42.012  56.831 -52.921  1.00  0.00     0.118 C 
HETATM   16  C   UNL     1     -40.780  57.577 -53.459  1.00  0.00     0.048 C 
HETATM   17  C   UNL     1     -40.626  58.974 -52.874  1.00  0.00     0.233 C 
HETATM   18  N   UNL     1     -41.886  59.742 -53.095  1.00  0.00    -0.075 N 
HETATM   19  H   UNL     1     -42.007  59.938 -54.098  1.00  0.00     0.277 HD
HETATM   20  H   UNL     1     -41.775  60.667 -52.652  1.00  0.00     0.277 HD
HETATM   21  C   UNL     1     -43.121  59.116 -52.542  1.00  0.00     0.233 C 
HETATM   22  C   UNL     1     -43.269  57.698 -53.083  1.00  0.00     0.048 C 
ENDBRANCH  12  15
ENDBRANCH   8  12
TORSDOF 2
ENDMDL
MODEL 2
REMARK VINA RESULT:      -7.4      1.877      2.342
REMARK  2 active torsions:
REMARK  status: ('A' for Active; 'I' for Inactive)
REMARK    1  A    between atoms: C_8  and  S_9 
REMARK    2  A    between atoms: S_9  and  C_10 
ROOT
HETATM    1  C   UNL     1     -39.822  49.846 -54.162  1.00  0.00     0.002 A 
HETATM    2  C   UNL     1     -40.238  51.163 -54.358  1.00  0.00     0.034 A 
HETATM    3  C   UNL     1     -40.263  52.074 -53.309  1.00  0.00     0.087 A 
HETATM    4  C   UNL     1     -39.861  51.652 -52.017  1.00  0.00     0.087 A 
HETATM    5  N   UNL     1     -39.860  52.503 -50.970  1.00  0.00    -0.231 NA
HETATM    6  C   UNL     1     -40.300  53.761 -51.190  1.00  0.00     0.167 A 
HETATM    7 CL   UNL     1     -40.150  54.766 -49.813  1.00  0.00    -0.059 Cl
HETATM    8  C   UNL     1     -40.695  54.159 -52.446  1.00  0.00     0.192 A 
HETATM    9  N   UNL     1     -40.661  53.341 -53.536  1.00  0.00    -0.232 NA
HETATM   10  C   UNL     1     -39.447  50.338 -51.836  1.00  0.00     0.034 A 
HETATM   11  C   UNL     1     -39.425  49.433 -52.897  1.00  0.00     0.002 A 
ENDROOT
BRANCH   8  12
HETATM   12  S   UNL     1     -41.243  55.790 -52.822  1.00  0.00     0.200 S 
HETATM   13  O   UNL     1     -41.075  56.628 -51.647  1.00  0.00    -0.221 OA
HETATM   14  O   UNL     1     -40.662  56.225 -54.075  1.00  0.00    -0.221 OA
BRANCH  12  15
HETATM   15  C   UNL     1     -43.016  55.632 -53.072  1.00  0.00     0.118 C 
HETATM   16  C   UNL     1     -43.692  57.011 -53.019  1.00  0.00     0.048 C 
HETATM   17  C   UNL     1     -43.777  57.580 -51.609  1.00  0.00     0.233 C 
HETATM   18  N   UNL     1     -44.452  56.591 -50.719  1.00  0.00    -0.075 N 
HETATM   19  H   UNL     1     -45.444  56.503 -50.979  1.00  0.00     0.277 HD
HETATM   20  H   UNL     1     -44.459  56.978 -49.763  1.00  0.00     0.277 HD
HETATM   21  C   UNL     1     -43.816  55.243 -50.663  1.00  0.00     0.233 C 
HETATM   22  C   UNL     1     -43.682  54.675 -52.072  1.00  0.00     0.048 C 
ENDBRANCH  12  15
ENDBRANCH   8  12
TORSDOF 2
ENDMDL
MODEL 3
REMARK VINA RESULT:      -7.4      1.150      1.590
REMARK  2 active torsions:
REMARK  status: ('A' for Active; 'I' for Inactive)
REMARK    1  A    between atoms: C_8  and  S_9 
REMARK    2  A    between atoms: S_9  and  C_10 
ROOT
HETATM    1  C   UNL     1     -40.100  50.935 -54.324  1.00  0.00     0.002 A 
HETATM    2  C   UNL     1     -40.743  52.173 -54.340  1.00  0.00     0.034 A 
HETATM    3  C   UNL     1     -40.814  52.963 -53.199  1.00  0.00     0.087 A 
HETATM    4  C   UNL     1     -40.223  52.496 -51.997  1.00  0.00     0.087 A 
HETATM    5  N   UNL     1     -40.259  53.232 -50.867  1.00  0.00    -0.231 NA
HETATM    6  C   UNL     1     -40.919  54.411 -50.912  1.00  0.00     0.167 A 
HETATM    7 CL   UNL     1     -40.801  55.292 -49.449  1.00  0.00    -0.059 Cl
HETATM    8  C   UNL     1     -41.494  54.851 -52.081  1.00  0.00     0.192 A 
HETATM    9  N   UNL     1     -41.434  54.158 -53.253  1.00  0.00    -0.232 NA
HETATM   10  C   UNL     1     -39.585  51.263 -51.995  1.00  0.00     0.034 A 
HETATM   11  C   UNL     1     -39.519  50.479 -53.148  1.00  0.00     0.002 A 
ENDROOT
BRANCH   8  12
HETATM   12  S   UNL     1     -42.336  56.392 -52.230  1.00  0.00     0.200 S 
HETATM   13  O   UNL     1     -42.785  56.553 -53.603  1.00  0.00    -0.221 OA
HETATM   14  O   UNL     1     -43.303  56.526 -51.161  1.00  0.00    -0.221 OA
BRANCH  12  15
HETATM   15  C   UNL     1     -41.065  57.635 -51.973  1.00  0.00     0.118 C 
HETATM   16  C   UNL     1     -41.542  58.692 -50.964  1.00  0.00     0.048 C 
HETATM   17  C   UNL     1     -42.583  59.641 -51.542  1.00  0.00     0.233 C 
HETATM   18  N   UNL     1     -42.045  60.260 -52.789  1.00  0.00    -0.075 N 
HETATM   19  H   UNL     1     -41.271  60.899 -52.560  1.00  0.00     0.277 HD
HETATM   20  H   UNL     1     -42.782  60.864 -53.186  1.00  0.00     0.277 HD
HETATM   21  C   UNL     1     -41.621  59.299 -53.848  1.00  0.00     0.233 C 
HETATM   22  C   UNL     1     -40.610  58.311 -53.275  1.00  0.00     0.048 C 
ENDBRANCH  12  15
ENDBRANCH   8  12
TORSDOF 2
ENDMDL
MODEL 4
REMARK VINA RESULT:      -7.2      1.973      2.385
REMARK  2 active torsions:
REMARK  status: ('A' for Active; 'I' for Inactive)
REMARK    1  A    between atoms: C_8  and  S_9 
REMARK    2  A    between atoms: S_9  and  C_10 
ROOT
HETATM    1  C   UNL     1     -39.711  49.809 -54.093  1.00  0.00     0.002 A 
HETATM    2  C   UNL     1     -40.134  51.114 -54.346  1.00  0.00     0.034 A 
HETATM    3  C   UNL     1     -40.246  52.046 -53.321  1.00  0.00     0.087 A 
HETATM    4  C   UNL     1     -39.925  51.658 -51.995  1.00  0.00     0.087 A 
HETATM    5  N   UNL     1     -40.010  52.530 -50.969  1.00  0.00    -0.231 NA
HETATM    6  C   UNL     1     -40.455  53.776 -51.247  1.00  0.00     0.167 A 
HETATM    7 CL   UNL     1     -40.416  54.811 -49.884  1.00  0.00    -0.059 Cl
HETATM    8  C   UNL     1     -40.770  54.140 -52.535  1.00  0.00     0.192 A 
HETATM    9  N   UNL     1     -40.648  53.300 -53.602  1.00  0.00    -0.232 NA
HETATM   10  C   UNL     1     -39.503  50.356 -51.758  1.00  0.00     0.034 A 
HETATM   11  C   UNL     1     -39.394  49.429 -52.795  1.00  0.00     0.002 A 
ENDROOT
BRANCH   8  12
HETATM   12  S   UNL     1     -41.318  55.753 -52.982  1.00  0.00     0.200 S 
HETATM   13  O   UNL     1     -41.099  56.654 -51.864  1.00  0.00    -0.221 OA
HETATM   14  O   UNL     1     -40.781  56.110 -54.279  1.00  0.00    -0.221 OA
BRANCH  12  15
HETATM   15  C   UNL     1     -43.100  55.600 -53.156  1.00  0.00     0.118 C 
HETATM   16  C   UNL     1     -43.448  54.657 -54.320  1.00  0.00     0.048 C 
HETATM   17  C   UNL     1     -43.205  55.283 -55.687  1.00  0.00     0.233 C 
HETATM   18  N   UNL     1     -43.944  56.576 -55.774  1.00  0.00    -0.075 N 
HETATM   19  H   UNL     1     -44.958  56.402 -55.791  1.00  0.00     0.277 HD
HETATM   20  H   UNL     1     -43.729  57.002 -56.689  1.00  0.00     0.277 HD
HETATM   21  C   UNL     1     -43.612  57.574 -54.716  1.00  0.00     0.233 C 
HETATM   22  C   UNL     1     -43.807  56.951 -53.338  1.00  0.00     0.048 C 
ENDBRANCH  12  15
ENDBRANCH   8  12
TORSDOF 2
ENDMDL
MODEL 5
REMARK VINA RESULT:      -7.2      1.993      2.580
REMARK  2 active torsions:
REMARK  status: ('A' for Active; 'I' for Inactive)
REMARK    1  A    between atoms: C_8  and  S_9 
REMARK    2  A    between atoms: S_9  and  C_10 
ROOT
HETATM    1  C   UNL     1     -39.363  51.214 -52.513  1.00  0.00     0.002 A 
HETATM    2  C   UNL     1     -39.726  52.340 -51.773  1.00  0.00     0.034 A 
HETATM    3  C   UNL     1     -40.608  53.283 -52.284  1.00  0.00     0.087 A 
HETATM    4  C   UNL     1     -41.147  53.095 -53.582  1.00  0.00     0.087 A 
HETATM    5  N   UNL     1     -42.015  53.980 -54.116  1.00  0.00    -0.231 NA
HETATM    6  C   UNL     1     -42.317  55.075 -53.383  1.00  0.00     0.167 A 
HETATM    7 CL   UNL     1     -43.505  56.060 -54.125  1.00  0.00    -0.059 Cl
HETATM    8  C   UNL     1     -41.785  55.250 -52.128  1.00  0.00     0.192 A 
HETATM    9  N   UNL     1     -40.945  54.353 -51.538  1.00  0.00    -0.232 NA
HETATM   10  C   UNL     1     -40.779  51.969 -54.307  1.00  0.00     0.034 A 
HETATM   11  C   UNL     1     -39.892  51.028 -53.784  1.00  0.00     0.002 A 
ENDROOT
BRANCH   8  12
HETATM   12  S   UNL     1     -42.160  56.629 -51.097  1.00  0.00     0.200 S 
HETATM   13  O   UNL     1     -43.603  56.755 -50.983  1.00  0.00    -0.221 OA
HETATM   14  O   UNL     1     -41.369  56.563 -49.885  1.00  0.00    -0.221 OA
BRANCH  12  15
HETATM   15  C   UNL     1     -41.606  58.062 -52.029  1.00  0.00     0.118 C 
HETATM   16  C   UNL     1     -40.396  58.715 -51.343  1.00  0.00     0.048 C 
HETATM   17  C   UNL     1     -40.767  59.479 -50.078  1.00  0.00     0.233 C 
HETATM   18  N   UNL     1     -41.833  60.472 -50.398  1.00  0.00    -0.075 N 
HETATM   19  H   UNL     1     -41.452  61.217 -50.998  1.00  0.00     0.277 HD
HETATM   20  H   UNL     1     -42.100  60.945 -49.521  1.00  0.00     0.277 HD
HETATM   21  C   UNL     1     -43.071  59.907 -51.007  1.00  0.00     0.233 C 
HETATM   22  C   UNL     1     -42.715  59.101 -52.252  1.00  0.00     0.048 C 
ENDBRANCH  12  15
ENDBRANCH   8  12
TORSDOF 2
ENDMDL
MODEL 6
REMARK VINA RESULT:      -7.1      2.517      3.278
REMARK  2 active torsions:
REMARK  status: ('A' for Active; 'I' for Inactive)
REMARK    1  A    between atoms: C_8  and  S_9 
REMARK    2  A    between atoms: S_9  and  C_10 
ROOT
HETATM    1  C   UNL     1     -39.504  50.948 -51.526  1.00  0.00     0.002 A 
HETATM    2  C   UNL     1     -39.951  52.263 -51.395  1.00  0.00     0.034 A 
HETATM    3  C   UNL     1     -40.419  52.977 -52.491  1.00  0.00     0.087 A 
HETATM    4  C   UNL     1     -40.438  52.355 -53.765  1.00  0.00     0.087 A 
HETATM    5  N   UNL     1     -40.892  53.006 -54.857  1.00  0.00    -0.231 NA
HETATM    6  C   UNL     1     -41.286  54.288 -54.697  1.00  0.00     0.167 A 
HETATM    7 CL   UNL     1     -41.936  54.964 -56.129  1.00  0.00    -0.059 Cl
HETATM    8  C   UNL     1     -41.257  54.885 -53.458  1.00  0.00     0.192 A 
HETATM    9  N   UNL     1     -40.852  54.242 -52.327  1.00  0.00    -0.232 NA
HETATM   10  C   UNL     1     -39.993  51.044 -53.882  1.00  0.00     0.034 A 
HETATM   11  C   UNL     1     -39.526  50.337 -52.773  1.00  0.00     0.002 A 
ENDROOT
BRANCH   8  12
HETATM   12  S   UNL     1     -41.790  56.538 -53.163  1.00  0.00     0.200 S 
HETATM   13  O   UNL     1     -40.707  57.449 -53.492  1.00  0.00    -0.221 OA
HETATM   14  O   UNL     1     -43.087  56.750 -53.770  1.00  0.00    -0.221 OA
BRANCH  12  15
HETATM   15  C   UNL     1     -42.001  56.639 -51.381  1.00  0.00     0.118 C 
HETATM   16  C   UNL     1     -43.494  56.685 -51.018  1.00  0.00     0.048 C 
HETATM   17  C   UNL     1     -44.144  58.025 -51.334  1.00  0.00     0.233 C 
HETATM   18  N   UNL     1     -43.372  59.115 -50.669  1.00  0.00    -0.075 N 
HETATM   19  H   UNL     1     -43.484  59.054 -49.648  1.00  0.00     0.277 HD
HETATM   20  H   UNL     1     -43.803  60.015 -50.933  1.00  0.00     0.277 HD
HETATM   21  C   UNL     1     -41.925  59.181 -51.023  1.00  0.00     0.233 C 
HETATM   22  C   UNL     1     -41.265  57.832 -50.753  1.00  0.00     0.048 C 
ENDBRANCH  12  15
ENDBRANCH   8  12
TORSDOF 2
ENDMDL
MODEL 7
REMARK VINA RESULT:      -7.0      3.123      4.197
REMARK  2 active torsions:
REMARK  status: ('A' for Active; 'I' for Inactive)
REMARK    1  A    between atoms: C_8  and  S_9 
REMARK    2  A    between atoms: S_9  and  C_10 
ROOT
HETATM    1  C   UNL     1     -40.874  54.800 -48.418  1.00  0.00     0.002 A 
HETATM    2  C   UNL     1     -41.010  55.309 -49.710  1.00  0.00     0.034 A 
HETATM    3  C   UNL     1     -40.836  54.499 -50.825  1.00  0.00     0.087 A 
HETATM    4  C   UNL     1     -40.511  53.131 -50.643  1.00  0.00     0.087 A 
HETATM    5  N   UNL     1     -40.342  52.304 -51.696  1.00  0.00    -0.231 NA
HETATM    6  C   UNL     1     -40.449  52.840 -52.932  1.00  0.00     0.167 A 
HETATM    7 CL   UNL     1     -40.317  51.671 -54.174  1.00  0.00    -0.059 Cl
HETATM    8  C   UNL     1     -40.758  54.170 -53.098  1.00  0.00     0.192 A 
HETATM    9  N   UNL     1     -40.985  55.022 -52.058  1.00  0.00    -0.232 NA
HETATM   10  C   UNL     1     -40.381  52.636 -49.352  1.00  0.00     0.034 A 
HETATM   11  C   UNL     1     -40.559  53.459 -48.239  1.00  0.00     0.002 A 
ENDROOT
BRANCH   8  12
HETATM   12  S   UNL     1     -40.953  54.934 -54.674  1.00  0.00     0.200 S 
HETATM   13  O   UNL     1     -41.034  56.373 -54.494  1.00  0.00    -0.221 OA
HETATM   14  O   UNL     1     -39.975  54.402 -55.599  1.00  0.00    -0.221 OA
BRANCH  12  15
HETATM   15  C   UNL     1     -42.577  54.410 -55.238  1.00  0.00     0.118 C 
HETATM   16  C   UNL     1     -42.885  55.010 -56.619  1.00  0.00     0.048 C 
HETATM   17  C   UNL     1     -43.205  56.498 -56.565  1.00  0.00     0.233 C 
HETATM   18  N   UNL     1     -44.314  56.728 -55.594  1.00  0.00    -0.075 N 
HETATM   19  H   UNL     1     -45.190  56.330 -55.959  1.00  0.00     0.277 HD
HETATM   20  H   UNL     1     -44.482  57.745 -55.541  1.00  0.00     0.277 HD
HETATM   21  C   UNL     1     -44.064  56.233 -54.210  1.00  0.00     0.233 C 
HETATM   22  C   UNL     1     -43.699  54.753 -54.247  1.00  0.00     0.048 C 
ENDBRANCH  12  15
ENDBRANCH   8  12
TORSDOF 2
ENDMDL
MODEL 8
REMARK VINA RESULT:      -6.9      1.799      2.234
REMARK  2 active torsions:
REMARK  status: ('A' for Active; 'I' for Inactive)
REMARK    1  A    between atoms: C_8  and  S_9 
REMARK    2  A    between atoms: S_9  and  C_10 
ROOT
HETATM    1  C   UNL     1     -39.796  51.313 -54.054  1.00  0.00     0.002 A 
HETATM    2  C   UNL     1     -40.356  52.560 -54.334  1.00  0.00     0.034 A 
HETATM    3  C   UNL     1     -40.619  53.475 -53.322  1.00  0.00     0.087 A 
HETATM    4  C   UNL     1     -40.314  53.130 -51.981  1.00  0.00     0.087 A 
HETATM    5  N   UNL     1     -40.544  53.989 -50.966  1.00  0.00    -0.231 NA
HETATM    6  C   UNL     1     -41.117  55.174 -51.272  1.00  0.00     0.167 A 
HETATM    7 CL   UNL     1     -41.257  56.210 -49.917  1.00  0.00    -0.059 Cl
HETATM    8  C   UNL     1     -41.415  55.496 -52.575  1.00  0.00     0.192 A 
HETATM    9  N   UNL     1     -41.151  54.674 -53.629  1.00  0.00    -0.232 NA
HETATM   10  C   UNL     1     -39.755  51.886 -51.716  1.00  0.00     0.034 A 
HETATM   11  C   UNL     1     -39.494  50.976 -52.741  1.00  0.00     0.002 A 
ENDROOT
BRANCH   8  12
HETATM   12  S   UNL     1     -42.126  57.034 -53.058  1.00  0.00     0.200 S 
HETATM   13  O   UNL     1     -41.641  58.078 -52.171  1.00  0.00    -0.221 OA
HETATM   14  O   UNL     1     -41.982  57.213 -54.487  1.00  0.00    -0.221 OA
BRANCH  12  15
HETATM   15  C   UNL     1     -43.880  56.859 -52.707  1.00  0.00     0.118 C 
HETATM   16  C   UNL     1     -44.718  57.337 -53.903  1.00  0.00     0.048 C 
HETATM   17  C   UNL     1     -44.734  58.852 -54.053  1.00  0.00     0.233 C 
HETATM   18  N   UNL     1     -45.185  59.468 -52.771  1.00  0.00    -0.075 N 
HETATM   19  H   UNL     1     -46.179  59.255 -52.608  1.00  0.00     0.277 HD
HETATM   20  H   UNL     1     -45.145  60.493 -52.881  1.00  0.00     0.277 HD
HETATM   21  C   UNL     1     -44.379  59.106 -51.570  1.00  0.00     0.233 C 
HETATM   22  C   UNL     1     -44.315  57.589 -51.428  1.00  0.00     0.048 C 
ENDBRANCH  12  15
ENDBRANCH   8  12
TORSDOF 2
ENDMDL
MODEL 9
REMARK VINA RESULT:      -6.8      5.143      5.731
REMARK  2 active torsions:
REMARK  status: ('A' for Active; 'I' for Inactive)
REMARK    1  A    between atoms: C_8  and  S_9 
REMARK    2  A    between atoms: S_9  and  C_10 
ROOT
HETATM    1  C   UNL     1     -40.183  52.888 -54.047  1.00  0.00     0.002 A 
HETATM    2  C   UNL     1     -40.550  53.749 -55.083  1.00  0.00     0.034 A 
HETATM    3  C   UNL     1     -41.569  54.678 -54.919  1.00  0.00     0.087 A 
HETATM    4  C   UNL     1     -42.248  54.750 -53.676  1.00  0.00     0.087 A 
HETATM    5  N   UNL     1     -43.238  55.643 -53.468  1.00  0.00    -0.231 NA
HETATM    6  C   UNL     1     -43.587  56.437 -54.504  1.00  0.00     0.167 A 
HETATM    7 CL   UNL     1     -44.777  57.592 -54.080  1.00  0.00    -0.059 Cl
HETATM    8  C   UNL     1     -42.927  56.355 -55.708  1.00  0.00     0.192 A 
HETATM    9  N   UNL     1     -41.891  55.500 -55.937  1.00  0.00    -0.232 NA
HETATM   10  C   UNL     1     -41.871  53.890 -52.653  1.00  0.00     0.034 A 
HETATM   11  C   UNL     1     -40.846  52.960 -52.829  1.00  0.00     0.002 A 
ENDROOT
BRANCH   8  12
HETATM   12  S   UNL     1     -43.298  57.381 -57.092  1.00  0.00     0.200 S 
HETATM   13  O   UNL     1     -44.741  57.497 -57.221  1.00  0.00    -0.221 OA
HETATM   14  O   UNL     1     -42.506  58.591 -57.030  1.00  0.00    -0.221 OA
BRANCH  12  15
HETATM   15  C   UNL     1     -42.744  56.441 -58.519  1.00  0.00     0.118 C 
HETATM   16  C   UNL     1     -42.340  57.387 -59.662  1.00  0.00     0.048 C 
HETATM   17  C   UNL     1     -43.533  58.037 -60.349  1.00  0.00     0.233 C 
HETATM   18  N   UNL     1     -44.475  56.975 -60.808  1.00  0.00    -0.075 N 
HETATM   19  H   UNL     1     -44.050  56.434 -61.574  1.00  0.00     0.277 HD
HETATM   20  H   UNL     1     -45.295  57.439 -61.230  1.00  0.00     0.277 HD
HETATM   21  C   UNL     1     -44.968  56.054 -59.744  1.00  0.00     0.233 C 
HETATM   22  C   UNL     1     -43.785  55.426 -59.014  1.00  0.00     0.048 C 
ENDBRANCH  12  15
ENDBRANCH   8  12
TORSDOF 2
ENDMDL
MODEL 10
REMARK VINA RESULT:      -6.8      2.550      3.280
REMARK  2 active torsions:
REMARK  status: ('A' for Active; 'I' for Inactive)
REMARK    1  A    between atoms: C_8  and  S_9 
REMARK    2  A    between atoms: S_9  and  C_10 
ROOT
HETATM    1  C   UNL     1     -40.161  52.273 -54.327  1.00  0.00     0.002 A 
HETATM    2  C   UNL     1     -40.509  53.542 -54.792  1.00  0.00     0.034 A 
HETATM    3  C   UNL     1     -40.791  54.579 -53.912  1.00  0.00     0.087 A 
HETATM    4  C   UNL     1     -40.725  54.339 -52.516  1.00  0.00     0.087 A 
HETATM    5  N   UNL     1     -40.982  55.318 -51.623  1.00  0.00    -0.231 NA
HETATM    6  C   UNL     1     -41.348  56.524 -52.110  1.00  0.00     0.167 A 
HETATM    7 CL   UNL     1     -41.541  57.702 -50.883  1.00  0.00    -0.059 Cl
HETATM    8  C   UNL     1     -41.415  56.745 -53.465  1.00  0.00     0.192 A 
HETATM    9  N   UNL     1     -41.114  55.794 -54.395  1.00  0.00    -0.232 NA
HETATM   10  C   UNL     1     -40.375  53.072 -52.066  1.00  0.00     0.034 A 
HETATM   11  C   UNL     1     -40.094  52.038 -52.960  1.00  0.00     0.002 A 
ENDROOT
BRANCH   8  12
HETATM   12  S   UNL     1     -41.845  58.298 -54.177  1.00  0.00     0.200 S 
HETATM   13  O   UNL     1     -40.846  59.283 -53.801  1.00  0.00    -0.221 OA
HETATM   14  O   UNL     1     -42.156  58.123 -55.581  1.00  0.00    -0.221 OA
BRANCH  12  15
HETATM   15  C   UNL     1     -43.360  58.781 -53.341  1.00  0.00     0.118 C 
HETATM   16  C   UNL     1     -44.426  57.683 -53.482  1.00  0.00     0.048 C 
HETATM   17  C   UNL     1     -45.028  57.611 -54.879  1.00  0.00     0.233 C 
HETATM   18  N   UNL     1     -45.555  58.955 -55.257  1.00  0.00    -0.075 N 
HETATM   19  H   UNL     1     -46.374  59.188 -54.679  1.00  0.00     0.277 HD
HETATM   20  H   UNL     1     -45.917  58.894 -56.221  1.00  0.00     0.277 HD
HETATM   21  C   UNL     1     -44.563  60.067 -55.211  1.00  0.00     0.233 C 
HETATM   22  C   UNL     1     -43.916  60.127 -53.830  1.00  0.00     0.048 C 
ENDBRANCH  12  15
ENDBRANCH   8  12
TORSDOF 2
ENDMDL
