MODEL 1
REMARK VINA RESULT:      -8.7      0.000      0.000
REMARK  3 active torsions:
REMARK  status: ('A' for Active; 'I' for Inactive)
REMARK    1  A    between atoms: C_3  and  N_4 
REMARK       I    between atoms: N_4  and  C_5 
REMARK    2  A    between atoms: C_5  and  C_6 
REMARK    3  A    between atoms: C_17  and  O_18 
ROOT
HETATM    1  C   UNL     1     -41.796  55.898 -51.182  1.00  0.00     0.153 A 
HETATM    2  N   UNL     1     -41.172  56.266 -50.039  1.00  0.00    -0.168 NA
HETATM    3  N   UNL     1     -41.336  57.605 -49.988  1.00  0.00    -0.276 N 
HETATM    4  H   UNL     1     -40.924  58.112 -49.213  1.00  0.00     0.189 HD
HETATM    5  C   UNL     1     -42.064  58.104 -51.024  1.00  0.00     0.069 A 
HETATM    6  C   UNL     1     -42.374  57.025 -51.821  1.00  0.00     0.007 A 
HETATM    7  C   UNL     1     -43.213  57.168 -53.041  1.00  0.00     0.048 C 
HETATM    8  C   UNL     1     -43.144  58.608 -53.603  1.00  0.00     0.044 C 
HETATM    9  C   UNL     1     -43.072  59.712 -52.554  1.00  0.00    -0.043 A 
HETATM   10  C   UNL     1     -42.477  59.470 -51.294  1.00  0.00    -0.001 A 
HETATM   11  C   UNL     1     -43.506  61.006 -52.870  1.00  0.00     0.044 A 
HETATM   12  C   UNL     1     -43.374  62.051 -51.951  1.00  0.00     0.068 A 
HETATM   13  C   UNL     1     -42.792  61.800 -50.707  1.00  0.00     0.037 A 
HETATM   14  C   UNL     1     -42.343  60.514 -50.378  1.00  0.00     0.017 A 
ENDROOT
BRANCH   1  15
HETATM   15  C   UNL     1     -41.847  54.486 -51.616  1.00  0.00     0.277 C 
HETATM   16  N   UNL     1     -40.587  53.999 -51.915  1.00  0.00    -0.321 N 
HETATM   17  H   UNL     1     -39.855  54.682 -51.743  1.00  0.00     0.169 HD
HETATM   18  O   UNL     1     -42.900  53.861 -51.656  1.00  0.00    -0.266 OA
BRANCH  16  19
HETATM   19  C   UNL     1     -40.227  52.710 -52.358  1.00  0.00     0.043 A 
HETATM   20  C   UNL     1     -40.226  52.438 -53.745  1.00  0.00    -0.035 A 
HETATM   21  C   UNL     1     -40.574  53.477 -54.778  1.00  0.00     0.050 C 
HETATM   22  C   UNL     1     -39.911  51.142 -54.196  1.00  0.00     0.012 A 
HETATM   23  C   UNL     1     -39.579  50.135 -53.294  1.00  0.00     0.043 A 
HETATM   24  C   UNL     1     -39.569  50.419 -51.938  1.00  0.00     0.118 A 
HETATM   25  C   UNL     1     -39.886  51.688 -51.465  1.00  0.00     0.072 A 
HETATM   26  F   UNL     1     -39.260  49.448 -51.068  1.00  0.00    -0.206 F 
ENDBRANCH  16  19
ENDBRANCH   1  15
BRANCH  12  27
HETATM   27  O   UNL     1     -43.846  63.257 -52.390  1.00  0.00    -0.356 OA
HETATM   28  C   UNL     1     -43.129  64.416 -51.987  1.00  0.00     0.210 C 
ENDBRANCH  12  27
TORSDOF 3
ENDMDL
MODEL 2
REMARK VINA RESULT:      -8.6      4.396      8.582
REMARK  3 active torsions:
REMARK  status: ('A' for Active; 'I' for Inactive)
REMARK    1  A    between atoms: C_3  and  N_4 
REMARK       I    between atoms: N_4  and  C_5 
REMARK    2  A    between atoms: C_5  and  C_6 
REMARK    3  A    between atoms: C_17  and  O_18 
ROOT
HETATM    1  C   UNL     1     -41.881  57.123 -54.075  1.00  0.00     0.153 A 
HETATM    2  N   UNL     1     -42.348  57.447 -52.847  1.00  0.00    -0.168 NA
HETATM    3  N   UNL     1     -42.057  56.369 -52.087  1.00  0.00    -0.276 N 
HETATM    4  H   UNL     1     -42.339  56.376 -51.114  1.00  0.00     0.189 HD
HETATM    5  C   UNL     1     -41.395  55.390 -52.761  1.00  0.00     0.069 A 
HETATM    6  C   UNL     1     -41.270  55.844 -54.055  1.00  0.00     0.007 A 
HETATM    7  C   UNL     1     -40.549  55.057 -55.093  1.00  0.00     0.048 C 
HETATM    8  C   UNL     1     -40.542  53.549 -54.750  1.00  0.00     0.044 C 
HETATM    9  C   UNL     1     -40.405  53.221 -53.268  1.00  0.00    -0.043 A 
HETATM   10  C   UNL     1     -40.887  54.115 -52.284  1.00  0.00    -0.001 A 
HETATM   11  C   UNL     1     -39.888  51.981 -52.872  1.00  0.00     0.044 A 
HETATM   12  C   UNL     1     -39.828  51.628 -51.520  1.00  0.00     0.068 A 
HETATM   13  C   UNL     1     -40.301  52.521 -50.557  1.00  0.00     0.037 A 
HETATM   14  C   UNL     1     -40.830  53.762 -50.936  1.00  0.00     0.017 A 
ENDROOT
BRANCH   1  15
HETATM   15  C   UNL     1     -42.005  58.050 -55.219  1.00  0.00     0.277 C 
HETATM   16  N   UNL     1     -42.671  57.464 -56.281  1.00  0.00    -0.321 N 
HETATM   17  H   UNL     1     -42.989  56.523 -56.068  1.00  0.00     0.169 HD
HETATM   18  O   UNL     1     -41.581  59.198 -55.168  1.00  0.00    -0.266 OA
BRANCH  16  19
HETATM   19  C   UNL     1     -42.983  58.021 -57.537  1.00  0.00     0.043 A 
HETATM   20  C   UNL     1     -44.277  58.546 -57.752  1.00  0.00    -0.035 A 
HETATM   21  C   UNL     1     -45.338  58.558 -56.682  1.00  0.00     0.050 C 
HETATM   22  C   UNL     1     -44.614  59.065 -59.017  1.00  0.00     0.012 A 
HETATM   23  C   UNL     1     -43.680  59.085 -60.049  1.00  0.00     0.043 A 
HETATM   24  C   UNL     1     -42.410  58.581 -59.821  1.00  0.00     0.118 A 
HETATM   25  C   UNL     1     -42.055  58.054 -58.584  1.00  0.00     0.072 A 
HETATM   26  F   UNL     1     -41.513  58.590 -60.817  1.00  0.00    -0.206 F 
ENDBRANCH  16  19
ENDBRANCH   1  15
BRANCH  12  27
HETATM   27  O   UNL     1     -39.293  50.392 -51.278  1.00  0.00    -0.356 OA
HETATM   28  C   UNL     1     -39.548  49.379 -52.243  1.00  0.00     0.210 C 
ENDBRANCH  12  27
TORSDOF 3
ENDMDL
MODEL 3
REMARK VINA RESULT:      -8.3      3.485      8.913
REMARK  3 active torsions:
REMARK  status: ('A' for Active; 'I' for Inactive)
REMARK    1  A    between atoms: C_3  and  N_4 
REMARK       I    between atoms: N_4  and  C_5 
REMARK    2  A    between atoms: C_5  and  C_6 
REMARK    3  A    between atoms: C_17  and  O_18 
ROOT
HETATM    1  C   UNL     1     -41.476  56.858 -51.080  1.00  0.00     0.153 A 
HETATM    2  N   UNL     1     -41.414  56.432 -49.796  1.00  0.00    -0.168 NA
HETATM    3  N   UNL     1     -41.081  55.127 -49.896  1.00  0.00    -0.276 N 
HETATM    4  H   UNL     1     -40.997  54.585 -49.044  1.00  0.00     0.189 HD
HETATM    5  C   UNL     1     -40.892  54.710 -51.177  1.00  0.00     0.069 A 
HETATM    6  C   UNL     1     -41.147  55.806 -51.971  1.00  0.00     0.007 A 
HETATM    7  C   UNL     1     -40.995  55.752 -53.451  1.00  0.00     0.048 C 
HETATM    8  C   UNL     1     -41.149  54.306 -53.978  1.00  0.00     0.044 C 
HETATM    9  C   UNL     1     -40.564  53.221 -53.080  1.00  0.00    -0.043 A 
HETATM   10  C   UNL     1     -40.496  53.406 -51.680  1.00  0.00    -0.001 A 
HETATM   11  C   UNL     1     -40.181  51.991 -53.629  1.00  0.00     0.044 A 
HETATM   12  C   UNL     1     -39.718  50.955 -52.812  1.00  0.00     0.068 A 
HETATM   13  C   UNL     1     -39.648  51.149 -51.432  1.00  0.00     0.037 A 
HETATM   14  C   UNL     1     -40.036  52.370 -50.864  1.00  0.00     0.017 A 
ENDROOT
BRANCH   1  15
HETATM   15  C   UNL     1     -41.819  58.256 -51.415  1.00  0.00     0.277 C 
HETATM   16  N   UNL     1     -43.051  58.616 -50.899  1.00  0.00    -0.321 N 
HETATM   17  H   UNL     1     -43.476  57.874 -50.351  1.00  0.00     0.169 HD
HETATM   18  O   UNL     1     -41.055  58.974 -52.047  1.00  0.00    -0.266 OA
BRANCH  16  19
HETATM   19  C   UNL     1     -43.719  59.853 -51.003  1.00  0.00     0.043 A 
HETATM   20  C   UNL     1     -44.650  60.043 -52.049  1.00  0.00    -0.035 A 
HETATM   21  C   UNL     1     -44.979  58.966 -53.051  1.00  0.00     0.050 C 
HETATM   22  C   UNL     1     -45.290  61.289 -52.190  1.00  0.00     0.012 A 
HETATM   23  C   UNL     1     -45.031  62.326 -51.298  1.00  0.00     0.043 A 
HETATM   24  C   UNL     1     -44.128  62.122 -50.268  1.00  0.00     0.118 A 
HETATM   25  C   UNL     1     -43.475  60.904 -50.112  1.00  0.00     0.072 A 
HETATM   26  F   UNL     1     -43.870  63.123 -49.415  1.00  0.00    -0.206 F 
ENDBRANCH  16  19
ENDBRANCH   1  15
BRANCH  12  27
HETATM   27  O   UNL     1     -39.372  49.814 -53.483  1.00  0.00    -0.356 OA
HETATM   28  C   UNL     1     -39.797  49.707 -54.835  1.00  0.00     0.210 C 
ENDBRANCH  12  27
TORSDOF 3
ENDMDL
MODEL 4
REMARK VINA RESULT:      -8.2      4.057      9.114
REMARK  3 active torsions:
REMARK  status: ('A' for Active; 'I' for Inactive)
REMARK    1  A    between atoms: C_3  and  N_4 
REMARK       I    between atoms: N_4  and  C_5 
REMARK    2  A    between atoms: C_5  and  C_6 
REMARK    3  A    between atoms: C_17  and  O_18 
ROOT
HETATM    1  C   UNL     1     -41.811  56.632 -54.323  1.00  0.00     0.153 A 
HETATM    2  N   UNL     1     -41.632  56.230 -55.603  1.00  0.00    -0.168 NA
HETATM    3  N   UNL     1     -41.121  54.986 -55.490  1.00  0.00    -0.276 N 
HETATM    4  H   UNL     1     -40.882  54.484 -56.338  1.00  0.00     0.189 HD
HETATM    5  C   UNL     1     -41.000  54.561 -54.203  1.00  0.00     0.069 A 
HETATM    6  C   UNL     1     -41.432  55.608 -53.420  1.00  0.00     0.007 A 
HETATM    7  C   UNL     1     -41.493  55.501 -51.937  1.00  0.00     0.048 C 
HETATM    8  C   UNL     1     -40.498  54.440 -51.409  1.00  0.00     0.044 C 
HETATM    9  C   UNL     1     -40.340  53.205 -52.288  1.00  0.00    -0.043 A 
HETATM   10  C   UNL     1     -40.531  53.287 -53.687  1.00  0.00    -0.001 A 
HETATM   11  C   UNL     1     -39.904  51.998 -51.725  1.00  0.00     0.044 A 
HETATM   12  C   UNL     1     -39.675  50.876 -52.526  1.00  0.00     0.068 A 
HETATM   13  C   UNL     1     -39.874  50.965 -53.905  1.00  0.00     0.037 A 
HETATM   14  C   UNL     1     -40.300  52.166 -54.486  1.00  0.00     0.017 A 
ENDROOT
BRANCH   1  15
HETATM   15  C   UNL     1     -42.362  57.966 -54.001  1.00  0.00     0.277 C 
HETATM   16  N   UNL     1     -43.715  57.904 -53.719  1.00  0.00    -0.321 N 
HETATM   17  H   UNL     1     -44.074  56.954 -53.743  1.00  0.00     0.169 HD
HETATM   18  O   UNL     1     -41.655  58.966 -53.970  1.00  0.00    -0.266 OA
BRANCH  16  19
HETATM   19  C   UNL     1     -44.588  58.954 -53.370  1.00  0.00     0.043 A 
HETATM   20  C   UNL     1     -45.160  58.970 -52.078  1.00  0.00    -0.035 A 
HETATM   21  C   UNL     1     -44.856  57.919 -51.041  1.00  0.00     0.050 C 
HETATM   22  C   UNL     1     -46.068  59.989 -51.734  1.00  0.00     0.012 A 
HETATM   23  C   UNL     1     -46.391  60.991 -52.645  1.00  0.00     0.043 A 
HETATM   24  C   UNL     1     -45.812  60.973 -53.903  1.00  0.00     0.118 A 
HETATM   25  C   UNL     1     -44.920  59.972 -54.272  1.00  0.00     0.072 A 
HETATM   26  F   UNL     1     -46.130  61.931 -54.785  1.00  0.00    -0.206 F 
ENDBRANCH  16  19
ENDBRANCH   1  15
BRANCH  12  27
HETATM   27  O   UNL     1     -39.260  49.765 -51.843  1.00  0.00    -0.356 OA
HETATM   28  C   UNL     1     -39.769  49.590 -50.528  1.00  0.00     0.210 C 
ENDBRANCH  12  27
TORSDOF 3
ENDMDL
MODEL 5
REMARK VINA RESULT:      -8.1      4.720      6.062
REMARK  3 active torsions:
REMARK  status: ('A' for Active; 'I' for Inactive)
REMARK    1  A    between atoms: C_3  and  N_4 
REMARK       I    between atoms: N_4  and  C_5 
REMARK    2  A    between atoms: C_5  and  C_6 
REMARK    3  A    between atoms: C_17  and  O_18 
ROOT
HETATM    1  C   UNL     1     -42.515  56.543 -54.988  1.00  0.00     0.153 A 
HETATM    2  N   UNL     1     -43.123  57.501 -54.250  1.00  0.00    -0.168 NA
HETATM    3  N   UNL     1     -44.064  58.007 -55.075  1.00  0.00    -0.276 N 
HETATM    4  H   UNL     1     -44.641  58.769 -54.738  1.00  0.00     0.189 HD
HETATM    5  C   UNL     1     -44.110  57.395 -56.290  1.00  0.00     0.069 A 
HETATM    6  C   UNL     1     -43.114  56.444 -56.270  1.00  0.00     0.007 A 
HETATM    7  C   UNL     1     -42.884  55.528 -57.419  1.00  0.00     0.048 C 
HETATM    8  C   UNL     1     -43.400  56.145 -58.740  1.00  0.00     0.044 C 
HETATM    9  C   UNL     1     -44.682  56.961 -58.619  1.00  0.00    -0.043 A 
HETATM   10  C   UNL     1     -44.999  57.631 -57.415  1.00  0.00    -0.001 A 
HETATM   11  C   UNL     1     -45.508  57.135 -59.737  1.00  0.00     0.044 A 
HETATM   12  C   UNL     1     -46.646  57.945 -59.669  1.00  0.00     0.068 A 
HETATM   13  C   UNL     1     -46.953  58.596 -58.473  1.00  0.00     0.037 A 
HETATM   14  C   UNL     1     -46.132  58.441 -57.347  1.00  0.00     0.017 A 
ENDROOT
BRANCH   1  15
HETATM   15  C   UNL     1     -41.404  55.735 -54.443  1.00  0.00     0.277 C 
HETATM   16  N   UNL     1     -41.835  54.485 -54.036  1.00  0.00    -0.321 N 
HETATM   17  H   UNL     1     -42.822  54.334 -54.223  1.00  0.00     0.169 HD
HETATM   18  O   UNL     1     -40.255  56.157 -54.410  1.00  0.00    -0.266 OA
BRANCH  16  19
HETATM   19  C   UNL     1     -41.081  53.438 -53.469  1.00  0.00     0.043 A 
HETATM   20  C   UNL     1     -40.828  53.450 -52.079  1.00  0.00    -0.035 A 
HETATM   21  C   UNL     1     -41.352  54.529 -51.167  1.00  0.00     0.050 C 
HETATM   22  C   UNL     1     -40.038  52.433 -51.509  1.00  0.00     0.012 A 
HETATM   23  C   UNL     1     -39.524  51.407 -52.296  1.00  0.00     0.043 A 
HETATM   24  C   UNL     1     -39.792  51.397 -53.654  1.00  0.00     0.118 A 
HETATM   25  C   UNL     1     -40.561  52.395 -54.244  1.00  0.00     0.072 A 
HETATM   26  F   UNL     1     -39.290  50.415 -54.415  1.00  0.00    -0.206 F 
ENDBRANCH  16  19
ENDBRANCH   1  15
BRANCH  12  27
HETATM   27  O   UNL     1     -47.363  58.017 -60.832  1.00  0.00    -0.356 OA
HETATM   28  C   UNL     1     -47.743  56.786 -61.432  1.00  0.00     0.210 C 
ENDBRANCH  12  27
TORSDOF 3
ENDMDL
MODEL 6
REMARK VINA RESULT:      -8.1     16.828     18.991
REMARK  3 active torsions:
REMARK  status: ('A' for Active; 'I' for Inactive)
REMARK    1  A    between atoms: C_3  and  N_4 
REMARK       I    between atoms: N_4  and  C_5 
REMARK    2  A    between atoms: C_5  and  C_6 
REMARK    3  A    between atoms: C_17  and  O_18 
ROOT
HETATM    1  C   UNL     1     -36.606  39.738 -52.644  1.00  0.00     0.153 A 
HETATM    2  N   UNL     1     -37.232  38.726 -52.000  1.00  0.00    -0.168 NA
HETATM    3  N   UNL     1     -36.377  38.381 -51.013  1.00  0.00    -0.276 N 
HETATM    4  H   UNL     1     -36.631  37.614 -50.402  1.00  0.00     0.189 HD
HETATM    5  C   UNL     1     -35.254  39.148 -50.975  1.00  0.00     0.069 A 
HETATM    6  C   UNL     1     -35.366  40.034 -52.023  1.00  0.00     0.007 A 
HETATM    7  C   UNL     1     -34.337  41.078 -52.278  1.00  0.00     0.048 C 
HETATM    8  C   UNL     1     -32.964  40.666 -51.699  1.00  0.00     0.044 C 
HETATM    9  C   UNL     1     -33.017  39.910 -50.376  1.00  0.00    -0.043 A 
HETATM   10  C   UNL     1     -34.135  39.108 -50.049  1.00  0.00    -0.001 A 
HETATM   11  C   UNL     1     -31.911  39.928 -49.516  1.00  0.00     0.044 A 
HETATM   12  C   UNL     1     -31.909  39.177 -48.336  1.00  0.00     0.068 A 
HETATM   13  C   UNL     1     -33.020  38.394 -48.020  1.00  0.00     0.037 A 
HETATM   14  C   UNL     1     -34.131  38.357 -48.873  1.00  0.00     0.017 A 
ENDROOT
BRANCH   1  15
HETATM   15  C   UNL     1     -37.217  40.408 -53.811  1.00  0.00     0.277 C 
HETATM   16  N   UNL     1     -36.569  40.074 -54.988  1.00  0.00    -0.321 N 
HETATM   17  H   UNL     1     -35.822  39.402 -54.843  1.00  0.00     0.169 HD
HETATM   18  O   UNL     1     -38.197  41.134 -53.699  1.00  0.00    -0.266 OA
BRANCH  16  19
HETATM   19  C   UNL     1     -36.853  40.506 -56.299  1.00  0.00     0.043 A 
HETATM   20  C   UNL     1     -36.184  41.643 -56.806  1.00  0.00    -0.035 A 
HETATM   21  C   UNL     1     -35.157  42.405 -56.010  1.00  0.00     0.050 C 
HETATM   22  C   UNL     1     -36.493  42.110 -58.099  1.00  0.00     0.012 A 
HETATM   23  C   UNL     1     -37.432  41.450 -58.887  1.00  0.00     0.043 A 
HETATM   24  C   UNL     1     -38.069  40.328 -58.384  1.00  0.00     0.118 A 
HETATM   25  C   UNL     1     -37.790  39.853 -57.108  1.00  0.00     0.072 A 
HETATM   26  F   UNL     1     -38.981  39.699 -59.138  1.00  0.00    -0.206 F 
ENDBRANCH  16  19
ENDBRANCH   1  15
BRANCH  12  27
HETATM   27  O   UNL     1     -30.768  39.295 -47.590  1.00  0.00    -0.356 OA
HETATM   28  C   UNL     1     -30.884  39.058 -46.194  1.00  0.00     0.210 C 
ENDBRANCH  12  27
TORSDOF 3
ENDMDL
MODEL 7
REMARK VINA RESULT:      -8.0     16.580     18.813
REMARK  3 active torsions:
REMARK  status: ('A' for Active; 'I' for Inactive)
REMARK    1  A    between atoms: C_3  and  N_4 
REMARK       I    between atoms: N_4  and  C_5 
REMARK    2  A    between atoms: C_5  and  C_6 
REMARK    3  A    between atoms: C_17  and  O_18 
ROOT
HETATM    1  C   UNL     1     -36.157  41.430 -53.934  1.00  0.00     0.153 A 
HETATM    2  N   UNL     1     -35.805  42.620 -53.394  1.00  0.00    -0.168 NA
HETATM    3  N   UNL     1     -35.030  42.288 -52.339  1.00  0.00    -0.276 N 
HETATM    4  H   UNL     1     -34.661  43.033 -51.759  1.00  0.00     0.189 HD
HETATM    5  C   UNL     1     -34.842  40.947 -52.202  1.00  0.00     0.069 A 
HETATM    6  C   UNL     1     -35.565  40.360 -53.216  1.00  0.00     0.007 A 
HETATM    7  C   UNL     1     -35.566  38.887 -53.424  1.00  0.00     0.048 C 
HETATM    8  C   UNL     1     -35.236  38.135 -52.113  1.00  0.00     0.044 C 
HETATM    9  C   UNL     1     -34.201  38.810 -51.220  1.00  0.00    -0.043 A 
HETATM   10  C   UNL     1     -34.053  40.216 -51.225  1.00  0.00    -0.001 A 
HETATM   11  C   UNL     1     -33.456  38.046 -50.313  1.00  0.00     0.044 A 
HETATM   12  C   UNL     1     -32.560  38.655 -49.429  1.00  0.00     0.068 A 
HETATM   13  C   UNL     1     -32.416  40.043 -49.447  1.00  0.00     0.037 A 
HETATM   14  C   UNL     1     -33.160  40.824 -50.341  1.00  0.00     0.017 A 
ENDROOT
BRANCH   1  15
HETATM   15  C   UNL     1     -37.022  41.349 -55.130  1.00  0.00     0.277 C 
HETATM   16  N   UNL     1     -36.280  41.188 -56.286  1.00  0.00    -0.321 N 
HETATM   17  H   UNL     1     -35.284  41.114 -56.102  1.00  0.00     0.169 HD
HETATM   18  O   UNL     1     -38.244  41.390 -55.047  1.00  0.00    -0.266 OA
BRANCH  16  19
HETATM   19  C   UNL     1     -36.737  41.072 -57.614  1.00  0.00     0.043 A 
HETATM   20  C   UNL     1     -37.061  39.792 -58.118  1.00  0.00    -0.035 A 
HETATM   21  C   UNL     1     -36.960  38.540 -57.285  1.00  0.00     0.050 C 
HETATM   22  C   UNL     1     -37.476  39.658 -59.457  1.00  0.00     0.012 A 
HETATM   23  C   UNL     1     -37.592  40.775 -60.280  1.00  0.00     0.043 A 
HETATM   24  C   UNL     1     -37.286  42.026 -59.770  1.00  0.00     0.118 A 
HETATM   25  C   UNL     1     -36.864  42.184 -58.454  1.00  0.00     0.072 A 
HETATM   26  F   UNL     1     -37.387  43.100 -60.564  1.00  0.00    -0.206 F 
ENDBRANCH  16  19
ENDBRANCH   1  15
BRANCH  12  27
HETATM   27  O   UNL     1     -31.896  37.787 -48.606  1.00  0.00    -0.356 OA
HETATM   28  C   UNL     1     -31.851  38.116 -47.224  1.00  0.00     0.210 C 
ENDBRANCH  12  27
TORSDOF 3
ENDMDL
MODEL 8
REMARK VINA RESULT:      -8.0      4.869      8.688
REMARK  3 active torsions:
REMARK  status: ('A' for Active; 'I' for Inactive)
REMARK    1  A    between atoms: C_3  and  N_4 
REMARK       I    between atoms: N_4  and  C_5 
REMARK    2  A    between atoms: C_5  and  C_6 
REMARK    3  A    between atoms: C_17  and  O_18 
ROOT
HETATM    1  C   UNL     1     -43.733  56.878 -54.255  1.00  0.00     0.153 A 
HETATM    2  N   UNL     1     -44.310  56.920 -53.031  1.00  0.00    -0.168 NA
HETATM    3  N   UNL     1     -43.696  55.935 -52.341  1.00  0.00    -0.276 N 
HETATM    4  H   UNL     1     -43.987  55.762 -51.386  1.00  0.00     0.189 HD
HETATM    5  C   UNL     1     -42.732  55.291 -53.053  1.00  0.00     0.069 A 
HETATM    6  C   UNL     1     -42.733  55.874 -54.301  1.00  0.00     0.007 A 
HETATM    7  C   UNL     1     -41.769  55.463 -55.357  1.00  0.00     0.048 C 
HETATM    8  C   UNL     1     -41.270  54.017 -55.130  1.00  0.00     0.044 C 
HETATM    9  C   UNL     1     -41.067  53.621 -53.672  1.00  0.00    -0.043 A 
HETATM   10  C   UNL     1     -41.841  54.217 -52.650  1.00  0.00    -0.001 A 
HETATM   11  C   UNL     1     -40.177  52.590 -53.345  1.00  0.00     0.044 A 
HETATM   12  C   UNL     1     -40.036  52.157 -52.023  1.00  0.00     0.068 A 
HETATM   13  C   UNL     1     -40.800  52.756 -51.021  1.00  0.00     0.037 A 
HETATM   14  C   UNL     1     -41.702  53.783 -51.330  1.00  0.00     0.017 A 
ENDROOT
BRANCH   1  15
HETATM   15  C   UNL     1     -44.131  57.811 -55.330  1.00  0.00     0.277 C 
HETATM   16  N   UNL     1     -44.317  57.153 -56.533  1.00  0.00    -0.321 N 
HETATM   17  H   UNL     1     -44.188  56.149 -56.451  1.00  0.00     0.169 HD
HETATM   18  O   UNL     1     -44.294  59.007 -55.119  1.00  0.00    -0.266 OA
BRANCH  16  19
HETATM   19  C   UNL     1     -44.695  57.692 -57.778  1.00  0.00     0.043 A 
HETATM   20  C   UNL     1     -43.694  57.974 -58.736  1.00  0.00    -0.035 A 
HETATM   21  C   UNL     1     -42.233  57.700 -58.490  1.00  0.00     0.050 C 
HETATM   22  C   UNL     1     -44.056  58.554 -59.967  1.00  0.00     0.012 A 
HETATM   23  C   UNL     1     -45.389  58.831 -60.258  1.00  0.00     0.043 A 
HETATM   24  C   UNL     1     -46.362  58.536 -59.317  1.00  0.00     0.118 A 
HETATM   25  C   UNL     1     -46.030  57.973 -58.090  1.00  0.00     0.072 A 
HETATM   26  F   UNL     1     -47.644  58.813 -59.592  1.00  0.00    -0.206 F 
ENDBRANCH  16  19
ENDBRANCH   1  15
BRANCH  12  27
HETATM   27  O   UNL     1     -39.127  51.149 -51.849  1.00  0.00    -0.356 OA
HETATM   28  C   UNL     1     -39.510  50.076 -51.000  1.00  0.00     0.210 C 
ENDBRANCH  12  27
TORSDOF 3
ENDMDL
MODEL 9
REMARK VINA RESULT:      -8.0     16.803     18.164
REMARK  3 active torsions:
REMARK  status: ('A' for Active; 'I' for Inactive)
REMARK    1  A    between atoms: C_3  and  N_4 
REMARK       I    between atoms: N_4  and  C_5 
REMARK    2  A    between atoms: C_5  and  C_6 
REMARK    3  A    between atoms: C_17  and  O_18 
ROOT
HETATM    1  C   UNL     1     -36.119  41.256 -52.798  1.00  0.00     0.153 A 
HETATM    2  N   UNL     1     -37.457  41.231 -52.594  1.00  0.00    -0.168 NA
HETATM    3  N   UNL     1     -37.982  41.199 -53.838  1.00  0.00    -0.276 N 
HETATM    4  H   UNL     1     -38.990  41.198 -53.935  1.00  0.00     0.189 HD
HETATM    5  C   UNL     1     -37.044  41.165 -54.823  1.00  0.00     0.069 A 
HETATM    6  C   UNL     1     -35.825  41.207 -54.185  1.00  0.00     0.007 A 
HETATM    7  C   UNL     1     -34.544  41.138 -54.939  1.00  0.00     0.048 C 
HETATM    8  C   UNL     1     -34.723  41.631 -56.394  1.00  0.00     0.044 C 
HETATM    9  C   UNL     1     -36.050  41.259 -57.047  1.00  0.00    -0.043 A 
HETATM   10  C   UNL     1     -37.215  41.089 -56.264  1.00  0.00    -0.001 A 
HETATM   11  C   UNL     1     -36.145  41.182 -58.443  1.00  0.00     0.044 A 
HETATM   12  C   UNL     1     -37.370  40.923 -59.064  1.00  0.00     0.068 A 
HETATM   13  C   UNL     1     -38.512  40.749 -58.282  1.00  0.00     0.037 A 
HETATM   14  C   UNL     1     -38.438  40.832 -56.885  1.00  0.00     0.017 A 
ENDROOT
BRANCH   1  15
HETATM   15  C   UNL     1     -35.165  41.297 -51.671  1.00  0.00     0.277 C 
HETATM   16  N   UNL     1     -34.722  40.030 -51.331  1.00  0.00    -0.321 N 
HETATM   17  H   UNL     1     -35.099  39.310 -51.941  1.00  0.00     0.169 HD
HETATM   18  O   UNL     1     -34.817  42.353 -51.157  1.00  0.00    -0.266 OA
BRANCH  16  19
HETATM   19  C   UNL     1     -33.816  39.659 -50.318  1.00  0.00     0.043 A 
HETATM   20  C   UNL     1     -32.441  39.942 -50.491  1.00  0.00    -0.035 A 
HETATM   21  C   UNL     1     -31.903  40.648 -51.708  1.00  0.00     0.050 C 
HETATM   22  C   UNL     1     -31.521  39.537 -49.506  1.00  0.00     0.012 A 
HETATM   23  C   UNL     1     -31.953  38.881 -48.356  1.00  0.00     0.043 A 
HETATM   24  C   UNL     1     -33.303  38.623 -48.192  1.00  0.00     0.118 A 
HETATM   25  C   UNL     1     -34.232  39.004 -49.154  1.00  0.00     0.072 A 
HETATM   26  F   UNL     1     -33.719  37.983 -47.090  1.00  0.00    -0.206 F 
ENDBRANCH  16  19
ENDBRANCH   1  15
BRANCH  12  27
HETATM   27  O   UNL     1     -37.313  40.867 -60.430  1.00  0.00    -0.356 OA
HETATM   28  C   UNL     1     -37.371  39.578 -61.026  1.00  0.00     0.210 C 
ENDBRANCH  12  27
TORSDOF 3
ENDMDL
MODEL 10
REMARK VINA RESULT:      -7.9      4.143      8.828
REMARK  3 active torsions:
REMARK  status: ('A' for Active; 'I' for Inactive)
REMARK    1  A    between atoms: C_3  and  N_4 
REMARK       I    between atoms: N_4  and  C_5 
REMARK    2  A    between atoms: C_5  and  C_6 
REMARK    3  A    between atoms: C_17  and  O_18 
ROOT
HETATM    1  C   UNL     1     -41.496  57.473 -53.259  1.00  0.00     0.153 A 
HETATM    2  N   UNL     1     -41.611  57.526 -51.912  1.00  0.00    -0.168 NA
HETATM    3  N   UNL     1     -41.335  56.268 -51.506  1.00  0.00    -0.276 N 
HETATM    4  H   UNL     1     -41.381  56.060 -50.516  1.00  0.00     0.189 HD
HETATM    5  C   UNL     1     -41.013  55.426 -52.525  1.00  0.00     0.069 A 
HETATM    6  C   UNL     1     -41.114  56.173 -53.677  1.00  0.00     0.007 A 
HETATM    7  C   UNL     1     -40.788  55.602 -55.012  1.00  0.00     0.048 C 
HETATM    8  C   UNL     1     -40.950  54.063 -55.018  1.00  0.00     0.044 C 
HETATM    9  C   UNL     1     -40.533  53.361 -53.730  1.00  0.00    -0.043 A 
HETATM   10  C   UNL     1     -40.625  54.026 -52.486  1.00  0.00    -0.001 A 
HETATM   11  C   UNL     1     -40.148  52.015 -53.761  1.00  0.00     0.044 A 
HETATM   12  C   UNL     1     -39.840  51.330 -52.582  1.00  0.00     0.068 A 
HETATM   13  C   UNL     1     -39.928  51.997 -51.359  1.00  0.00     0.037 A 
HETATM   14  C   UNL     1     -40.320  53.342 -51.308  1.00  0.00     0.017 A 
ENDROOT
BRANCH   1  15
HETATM   15  C   UNL     1     -41.725  58.665 -54.102  1.00  0.00     0.277 C 
HETATM   16  N   UNL     1     -42.858  58.526 -54.885  1.00  0.00    -0.321 N 
HETATM   17  H   UNL     1     -43.347  57.654 -54.709  1.00  0.00     0.169 HD
HETATM   18  O   UNL     1     -40.989  59.643 -54.051  1.00  0.00    -0.266 OA
BRANCH  16  19
HETATM   19  C   UNL     1     -43.402  59.438 -55.810  1.00  0.00     0.043 A 
HETATM   20  C   UNL     1     -43.137  59.259 -57.187  1.00  0.00    -0.035 A 
HETATM   21  C   UNL     1     -42.312  58.113 -57.714  1.00  0.00     0.050 C 
HETATM   22  C   UNL     1     -43.639  60.189 -58.117  1.00  0.00     0.012 A 
HETATM   23  C   UNL     1     -44.410  61.270 -57.697  1.00  0.00     0.043 A 
HETATM   24  C   UNL     1     -44.675  61.426 -56.346  1.00  0.00     0.118 A 
HETATM   25  C   UNL     1     -44.183  60.527 -55.406  1.00  0.00     0.072 A 
HETATM   26  F   UNL     1     -45.408  62.472 -55.940  1.00  0.00    -0.206 F 
ENDBRANCH  16  19
ENDBRANCH   1  15
BRANCH  12  27
HETATM   27  O   UNL     1     -39.474  50.025 -52.762  1.00  0.00    -0.356 OA
HETATM   28  C   UNL     1     -39.453  49.539 -54.098  1.00  0.00     0.210 C 
ENDBRANCH  12  27
TORSDOF 3
ENDMDL
