MODEL 1
REMARK VINA RESULT:      -8.5      0.000      0.000
REMARK  13 active torsions:
REMARK  status: ('A' for Active; 'I' for Inactive)
REMARK    1  A    between atoms: C_2  and  O_3 
REMARK    2  A    between atoms: O_3  and  C_4 
REMARK    3  A    between atoms: C_5  and  O_6 
REMARK    4  A    between atoms: C_9  and  C_10 
REMARK    5  A    between atoms: N_11  and  C_12 
REMARK    6  A    between atoms: C_12  and  C_13 
REMARK    7  A    between atoms: C_13  and  N_14 
REMARK    8  A    between atoms: C_20  and  O_21 
REMARK    9  A    between atoms: C_22  and  C_23 
REMARK   10  A    between atoms: C_23  and  C_24 
REMARK   11  A    between atoms: C_28  and  O_29 
REMARK   12  A    between atoms: O_29  and  C_30 
REMARK   13  A    between atoms: C_30  and  C_31 
ROOT
HETATM    1  C   UNL     1     -43.864  59.228 -58.153  1.00  0.00     0.161 A 
HETATM    2  N   UNL     1     -42.706  59.946 -58.676  1.00  0.00    -0.332 N 
HETATM    3  C   UNL     1     -41.753  60.123 -57.686  1.00  0.00     0.278 A 
HETATM    4  O   UNL     1     -40.687  60.702 -57.789  1.00  0.00    -0.265 OA
HETATM    5  C   UNL     1     -42.273  59.527 -56.440  1.00  0.00     0.146 A 
HETATM    6  C   UNL     1     -43.500  59.064 -56.710  1.00  0.00     0.059 A 
ENDROOT
BRANCH   6   7
HETATM    7  C   UNL     1     -44.390  58.421 -55.713  1.00  0.00     0.194 C 
HETATM    8  O   UNL     1     -45.468  58.903 -55.397  1.00  0.00    -0.287 OA
BRANCH   7   9
HETATM    9  C   UNL     1     -43.880  57.198 -55.034  1.00  0.00     0.021 A 
HETATM   10  C   UNL     1     -43.631  57.191 -53.651  1.00  0.00    -0.045 A 
HETATM   11  C   UNL     1     -43.997  58.342 -52.758  1.00  0.00     0.049 C 
HETATM   12  C   UNL     1     -43.034  56.052 -53.086  1.00  0.00     0.044 A 
HETATM   13  C   UNL     1     -42.678  54.956 -53.874  1.00  0.00     0.069 A 
HETATM   14  C   UNL     1     -43.005  54.938 -55.228  1.00  0.00     0.038 A 
HETATM   15  C   UNL     1     -43.615  56.053 -55.805  1.00  0.00     0.019 A 
BRANCH  13  16
HETATM   16  O   UNL     1     -42.058  53.931 -53.219  1.00  0.00    -0.347 OA
BRANCH  16  17
HETATM   17  C   UNL     1     -40.659  53.813 -53.481  1.00  0.00     0.214 C 
BRANCH  17  18
HETATM   18  C   UNL     1     -40.266  52.368 -53.302  1.00  0.00    -0.034 A 
HETATM   19  C   UNL     1     -40.434  51.456 -54.353  1.00  0.00     0.009 A 
HETATM   20  C   UNL     1     -40.090  50.114 -54.187  1.00  0.00     0.001 A 
HETATM   21  C   UNL     1     -39.580  49.669 -52.969  1.00  0.00     0.000 A 
HETATM   22  C   UNL     1     -39.416  50.565 -51.914  1.00  0.00     0.001 A 
HETATM   23  C   UNL     1     -39.756  51.909 -52.079  1.00  0.00     0.009 A 
ENDBRANCH  17  18
ENDBRANCH  16  17
ENDBRANCH  13  16
ENDBRANCH   7   9
ENDBRANCH   6   7
BRANCH   1  24
HETATM   24  C   UNL     1     -44.063  57.923 -58.900  1.00  0.00    -0.028 A 
HETATM   25  C   UNL     1     -42.998  57.046 -59.167  1.00  0.00     0.012 A 
HETATM   26  C   UNL     1     -43.209  55.865 -59.882  1.00  0.00     0.040 A 
HETATM   27  C   UNL     1     -44.489  55.538 -60.331  1.00  0.00     0.099 A 
HETATM   28  C   UNL     1     -45.571  56.373 -60.044  1.00  0.00     0.102 A 
HETATM   29  C   UNL     1     -45.346  57.566 -59.343  1.00  0.00     0.049 A 
BRANCH  27  30
HETATM   30  O   UNL     1     -44.650  54.411 -61.084  1.00  0.00    -0.358 OA
HETATM   31  H   UNL     1     -45.005  54.647 -61.959  1.00  0.00     0.218 HD
ENDBRANCH  27  30
BRANCH  28  32
HETATM   32  O   UNL     1     -46.879  56.188 -60.401  1.00  0.00    -0.349 OA
BRANCH  32  33
HETATM   33  C   UNL     1     -47.506  57.266 -61.104  1.00  0.00     0.171 C 
HETATM   34  C   UNL     1     -48.349  56.671 -62.220  1.00  0.00     0.034 C 
ENDBRANCH  32  33
ENDBRANCH  28  32
ENDBRANCH   1  24
BRANCH   5  35
HETATM   35  O   UNL     1     -41.605  59.563 -55.257  1.00  0.00    -0.355 OA
HETATM   36  H   UNL     1     -41.434  60.501 -55.045  1.00  0.00     0.218 HD
ENDBRANCH   5  35
BRANCH   2  37
HETATM   37  C   UNL     1     -42.812  60.899 -59.782  1.00  0.00     0.155 C 
BRANCH  37  38
HETATM   38  C   UNL     1     -42.300  60.372 -61.129  1.00  0.00     0.254 C 
BRANCH  38  39
HETATM   39  N   UNL     1     -41.379  61.366 -61.806  1.00  0.00    -0.077 N 
HETATM   40  H   UNL     1     -40.574  60.823 -62.147  1.00  0.00     0.279 HD
HETATM   41  C   UNL     1     -42.033  61.987 -63.010  1.00  0.00     0.269 C 
HETATM   42  C   UNL     1     -40.831  62.413 -60.874  1.00  0.00     0.269 C 
ENDBRANCH  38  39
ENDBRANCH  37  38
ENDBRANCH   2  37
TORSDOF 13
ENDMDL
MODEL 2
REMARK VINA RESULT:      -8.3      1.276      2.258
REMARK  13 active torsions:
REMARK  status: ('A' for Active; 'I' for Inactive)
REMARK    1  A    between atoms: C_2  and  O_3 
REMARK    2  A    between atoms: O_3  and  C_4 
REMARK    3  A    between atoms: C_5  and  O_6 
REMARK    4  A    between atoms: C_9  and  C_10 
REMARK    5  A    between atoms: N_11  and  C_12 
REMARK    6  A    between atoms: C_12  and  C_13 
REMARK    7  A    between atoms: C_13  and  N_14 
REMARK    8  A    between atoms: C_20  and  O_21 
REMARK    9  A    between atoms: C_22  and  C_23 
REMARK   10  A    between atoms: C_23  and  C_24 
REMARK   11  A    between atoms: C_28  and  O_29 
REMARK   12  A    between atoms: O_29  and  C_30 
REMARK   13  A    between atoms: C_30  and  C_31 
ROOT
HETATM    1  C   UNL     1     -44.371  60.264 -56.747  1.00  0.00     0.161 A 
HETATM    2  N   UNL     1     -43.292  60.804 -57.568  1.00  0.00    -0.332 N 
HETATM    3  C   UNL     1     -42.063  60.580 -56.969  1.00  0.00     0.278 A 
HETATM    4  O   UNL     1     -40.971  60.927 -57.382  1.00  0.00    -0.265 OA
HETATM    5  C   UNL     1     -42.299  59.881 -55.690  1.00  0.00     0.146 A 
HETATM    6  C   UNL     1     -43.625  59.752 -55.553  1.00  0.00     0.059 A 
ENDROOT
BRANCH   6   7
HETATM    7  C   UNL     1     -44.288  59.136 -54.379  1.00  0.00     0.194 C 
HETATM    8  O   UNL     1     -45.102  59.744 -53.699  1.00  0.00    -0.287 OA
BRANCH   7   9
HETATM    9  C   UNL     1     -43.859  57.762 -53.999  1.00  0.00     0.021 A 
HETATM   10  C   UNL     1     -43.137  57.534 -52.814  1.00  0.00    -0.045 A 
HETATM   11  C   UNL     1     -42.888  58.614 -51.799  1.00  0.00     0.049 C 
HETATM   12  C   UNL     1     -42.651  56.240 -52.567  1.00  0.00     0.044 A 
HETATM   13  C   UNL     1     -42.859  55.204 -53.478  1.00  0.00     0.069 A 
HETATM   14  C   UNL     1     -43.646  55.418 -54.607  1.00  0.00     0.038 A 
HETATM   15  C   UNL     1     -44.154  56.693 -54.861  1.00  0.00     0.019 A 
BRANCH  13  16
HETATM   16  O   UNL     1     -42.294  54.004 -53.151  1.00  0.00    -0.347 OA
BRANCH  16  17
HETATM   17  C   UNL     1     -40.871  53.963 -53.265  1.00  0.00     0.214 C 
BRANCH  17  18
HETATM   18  C   UNL     1     -40.435  52.521 -53.207  1.00  0.00    -0.034 A 
HETATM   19  C   UNL     1     -39.871  52.001 -52.033  1.00  0.00     0.009 A 
HETATM   20  C   UNL     1     -39.449  50.672 -51.979  1.00  0.00     0.001 A 
HETATM   21  C   UNL     1     -39.579  49.852 -53.098  1.00  0.00     0.000 A 
HETATM   22  C   UNL     1     -40.130  50.359 -54.273  1.00  0.00     0.001 A 
HETATM   23  C   UNL     1     -40.556  51.688 -54.328  1.00  0.00     0.009 A 
ENDBRANCH  17  18
ENDBRANCH  16  17
ENDBRANCH  13  16
ENDBRANCH   7   9
ENDBRANCH   6   7
BRANCH   1  24
HETATM   24  C   UNL     1     -45.138  59.200 -57.508  1.00  0.00    -0.028 A 
HETATM   25  C   UNL     1     -46.530  59.049 -57.383  1.00  0.00     0.012 A 
HETATM   26  C   UNL     1     -47.203  58.040 -58.076  1.00  0.00     0.040 A 
HETATM   27  C   UNL     1     -46.496  57.173 -58.911  1.00  0.00     0.099 A 
HETATM   28  C   UNL     1     -45.118  57.327 -59.082  1.00  0.00     0.102 A 
HETATM   29  C   UNL     1     -44.449  58.330 -58.367  1.00  0.00     0.049 A 
BRANCH  27  30
HETATM   30  O   UNL     1     -47.173  56.157 -59.521  1.00  0.00    -0.358 OA
HETATM   31  H   UNL     1     -46.724  55.312 -59.346  1.00  0.00     0.218 HD
ENDBRANCH  27  30
BRANCH  28  32
HETATM   32  O   UNL     1     -44.291  56.572 -59.868  1.00  0.00    -0.349 OA
BRANCH  32  33
HETATM   33  C   UNL     1     -43.621  55.482 -59.225  1.00  0.00     0.171 C 
HETATM   34  C   UNL     1     -44.374  54.205 -59.559  1.00  0.00     0.034 C 
ENDBRANCH  32  33
ENDBRANCH  28  32
ENDBRANCH   1  24
BRANCH   5  35
HETATM   35  O   UNL     1     -41.305  59.547 -54.826  1.00  0.00    -0.355 OA
HETATM   36  H   UNL     1     -41.081  60.346 -54.312  1.00  0.00     0.218 HD
ENDBRANCH   5  35
BRANCH   2  37
HETATM   37  C   UNL     1     -43.485  61.951 -58.456  1.00  0.00     0.155 C 
BRANCH  37  38
HETATM   38  C   UNL     1     -43.378  61.626 -59.951  1.00  0.00     0.254 C 
BRANCH  38  39
HETATM   39  N   UNL     1     -41.983  61.169 -60.327  1.00  0.00    -0.077 N 
HETATM   40  H   UNL     1     -41.433  61.190 -59.457  1.00  0.00     0.279 HD
HETATM   41  C   UNL     1     -41.986  59.745 -60.811  1.00  0.00     0.269 C 
HETATM   42  C   UNL     1     -41.290  62.083 -61.301  1.00  0.00     0.269 C 
ENDBRANCH  38  39
ENDBRANCH  37  38
ENDBRANCH   2  37
TORSDOF 13
ENDMDL
MODEL 3
REMARK VINA RESULT:      -8.2      2.042      5.014
REMARK  13 active torsions:
REMARK  status: ('A' for Active; 'I' for Inactive)
REMARK    1  A    between atoms: C_2  and  O_3 
REMARK    2  A    between atoms: O_3  and  C_4 
REMARK    3  A    between atoms: C_5  and  O_6 
REMARK    4  A    between atoms: C_9  and  C_10 
REMARK    5  A    between atoms: N_11  and  C_12 
REMARK    6  A    between atoms: C_12  and  C_13 
REMARK    7  A    between atoms: C_13  and  N_14 
REMARK    8  A    between atoms: C_20  and  O_21 
REMARK    9  A    between atoms: C_22  and  C_23 
REMARK   10  A    between atoms: C_23  and  C_24 
REMARK   11  A    between atoms: C_28  and  O_29 
REMARK   12  A    between atoms: O_29  and  C_30 
REMARK   13  A    between atoms: C_30  and  C_31 
ROOT
HETATM    1  C   UNL     1     -43.961  58.671 -57.698  1.00  0.00     0.161 A 
HETATM    2  N   UNL     1     -44.749  58.565 -58.923  1.00  0.00    -0.332 N 
HETATM    3  C   UNL     1     -46.053  58.196 -58.635  1.00  0.00     0.278 A 
HETATM    4  O   UNL     1     -46.953  57.999 -59.431  1.00  0.00    -0.265 OA
HETATM    5  C   UNL     1     -46.167  58.026 -57.173  1.00  0.00     0.146 A 
HETATM    6  C   UNL     1     -44.952  58.252 -56.656  1.00  0.00     0.059 A 
ENDROOT
BRANCH   6   7
HETATM    7  C   UNL     1     -44.623  58.145 -55.214  1.00  0.00     0.194 C 
HETATM    8  O   UNL     1     -45.124  58.882 -54.377  1.00  0.00    -0.287 OA
BRANCH   7   9
HETATM    9  C   UNL     1     -43.580  57.156 -54.826  1.00  0.00     0.021 A 
HETATM   10  C   UNL     1     -42.260  57.564 -54.567  1.00  0.00    -0.045 A 
HETATM   11  C   UNL     1     -41.856  59.011 -54.517  1.00  0.00     0.049 C 
HETATM   12  C   UNL     1     -41.291  56.577 -54.327  1.00  0.00     0.044 A 
HETATM   13  C   UNL     1     -41.618  55.220 -54.360  1.00  0.00     0.069 A 
HETATM   14  C   UNL     1     -42.943  54.829 -54.535  1.00  0.00     0.038 A 
HETATM   15  C   UNL     1     -43.925  55.796 -54.756  1.00  0.00     0.019 A 
BRANCH  13  16
HETATM   16  O   UNL     1     -40.580  54.355 -54.163  1.00  0.00    -0.347 OA
BRANCH  16  17
HETATM   17  C   UNL     1     -40.481  53.834 -52.836  1.00  0.00     0.214 C 
BRANCH  17  18
HETATM   18  C   UNL     1     -40.163  52.362 -52.931  1.00  0.00    -0.034 A 
HETATM   19  C   UNL     1     -40.307  51.687 -54.150  1.00  0.00     0.009 A 
HETATM   20  C   UNL     1     -40.033  50.321 -54.239  1.00  0.00     0.001 A 
HETATM   21  C   UNL     1     -39.619  49.617 -53.111  1.00  0.00     0.000 A 
HETATM   22  C   UNL     1     -39.481  50.275 -51.890  1.00  0.00     0.001 A 
HETATM   23  C   UNL     1     -39.752  51.643 -51.800  1.00  0.00     0.009 A 
ENDBRANCH  17  18
ENDBRANCH  16  17
ENDBRANCH  13  16
ENDBRANCH   7   9
ENDBRANCH   6   7
BRANCH   1  24
HETATM   24  C   UNL     1     -43.433  60.082 -57.526  1.00  0.00    -0.028 A 
HETATM   25  C   UNL     1     -44.210  61.106 -56.957  1.00  0.00     0.012 A 
HETATM   26  C   UNL     1     -43.704  62.403 -56.838  1.00  0.00     0.040 A 
HETATM   27  C   UNL     1     -42.411  62.693 -57.277  1.00  0.00     0.099 A 
HETATM   28  C   UNL     1     -41.605  61.683 -57.810  1.00  0.00     0.102 A 
HETATM   29  C   UNL     1     -42.129  60.391 -57.944  1.00  0.00     0.049 A 
BRANCH  27  30
HETATM   30  O   UNL     1     -41.972  63.983 -57.208  1.00  0.00    -0.358 OA
HETATM   31  H   UNL     1     -42.714  64.592 -57.362  1.00  0.00     0.218 HD
ENDBRANCH  27  30
BRANCH  28  32
HETATM   32  O   UNL     1     -40.323  61.804 -58.271  1.00  0.00    -0.349 OA
BRANCH  32  33
HETATM   33  C   UNL     1     -40.162  62.410 -59.558  1.00  0.00     0.171 C 
HETATM   34  C   UNL     1     -39.164  63.547 -59.420  1.00  0.00     0.034 C 
ENDBRANCH  32  33
ENDBRANCH  28  32
ENDBRANCH   1  24
BRANCH   5  35
HETATM   35  O   UNL     1     -47.307  57.624 -56.553  1.00  0.00    -0.355 OA
HETATM   36  H   UNL     1     -47.265  57.937 -55.629  1.00  0.00     0.218 HD
ENDBRANCH   5  35
BRANCH   2  37
HETATM   37  C   UNL     1     -44.148  58.215 -60.210  1.00  0.00     0.155 C 
BRANCH  37  38
HETATM   38  C   UNL     1     -42.967  57.240 -60.119  1.00  0.00     0.254 C 
BRANCH  38  39
HETATM   39  N   UNL     1     -43.433  55.799 -60.065  1.00  0.00    -0.077 N 
HETATM   40  H   UNL     1     -42.706  55.246 -60.540  1.00  0.00     0.279 HD
HETATM   41  C   UNL     1     -43.509  55.302 -58.648  1.00  0.00     0.269 C 
HETATM   42  C   UNL     1     -44.719  55.553 -60.808  1.00  0.00     0.269 C 
ENDBRANCH  38  39
ENDBRANCH  37  38
ENDBRANCH   2  37
TORSDOF 13
ENDMDL
MODEL 4
REMARK VINA RESULT:      -8.0      2.306      3.419
REMARK  13 active torsions:
REMARK  status: ('A' for Active; 'I' for Inactive)
REMARK    1  A    between atoms: C_2  and  O_3 
REMARK    2  A    between atoms: O_3  and  C_4 
REMARK    3  A    between atoms: C_5  and  O_6 
REMARK    4  A    between atoms: C_9  and  C_10 
REMARK    5  A    between atoms: N_11  and  C_12 
REMARK    6  A    between atoms: C_12  and  C_13 
REMARK    7  A    between atoms: C_13  and  N_14 
REMARK    8  A    between atoms: C_20  and  O_21 
REMARK    9  A    between atoms: C_22  and  C_23 
REMARK   10  A    between atoms: C_23  and  C_24 
REMARK   11  A    between atoms: C_28  and  O_29 
REMARK   12  A    between atoms: O_29  and  C_30 
REMARK   13  A    between atoms: C_30  and  C_31 
ROOT
HETATM    1  C   UNL     1     -44.232  58.402 -56.000  1.00  0.00     0.161 A 
HETATM    2  N   UNL     1     -45.428  59.174 -56.326  1.00  0.00    -0.332 N 
HETATM    3  C   UNL     1     -45.418  60.392 -55.667  1.00  0.00     0.278 A 
HETATM    4  O   UNL     1     -46.277  61.253 -55.704  1.00  0.00    -0.265 OA
HETATM    5  C   UNL     1     -44.191  60.458 -54.849  1.00  0.00     0.146 A 
HETATM    6  C   UNL     1     -43.549  59.294 -55.010  1.00  0.00     0.059 A 
ENDROOT
BRANCH   6   7
HETATM    7  C   UNL     1     -42.283  58.935 -54.327  1.00  0.00     0.194 C 
HETATM    8  O   UNL     1     -41.321  59.690 -54.302  1.00  0.00    -0.287 OA
BRANCH   7   9
HETATM    9  C   UNL     1     -42.189  57.569 -53.742  1.00  0.00     0.021 A 
HETATM   10  C   UNL     1     -42.717  57.293 -52.469  1.00  0.00    -0.045 A 
HETATM   11  C   UNL     1     -43.525  58.294 -51.693  1.00  0.00     0.049 C 
HETATM   12  C   UNL     1     -42.492  56.022 -51.915  1.00  0.00     0.044 A 
HETATM   13  C   UNL     1     -41.749  55.057 -52.597  1.00  0.00     0.069 A 
HETATM   14  C   UNL     1     -41.303  55.311 -53.892  1.00  0.00     0.038 A 
HETATM   15  C   UNL     1     -41.533  56.561 -54.468  1.00  0.00     0.019 A 
BRANCH  13  16
HETATM   16  O   UNL     1     -41.555  53.879 -51.934  1.00  0.00    -0.347 OA
BRANCH  16  17
HETATM   17  C   UNL     1     -40.186  53.529 -51.726  1.00  0.00     0.214 C 
BRANCH  17  18
HETATM   18  C   UNL     1     -39.968  52.138 -52.265  1.00  0.00    -0.034 A 
HETATM   19  C   UNL     1     -40.035  51.897 -53.644  1.00  0.00     0.009 A 
HETATM   20  C   UNL     1     -39.853  50.608 -54.147  1.00  0.00     0.001 A 
HETATM   21  C   UNL     1     -39.608  49.547 -53.278  1.00  0.00     0.000 A 
HETATM   22  C   UNL     1     -39.547  49.772 -51.904  1.00  0.00     0.001 A 
HETATM   23  C   UNL     1     -39.726  51.062 -51.399  1.00  0.00     0.009 A 
ENDBRANCH  17  18
ENDBRANCH  16  17
ENDBRANCH  13  16
ENDBRANCH   7   9
ENDBRANCH   6   7
BRANCH   1  24
HETATM   24  C   UNL     1     -43.423  58.121 -57.251  1.00  0.00    -0.028 A 
HETATM   25  C   UNL     1     -42.532  59.065 -57.792  1.00  0.00     0.012 A 
HETATM   26  C   UNL     1     -41.822  58.787 -58.962  1.00  0.00     0.040 A 
HETATM   27  C   UNL     1     -41.983  57.557 -59.603  1.00  0.00     0.099 A 
HETATM   28  C   UNL     1     -42.832  56.587 -59.064  1.00  0.00     0.102 A 
HETATM   29  C   UNL     1     -43.556  56.884 -57.901  1.00  0.00     0.049 A 
BRANCH  27  30
HETATM   30  O   UNL     1     -41.326  57.343 -60.780  1.00  0.00    -0.358 OA
HETATM   31  H   UNL     1     -41.659  57.954 -61.459  1.00  0.00     0.218 HD
ENDBRANCH  27  30
BRANCH  28  32
HETATM   32  O   UNL     1     -43.087  55.339 -59.563  1.00  0.00    -0.349 OA
BRANCH  32  33
HETATM   33  C   UNL     1     -44.464  54.957 -59.650  1.00  0.00     0.171 C 
HETATM   34  C   UNL     1     -44.870  54.993 -61.113  1.00  0.00     0.034 C 
ENDBRANCH  32  33
ENDBRANCH  28  32
ENDBRANCH   1  24
BRANCH   5  35
HETATM   35  O   UNL     1     -43.888  61.506 -54.038  1.00  0.00    -0.355 OA
HETATM   36  H   UNL     1     -42.949  61.419 -53.785  1.00  0.00     0.218 HD
ENDBRANCH   5  35
BRANCH   2  37
HETATM   37  C   UNL     1     -46.695  58.536 -56.686  1.00  0.00     0.155 C 
BRANCH  37  38
HETATM   38  C   UNL     1     -47.260  58.962 -58.048  1.00  0.00     0.254 C 
BRANCH  38  39
HETATM   39  N   UNL     1     -46.362  58.525 -59.188  1.00  0.00    -0.077 N 
HETATM   40  H   UNL     1     -45.652  57.907 -58.771  1.00  0.00     0.279 HD
HETATM   41  C   UNL     1     -47.120  57.707 -60.197  1.00  0.00     0.269 C 
HETATM   42  C   UNL     1     -45.620  59.659 -59.841  1.00  0.00     0.269 C 
ENDBRANCH  38  39
ENDBRANCH  37  38
ENDBRANCH   2  37
TORSDOF 13
ENDMDL
MODEL 5
REMARK VINA RESULT:      -7.8      3.740      6.123
REMARK  13 active torsions:
REMARK  status: ('A' for Active; 'I' for Inactive)
REMARK    1  A    between atoms: C_2  and  O_3 
REMARK    2  A    between atoms: O_3  and  C_4 
REMARK    3  A    between atoms: C_5  and  O_6 
REMARK    4  A    between atoms: C_9  and  C_10 
REMARK    5  A    between atoms: N_11  and  C_12 
REMARK    6  A    between atoms: C_12  and  C_13 
REMARK    7  A    between atoms: C_13  and  N_14 
REMARK    8  A    between atoms: C_20  and  O_21 
REMARK    9  A    between atoms: C_22  and  C_23 
REMARK   10  A    between atoms: C_23  and  C_24 
REMARK   11  A    between atoms: C_28  and  O_29 
REMARK   12  A    between atoms: O_29  and  C_30 
REMARK   13  A    between atoms: C_30  and  C_31 
ROOT
HETATM    1  C   UNL     1     -43.826  59.901 -51.654  1.00  0.00     0.161 A 
HETATM    2  N   UNL     1     -42.675  60.687 -51.221  1.00  0.00    -0.332 N 
HETATM    3  C   UNL     1     -41.675  59.862 -50.734  1.00  0.00     0.278 A 
HETATM    4  O   UNL     1     -40.601  60.204 -50.274  1.00  0.00    -0.265 OA
HETATM    5  C   UNL     1     -42.153  58.468 -50.816  1.00  0.00     0.146 A 
HETATM    6  C   UNL     1     -43.402  58.509 -51.297  1.00  0.00     0.059 A 
ENDROOT
BRANCH   6   7
HETATM    7  C   UNL     1     -44.261  57.318 -51.498  1.00  0.00     0.194 C 
HETATM    8  O   UNL     1     -45.339  57.190 -50.934  1.00  0.00    -0.287 OA
BRANCH   7   9
HETATM    9  C   UNL     1     -43.720  56.226 -52.353  1.00  0.00     0.021 A 
HETATM   10  C   UNL     1     -43.317  55.002 -51.791  1.00  0.00    -0.045 A 
HETATM   11  C   UNL     1     -43.539  54.665 -50.344  1.00  0.00     0.049 C 
HETATM   12  C   UNL     1     -42.700  54.056 -52.625  1.00  0.00     0.044 A 
HETATM   13  C   UNL     1     -42.473  54.322 -53.976  1.00  0.00     0.069 A 
HETATM   14  C   UNL     1     -42.952  55.501 -54.542  1.00  0.00     0.038 A 
HETATM   15  C   UNL     1     -43.584  56.447 -53.734  1.00  0.00     0.019 A 
BRANCH  13  16
HETATM   16  O   UNL     1     -41.819  53.345 -54.672  1.00  0.00    -0.347 OA
BRANCH  16  17
HETATM   17  C   UNL     1     -40.408  53.301 -54.457  1.00  0.00     0.214 C 
BRANCH  17  18
HETATM   18  C   UNL     1     -40.082  52.025 -53.722  1.00  0.00    -0.034 A 
HETATM   19  C   UNL     1     -40.112  50.796 -54.396  1.00  0.00     0.009 A 
HETATM   20  C   UNL     1     -39.831  49.610 -53.717  1.00  0.00     0.001 A 
HETATM   21  C   UNL     1     -39.523  49.639 -52.359  1.00  0.00     0.000 A 
HETATM   22  C   UNL     1     -39.498  50.853 -51.676  1.00  0.00     0.001 A 
HETATM   23  C   UNL     1     -39.776  52.042 -52.354  1.00  0.00     0.009 A 
ENDBRANCH  17  18
ENDBRANCH  16  17
ENDBRANCH  13  16
ENDBRANCH   7   9
ENDBRANCH   6   7
BRANCH   1  24
HETATM   24  C   UNL     1     -44.090  60.113 -53.132  1.00  0.00    -0.028 A 
HETATM   25  C   UNL     1     -45.335  60.555 -53.612  1.00  0.00     0.012 A 
HETATM   26  C   UNL     1     -45.556  60.713 -54.982  1.00  0.00     0.040 A 
HETATM   27  C   UNL     1     -44.533  60.442 -55.892  1.00  0.00     0.099 A 
HETATM   28  C   UNL     1     -43.274  60.039 -55.437  1.00  0.00     0.102 A 
HETATM   29  C   UNL     1     -43.069  59.864 -54.062  1.00  0.00     0.049 A 
BRANCH  27  30
HETATM   30  O   UNL     1     -44.801  60.542 -57.226  1.00  0.00    -0.358 OA
HETATM   31  H   UNL     1     -44.076  60.144 -57.739  1.00  0.00     0.218 HD
ENDBRANCH  27  30
BRANCH  28  32
HETATM   32  O   UNL     1     -42.173  59.748 -56.196  1.00  0.00    -0.349 OA
BRANCH  32  33
HETATM   33  C   UNL     1     -42.101  58.423 -56.732  1.00  0.00     0.171 C 
HETATM   34  C   UNL     1     -42.072  58.531 -58.247  1.00  0.00     0.034 C 
ENDBRANCH  32  33
ENDBRANCH  28  32
ENDBRANCH   1  24
BRANCH   5  35
HETATM   35  O   UNL     1     -41.431  57.402 -50.378  1.00  0.00    -0.355 OA
HETATM   36  H   UNL     1     -42.018  56.861 -49.815  1.00  0.00     0.218 HD
ENDBRANCH   5  35
BRANCH   2  37
HETATM   37  C   UNL     1     -42.807  62.060 -50.732  1.00  0.00     0.155 C 
BRANCH  37  38
HETATM   38  C   UNL     1     -44.177  62.392 -50.125  1.00  0.00     0.254 C 
BRANCH  38  39
HETATM   39  N   UNL     1     -44.881  63.489 -50.898  1.00  0.00    -0.077 N 
HETATM   40  H   UNL     1     -44.836  64.329 -50.306  1.00  0.00     0.279 HD
HETATM   41  C   UNL     1     -44.154  63.811 -52.175  1.00  0.00     0.269 C 
HETATM   42  C   UNL     1     -46.339  63.211 -51.147  1.00  0.00     0.269 C 
ENDBRANCH  38  39
ENDBRANCH  37  38
ENDBRANCH   2  37
TORSDOF 13
ENDMDL
MODEL 6
REMARK VINA RESULT:      -7.8      4.276      8.755
REMARK  13 active torsions:
REMARK  status: ('A' for Active; 'I' for Inactive)
REMARK    1  A    between atoms: C_2  and  O_3 
REMARK    2  A    between atoms: O_3  and  C_4 
REMARK    3  A    between atoms: C_5  and  O_6 
REMARK    4  A    between atoms: C_9  and  C_10 
REMARK    5  A    between atoms: N_11  and  C_12 
REMARK    6  A    between atoms: C_12  and  C_13 
REMARK    7  A    between atoms: C_13  and  N_14 
REMARK    8  A    between atoms: C_20  and  O_21 
REMARK    9  A    between atoms: C_22  and  C_23 
REMARK   10  A    between atoms: C_23  and  C_24 
REMARK   11  A    between atoms: C_28  and  O_29 
REMARK   12  A    between atoms: O_29  and  C_30 
REMARK   13  A    between atoms: C_30  and  C_31 
ROOT
HETATM    1  C   UNL     1     -41.658  56.247 -53.940  1.00  0.00     0.161 A 
HETATM    2  N   UNL     1     -41.884  54.917 -53.383  1.00  0.00    -0.332 N 
HETATM    3  C   UNL     1     -41.686  54.921 -52.012  1.00  0.00     0.278 A 
HETATM    4  O   UNL     1     -41.770  53.971 -51.256  1.00  0.00    -0.265 OA
HETATM    5  C   UNL     1     -41.295  56.287 -51.611  1.00  0.00     0.146 A 
HETATM    6  C   UNL     1     -41.235  57.021 -52.729  1.00  0.00     0.059 A 
ENDROOT
BRANCH   6   7
HETATM    7  C   UNL     1     -40.838  58.450 -52.772  1.00  0.00     0.194 C 
HETATM    8  O   UNL     1     -39.774  58.815 -53.251  1.00  0.00    -0.287 OA
BRANCH   7   9
HETATM    9  C   UNL     1     -41.753  59.429 -52.124  1.00  0.00     0.021 A 
HETATM   10  C   UNL     1     -41.448  59.978 -50.866  1.00  0.00    -0.045 A 
HETATM   11  C   UNL     1     -40.137  59.734 -50.174  1.00  0.00     0.049 C 
HETATM   12  C   UNL     1     -42.404  60.800 -50.247  1.00  0.00     0.044 A 
HETATM   13  C   UNL     1     -43.636  61.057 -50.851  1.00  0.00     0.069 A 
HETATM   14  C   UNL     1     -43.895  60.578 -52.134  1.00  0.00     0.038 A 
HETATM   15  C   UNL     1     -42.950  59.775 -52.774  1.00  0.00     0.019 A 
BRANCH  13  16
HETATM   16  O   UNL     1     -44.502  61.827 -50.129  1.00  0.00    -0.347 OA
BRANCH  16  17
HETATM   17  C   UNL     1     -45.354  61.099 -49.243  1.00  0.00     0.214 C 
BRANCH  17  18
HETATM   18  C   UNL     1     -45.231  61.705 -47.867  1.00  0.00    -0.034 A 
HETATM   19  C   UNL     1     -45.102  60.879 -46.742  1.00  0.00     0.009 A 
HETATM   20  C   UNL     1     -45.007  61.434 -45.465  1.00  0.00     0.001 A 
HETATM   21  C   UNL     1     -45.045  62.816 -45.299  1.00  0.00     0.000 A 
HETATM   22  C   UNL     1     -45.182  63.648 -46.409  1.00  0.00     0.001 A 
HETATM   23  C   UNL     1     -45.274  63.095 -47.688  1.00  0.00     0.009 A 
ENDBRANCH  17  18
ENDBRANCH  16  17
ENDBRANCH  13  16
ENDBRANCH   7   9
ENDBRANCH   6   7
BRANCH   1  24
HETATM   24  C   UNL     1     -42.918  56.767 -54.605  1.00  0.00    -0.028 A 
HETATM   25  C   UNL     1     -44.145  56.843 -53.924  1.00  0.00     0.012 A 
HETATM   26  C   UNL     1     -45.294  57.299 -54.573  1.00  0.00     0.040 A 
HETATM   27  C   UNL     1     -45.232  57.698 -55.909  1.00  0.00     0.099 A 
HETATM   28  C   UNL     1     -44.015  57.670 -56.596  1.00  0.00     0.102 A 
HETATM   29  C   UNL     1     -42.872  57.190 -55.942  1.00  0.00     0.049 A 
BRANCH  27  30
HETATM   30  O   UNL     1     -46.385  58.075 -56.533  1.00  0.00    -0.358 OA
HETATM   31  H   UNL     1     -46.514  59.035 -56.435  1.00  0.00     0.218 HD
ENDBRANCH  27  30
BRANCH  28  32
HETATM   32  O   UNL     1     -43.789  58.035 -57.895  1.00  0.00    -0.349 OA
BRANCH  32  33
HETATM   33  C   UNL     1     -42.856  57.234 -58.629  1.00  0.00     0.171 C 
HETATM   34  C   UNL     1     -43.639  56.162 -59.368  1.00  0.00     0.034 C 
ENDBRANCH  32  33
ENDBRANCH  28  32
ENDBRANCH   1  24
BRANCH   5  35
HETATM   35  O   UNL     1     -40.983  56.632 -50.334  1.00  0.00    -0.355 OA
HETATM   36  H   UNL     1     -40.604  57.532 -50.357  1.00  0.00     0.218 HD
ENDBRANCH   5  35
BRANCH   2  37
HETATM   37  C   UNL     1     -41.662  53.697 -54.160  1.00  0.00     0.155 C 
BRANCH  37  38
HETATM   38  C   UNL     1     -40.248  53.112 -54.039  1.00  0.00     0.254 C 
BRANCH  38  39
HETATM   39  N   UNL     1     -40.250  51.792 -53.296  1.00  0.00    -0.077 N 
HETATM   40  H   UNL     1     -41.206  51.668 -52.936  1.00  0.00     0.279 HD
HETATM   41  C   UNL     1     -39.978  50.641 -54.226  1.00  0.00     0.269 C 
HETATM   42  C   UNL     1     -39.332  51.768 -52.104  1.00  0.00     0.269 C 
ENDBRANCH  38  39
ENDBRANCH  37  38
ENDBRANCH   2  37
TORSDOF 13
ENDMDL
MODEL 7
REMARK VINA RESULT:      -7.8      3.215      6.685
REMARK  13 active torsions:
REMARK  status: ('A' for Active; 'I' for Inactive)
REMARK    1  A    between atoms: C_2  and  O_3 
REMARK    2  A    between atoms: O_3  and  C_4 
REMARK    3  A    between atoms: C_5  and  O_6 
REMARK    4  A    between atoms: C_9  and  C_10 
REMARK    5  A    between atoms: N_11  and  C_12 
REMARK    6  A    between atoms: C_12  and  C_13 
REMARK    7  A    between atoms: C_13  and  N_14 
REMARK    8  A    between atoms: C_20  and  O_21 
REMARK    9  A    between atoms: C_22  and  C_23 
REMARK   10  A    between atoms: C_23  and  C_24 
REMARK   11  A    between atoms: C_28  and  O_29 
REMARK   12  A    between atoms: O_29  and  C_30 
REMARK   13  A    between atoms: C_30  and  C_31 
ROOT
HETATM    1  C   UNL     1     -43.987  59.491 -53.166  1.00  0.00     0.161 A 
HETATM    2  N   UNL     1     -44.160  59.639 -54.607  1.00  0.00    -0.332 N 
HETATM    3  C   UNL     1     -44.657  58.472 -55.163  1.00  0.00     0.278 A 
HETATM    4  O   UNL     1     -44.889  58.259 -56.339  1.00  0.00    -0.265 OA
HETATM    5  C   UNL     1     -44.818  57.482 -54.079  1.00  0.00     0.146 A 
HETATM    6  C   UNL     1     -44.384  58.062 -52.953  1.00  0.00     0.059 A 
ENDROOT
BRANCH   6   7
HETATM    7  C   UNL     1     -44.338  57.392 -51.630  1.00  0.00     0.194 C 
HETATM    8  O   UNL     1     -45.147  57.638 -50.748  1.00  0.00    -0.287 OA
BRANCH   7   9
HETATM    9  C   UNL     1     -43.203  56.461 -51.379  1.00  0.00     0.021 A 
HETATM   10  C   UNL     1     -41.923  56.952 -51.068  1.00  0.00    -0.045 A 
HETATM   11  C   UNL     1     -41.653  58.410 -50.825  1.00  0.00     0.049 C 
HETATM   12  C   UNL     1     -40.864  56.036 -50.963  1.00  0.00     0.044 A 
HETATM   13  C   UNL     1     -41.065  54.671 -51.178  1.00  0.00     0.069 A 
HETATM   14  C   UNL     1     -42.351  54.185 -51.402  1.00  0.00     0.038 A 
HETATM   15  C   UNL     1     -43.420  55.078 -51.492  1.00  0.00     0.019 A 
BRANCH  13  16
HETATM   16  O   UNL     1     -39.950  53.887 -51.099  1.00  0.00    -0.347 OA
BRANCH  16  17
HETATM   17  C   UNL     1     -40.190  52.549 -50.659  1.00  0.00     0.214 C 
BRANCH  17  18
HETATM   18  C   UNL     1     -39.967  51.622 -51.828  1.00  0.00    -0.034 A 
HETATM   19  C   UNL     1     -39.646  50.276 -51.609  1.00  0.00     0.009 A 
HETATM   20  C   UNL     1     -39.420  49.418 -52.687  1.00  0.00     0.001 A 
HETATM   21  C   UNL     1     -39.507  49.898 -53.992  1.00  0.00     0.000 A 
HETATM   22  C   UNL     1     -39.818  51.237 -54.222  1.00  0.00     0.001 A 
HETATM   23  C   UNL     1     -40.047  52.096 -53.145  1.00  0.00     0.009 A 
ENDBRANCH  17  18
ENDBRANCH  16  17
ENDBRANCH  13  16
ENDBRANCH   7   9
ENDBRANCH   6   7
BRANCH   1  24
HETATM   24  C   UNL     1     -44.845  60.495 -52.421  1.00  0.00    -0.028 A 
HETATM   25  C   UNL     1     -46.214  60.659 -52.697  1.00  0.00     0.012 A 
HETATM   26  C   UNL     1     -46.970  61.613 -52.013  1.00  0.00     0.040 A 
HETATM   27  C   UNL     1     -46.374  62.410 -51.035  1.00  0.00     0.099 A 
HETATM   28  C   UNL     1     -45.024  62.239 -50.714  1.00  0.00     0.102 A 
HETATM   29  C   UNL     1     -44.269  61.293 -51.420  1.00  0.00     0.049 A 
BRANCH  27  30
HETATM   30  O   UNL     1     -47.124  63.377 -50.433  1.00  0.00    -0.358 OA
HETATM   31  H   UNL     1     -47.108  64.188 -50.970  1.00  0.00     0.218 HD
ENDBRANCH  27  30
BRANCH  28  32
HETATM   32  O   UNL     1     -44.301  62.928 -49.779  1.00  0.00    -0.349 OA
BRANCH  32  33
HETATM   33  C   UNL     1     -43.019  63.410 -50.194  1.00  0.00     0.171 C 
HETATM   34  C   UNL     1     -43.240  64.538 -51.188  1.00  0.00     0.034 C 
ENDBRANCH  32  33
ENDBRANCH  28  32
ENDBRANCH   1  24
BRANCH   5  35
HETATM   35  O   UNL     1     -45.247  56.209 -54.285  1.00  0.00    -0.355 OA
HETATM   36  H   UNL     1     -44.575  55.758 -54.831  1.00  0.00     0.218 HD
ENDBRANCH   5  35
BRANCH   2  37
HETATM   37  C   UNL     1     -43.330  60.543 -55.404  1.00  0.00     0.155 C 
BRANCH  37  38
HETATM   38  C   UNL     1     -42.110  59.881 -56.057  1.00  0.00     0.254 C 
BRANCH  38  39
HETATM   39  N   UNL     1     -42.244  59.822 -57.566  1.00  0.00    -0.077 N 
HETATM   40  H   UNL     1     -43.228  60.044 -57.773  1.00  0.00     0.279 HD
HETATM   41  C   UNL     1     -41.405  60.879 -58.230  1.00  0.00     0.269 C 
HETATM   42  C   UNL     1     -41.975  58.459 -58.143  1.00  0.00     0.269 C 
ENDBRANCH  38  39
ENDBRANCH  37  38
ENDBRANCH   2  37
TORSDOF 13
ENDMDL
MODEL 8
REMARK VINA RESULT:      -7.7     17.177     20.295
REMARK  13 active torsions:
REMARK  status: ('A' for Active; 'I' for Inactive)
REMARK    1  A    between atoms: C_2  and  O_3 
REMARK    2  A    between atoms: O_3  and  C_4 
REMARK    3  A    between atoms: C_5  and  O_6 
REMARK    4  A    between atoms: C_9  and  C_10 
REMARK    5  A    between atoms: N_11  and  C_12 
REMARK    6  A    between atoms: C_12  and  C_13 
REMARK    7  A    between atoms: C_13  and  N_14 
REMARK    8  A    between atoms: C_20  and  O_21 
REMARK    9  A    between atoms: C_22  and  C_23 
REMARK   10  A    between atoms: C_23  and  C_24 
REMARK   11  A    between atoms: C_28  and  O_29 
REMARK   12  A    between atoms: O_29  and  C_30 
REMARK   13  A    between atoms: C_30  and  C_31 
ROOT
HETATM    1  C   UNL     1     -34.594  39.960 -52.741  1.00  0.00     0.161 A 
HETATM    2  N   UNL     1     -34.738  38.780 -51.894  1.00  0.00    -0.332 N 
HETATM    3  C   UNL     1     -36.075  38.516 -51.646  1.00  0.00     0.278 A 
HETATM    4  O   UNL     1     -36.531  37.622 -50.958  1.00  0.00    -0.265 OA
HETATM    5  C   UNL     1     -36.878  39.551 -52.326  1.00  0.00     0.146 A 
HETATM    6  C   UNL     1     -36.017  40.397 -52.906  1.00  0.00     0.059 A 
ENDROOT
BRANCH   6   7
HETATM    7  C   UNL     1     -36.415  41.608 -53.664  1.00  0.00     0.194 C 
HETATM    8  O   UNL     1     -36.528  42.702 -53.129  1.00  0.00    -0.287 OA
BRANCH   7   9
HETATM    9  C   UNL     1     -36.764  41.427 -55.100  1.00  0.00     0.021 A 
HETATM   10  C   UNL     1     -35.952  41.967 -56.113  1.00  0.00    -0.045 A 
HETATM   11  C   UNL     1     -34.628  42.617 -55.827  1.00  0.00     0.049 C 
HETATM   12  C   UNL     1     -36.393  41.873 -57.443  1.00  0.00     0.044 A 
HETATM   13  C   UNL     1     -37.615  41.276 -57.759  1.00  0.00     0.069 A 
HETATM   14  C   UNL     1     -38.372  40.670 -56.758  1.00  0.00     0.038 A 
HETATM   15  C   UNL     1     -37.941  40.736 -55.432  1.00  0.00     0.019 A 
BRANCH  13  16
HETATM   16  O   UNL     1     -37.958  41.291 -59.080  1.00  0.00    -0.347 OA
BRANCH  16  17
HETATM   17  C   UNL     1     -37.085  40.548 -59.933  1.00  0.00     0.214 C 
BRANCH  17  18
HETATM   18  C   UNL     1     -37.892  39.465 -60.604  1.00  0.00    -0.034 A 
HETATM   19  C   UNL     1     -37.613  39.095 -61.927  1.00  0.00     0.009 A 
HETATM   20  C   UNL     1     -38.369  38.106 -62.559  1.00  0.00     0.001 A 
HETATM   21  C   UNL     1     -39.412  37.483 -61.879  1.00  0.00     0.000 A 
HETATM   22  C   UNL     1     -39.705  37.848 -60.566  1.00  0.00     0.001 A 
HETATM   23  C   UNL     1     -38.948  38.834 -59.931  1.00  0.00     0.009 A 
ENDBRANCH  17  18
ENDBRANCH  16  17
ENDBRANCH  13  16
ENDBRANCH   7   9
ENDBRANCH   6   7
BRANCH   1  24
HETATM   24  C   UNL     1     -33.897  39.601 -54.040  1.00  0.00    -0.028 A 
HETATM   25  C   UNL     1     -32.644  40.137 -54.387  1.00  0.00     0.012 A 
HETATM   26  C   UNL     1     -32.041  39.809 -55.604  1.00  0.00     0.040 A 
HETATM   27  C   UNL     1     -32.675  38.933 -56.485  1.00  0.00     0.099 A 
HETATM   28  C   UNL     1     -33.902  38.356 -56.145  1.00  0.00     0.102 A 
HETATM   29  C   UNL     1     -34.508  38.707 -54.932  1.00  0.00     0.049 A 
BRANCH  27  30
HETATM   30  O   UNL     1     -32.092  38.686 -57.694  1.00  0.00    -0.358 OA
HETATM   31  H   UNL     1     -31.492  39.416 -57.926  1.00  0.00     0.218 HD
ENDBRANCH  27  30
BRANCH  28  32
HETATM   32  O   UNL     1     -34.639  37.477 -56.891  1.00  0.00    -0.349 OA
BRANCH  32  33
HETATM   33  C   UNL     1     -35.728  38.032 -57.638  1.00  0.00     0.171 C 
HETATM   34  C   UNL     1     -36.993  37.288 -57.246  1.00  0.00     0.034 C 
ENDBRANCH  32  33
ENDBRANCH  28  32
ENDBRANCH   1  24
BRANCH   5  35
HETATM   35  O   UNL     1     -38.234  39.615 -52.253  1.00  0.00    -0.355 OA
HETATM   36  H   UNL     1     -38.557  39.970 -53.103  1.00  0.00     0.218 HD
ENDBRANCH   5  35
BRANCH   2  37
HETATM   37  C   UNL     1     -33.713  38.383 -50.928  1.00  0.00     0.155 C 
BRANCH  37  38
HETATM   38  C   UNL     1     -33.689  39.221 -49.642  1.00  0.00     0.254 C 
BRANCH  38  39
HETATM   39  N   UNL     1     -32.415  40.033 -49.526  1.00  0.00    -0.077 N 
HETATM   40  H   UNL     1     -32.710  41.012 -49.414  1.00  0.00     0.279 HD
HETATM   41  C   UNL     1     -31.641  39.662 -48.291  1.00  0.00     0.269 C 
HETATM   42  C   UNL     1     -31.550  39.978 -50.757  1.00  0.00     0.269 C 
ENDBRANCH  38  39
ENDBRANCH  37  38
ENDBRANCH   2  37
TORSDOF 13
ENDMDL
MODEL 9
REMARK VINA RESULT:      -7.7      3.242      5.059
REMARK  13 active torsions:
REMARK  status: ('A' for Active; 'I' for Inactive)
REMARK    1  A    between atoms: C_2  and  O_3 
REMARK    2  A    between atoms: O_3  and  C_4 
REMARK    3  A    between atoms: C_5  and  O_6 
REMARK    4  A    between atoms: C_9  and  C_10 
REMARK    5  A    between atoms: N_11  and  C_12 
REMARK    6  A    between atoms: C_12  and  C_13 
REMARK    7  A    between atoms: C_13  and  N_14 
REMARK    8  A    between atoms: C_20  and  O_21 
REMARK    9  A    between atoms: C_22  and  C_23 
REMARK   10  A    between atoms: C_23  and  C_24 
REMARK   11  A    between atoms: C_28  and  O_29 
REMARK   12  A    between atoms: O_29  and  C_30 
REMARK   13  A    between atoms: C_30  and  C_31 
ROOT
HETATM    1  C   UNL     1     -44.796  59.596 -53.372  1.00  0.00     0.161 A 
HETATM    2  N   UNL     1     -44.590  61.036 -53.262  1.00  0.00    -0.332 N 
HETATM    3  C   UNL     1     -44.007  61.356 -52.047  1.00  0.00     0.278 A 
HETATM    4  O   UNL     1     -43.727  62.468 -51.637  1.00  0.00    -0.265 OA
HETATM    5  C   UNL     1     -43.820  60.104 -51.287  1.00  0.00     0.146 A 
HETATM    6  C   UNL     1     -44.321  59.113 -52.036  1.00  0.00     0.059 A 
ENDROOT
BRANCH   6   7
HETATM    7  C   UNL     1     -44.367  57.691 -51.619  1.00  0.00     0.194 C 
HETATM    8  O   UNL     1     -45.157  57.284 -50.779  1.00  0.00    -0.287 OA
BRANCH   7   9
HETATM    9  C   UNL     1     -43.345  56.778 -52.203  1.00  0.00     0.021 A 
HETATM   10  C   UNL     1     -42.035  56.744 -51.695  1.00  0.00    -0.045 A 
HETATM   11  C   UNL     1     -41.626  57.498 -50.462  1.00  0.00     0.049 C 
HETATM   12  C   UNL     1     -41.081  55.958 -52.361  1.00  0.00     0.044 A 
HETATM   13  C   UNL     1     -41.413  55.238 -53.510  1.00  0.00     0.069 A 
HETATM   14  C   UNL     1     -42.733  55.210 -53.956  1.00  0.00     0.038 A 
HETATM   15  C   UNL     1     -43.700  55.971 -53.297  1.00  0.00     0.019 A 
BRANCH  13  16
HETATM   16  O   UNL     1     -40.389  54.552 -54.097  1.00  0.00    -0.347 OA
BRANCH  16  17
HETATM   17  C   UNL     1     -40.775  53.335 -54.739  1.00  0.00     0.214 C 
BRANCH  17  18
HETATM   18  C   UNL     1     -40.345  52.184 -53.864  1.00  0.00    -0.034 A 
HETATM   19  C   UNL     1     -40.028  52.403 -52.516  1.00  0.00     0.009 A 
HETATM   20  C   UNL     1     -39.611  51.346 -51.707  1.00  0.00     0.001 A 
HETATM   21  C   UNL     1     -39.503  50.062 -52.236  1.00  0.00     0.000 A 
HETATM   22  C   UNL     1     -39.808  49.833 -53.577  1.00  0.00     0.001 A 
HETATM   23  C   UNL     1     -40.228  50.889 -54.388  1.00  0.00     0.009 A 
ENDBRANCH  17  18
ENDBRANCH  16  17
ENDBRANCH  13  16
ENDBRANCH   7   9
ENDBRANCH   6   7
BRANCH   1  24
HETATM   24  C   UNL     1     -44.023  59.035 -54.550  1.00  0.00    -0.028 A 
HETATM   25  C   UNL     1     -42.620  59.093 -54.618  1.00  0.00     0.012 A 
HETATM   26  C   UNL     1     -41.939  58.593 -55.730  1.00  0.00     0.040 A 
HETATM   27  C   UNL     1     -42.649  58.018 -56.785  1.00  0.00     0.099 A 
HETATM   28  C   UNL     1     -44.041  57.914 -56.724  1.00  0.00     0.102 A 
HETATM   29  C   UNL     1     -44.717  58.436 -55.613  1.00  0.00     0.049 A 
BRANCH  27  30
HETATM   30  O   UNL     1     -41.959  57.600 -57.886  1.00  0.00    -0.358 OA
HETATM   31  H   UNL     1     -41.196  57.063 -57.612  1.00  0.00     0.218 HD
ENDBRANCH  27  30
BRANCH  28  32
HETATM   32  O   UNL     1     -44.874  57.371 -57.664  1.00  0.00    -0.349 OA
BRANCH  32  33
HETATM   33  C   UNL     1     -46.139  58.016 -57.843  1.00  0.00     0.171 C 
HETATM   34  C   UNL     1     -46.769  57.471 -59.114  1.00  0.00     0.034 C 
ENDBRANCH  32  33
ENDBRANCH  28  32
ENDBRANCH   1  24
BRANCH   5  35
HETATM   35  O   UNL     1     -43.309  60.061 -50.029  1.00  0.00    -0.355 OA
HETATM   36  H   UNL     1     -43.875  60.621 -49.463  1.00  0.00     0.218 HD
ENDBRANCH   5  35
BRANCH   2  37
HETATM   37  C   UNL     1     -45.448  62.003 -53.949  1.00  0.00     0.155 C 
BRANCH  37  38
HETATM   38  C   UNL     1     -46.726  62.376 -53.185  1.00  0.00     0.254 C 
BRANCH  38  39
HETATM   39  N   UNL     1     -47.972  61.965 -53.943  1.00  0.00    -0.077 N 
HETATM   40  H   UNL     1     -47.900  60.948 -54.079  1.00  0.00     0.279 HD
HETATM   41  C   UNL     1     -49.213  62.214 -53.131  1.00  0.00     0.269 C 
HETATM   42  C   UNL     1     -48.075  62.580 -55.313  1.00  0.00     0.269 C 
ENDBRANCH  38  39
ENDBRANCH  37  38
ENDBRANCH   2  37
TORSDOF 13
ENDMDL
MODEL 10
REMARK VINA RESULT:      -7.6      3.322      6.475
REMARK  13 active torsions:
REMARK  status: ('A' for Active; 'I' for Inactive)
REMARK    1  A    between atoms: C_2  and  O_3 
REMARK    2  A    between atoms: O_3  and  C_4 
REMARK    3  A    between atoms: C_5  and  O_6 
REMARK    4  A    between atoms: C_9  and  C_10 
REMARK    5  A    between atoms: N_11  and  C_12 
REMARK    6  A    between atoms: C_12  and  C_13 
REMARK    7  A    between atoms: C_13  and  N_14 
REMARK    8  A    between atoms: C_20  and  O_21 
REMARK    9  A    between atoms: C_22  and  C_23 
REMARK   10  A    between atoms: C_23  and  C_24 
REMARK   11  A    between atoms: C_28  and  O_29 
REMARK   12  A    between atoms: O_29  and  C_30 
REMARK   13  A    between atoms: C_30  and  C_31 
ROOT
HETATM    1  C   UNL     1     -44.301  60.617 -55.068  1.00  0.00     0.161 A 
HETATM    2  N   UNL     1     -45.627  61.012 -55.532  1.00  0.00    -0.332 N 
HETATM    3  C   UNL     1     -45.872  60.508 -56.798  1.00  0.00     0.278 A 
HETATM    4  O   UNL     1     -46.871  60.675 -57.474  1.00  0.00    -0.265 OA
HETATM    5  C   UNL     1     -44.676  59.757 -57.230  1.00  0.00     0.146 A 
HETATM    6  C   UNL     1     -43.769  59.870 -56.252  1.00  0.00     0.059 A 
ENDROOT
BRANCH   6   7
HETATM    7  C   UNL     1     -42.405  59.291 -56.305  1.00  0.00     0.194 C 
HETATM    8  O   UNL     1     -41.457  59.901 -56.778  1.00  0.00    -0.287 OA
BRANCH   7   9
HETATM    9  C   UNL     1     -42.244  57.886 -55.837  1.00  0.00     0.021 A 
HETATM   10  C   UNL     1     -41.519  57.594 -54.669  1.00  0.00    -0.045 A 
HETATM   11  C   UNL     1     -40.997  58.663 -53.752  1.00  0.00     0.049 C 
HETATM   12  C   UNL     1     -41.295  56.246 -54.342  1.00  0.00     0.044 A 
HETATM   13  C   UNL     1     -41.762  55.217 -55.161  1.00  0.00     0.069 A 
HETATM   14  C   UNL     1     -42.551  55.514 -56.270  1.00  0.00     0.038 A 
HETATM   15  C   UNL     1     -42.801  56.847 -56.601  1.00  0.00     0.019 A 
BRANCH  13  16
HETATM   16  O   UNL     1     -41.436  53.951 -54.766  1.00  0.00    -0.347 OA
BRANCH  16  17
HETATM   17  C   UNL     1     -40.593  53.882 -53.616  1.00  0.00     0.214 C 
BRANCH  17  18
HETATM   18  C   UNL     1     -40.264  52.432 -53.359  1.00  0.00    -0.034 A 
HETATM   19  C   UNL     1     -39.799  52.027 -52.100  1.00  0.00     0.009 A 
HETATM   20  C   UNL     1     -39.475  50.691 -51.862  1.00  0.00     0.001 A 
HETATM   21  C   UNL     1     -39.607  49.748 -52.879  1.00  0.00     0.000 A 
HETATM   22  C   UNL     1     -40.060  50.140 -54.138  1.00  0.00     0.001 A 
HETATM   23  C   UNL     1     -40.388  51.477 -54.377  1.00  0.00     0.009 A 
ENDBRANCH  17  18
ENDBRANCH  16  17
ENDBRANCH  13  16
ENDBRANCH   7   9
ENDBRANCH   6   7
BRANCH   1  24
HETATM   24  C   UNL     1     -44.405  59.789 -53.802  1.00  0.00    -0.028 A 
HETATM   25  C   UNL     1     -44.901  58.473 -53.809  1.00  0.00     0.012 A 
HETATM   26  C   UNL     1     -45.011  57.746 -52.621  1.00  0.00     0.040 A 
HETATM   27  C   UNL     1     -44.617  58.319 -51.411  1.00  0.00     0.099 A 
HETATM   28  C   UNL     1     -44.084  59.611 -51.383  1.00  0.00     0.102 A 
HETATM   29  C   UNL     1     -43.997  60.339 -52.577  1.00  0.00     0.049 A 
BRANCH  27  30
HETATM   30  O   UNL     1     -44.800  57.607 -50.261  1.00  0.00    -0.358 OA
HETATM   31  H   UNL     1     -45.378  56.845 -50.434  1.00  0.00     0.218 HD
ENDBRANCH  27  30
BRANCH  28  32
HETATM   32  O   UNL     1     -43.646  60.302 -50.287  1.00  0.00    -0.349 OA
BRANCH  32  33
HETATM   33  C   UNL     1     -42.306  60.804 -50.345  1.00  0.00     0.171 C 
HETATM   34  C   UNL     1     -41.357  59.632 -50.166  1.00  0.00     0.034 C 
ENDBRANCH  32  33
ENDBRANCH  28  32
ENDBRANCH   1  24
BRANCH   5  35
HETATM   35  O   UNL     1     -44.564  59.165 -58.448  1.00  0.00    -0.355 OA
HETATM   36  H   UNL     1     -44.786  59.836 -59.122  1.00  0.00     0.218 HD
ENDBRANCH   5  35
BRANCH   2  37
HETATM   37  C   UNL     1     -46.273  62.249 -55.090  1.00  0.00     0.155 C 
BRANCH  37  38
HETATM   38  C   UNL     1     -47.045  62.128 -53.769  1.00  0.00     0.254 C 
BRANCH  38  39
HETATM   39  N   UNL     1     -46.675  63.233 -52.801  1.00  0.00    -0.077 N 
HETATM   40  H   UNL     1     -47.318  64.013 -52.999  1.00  0.00     0.279 HD
HETATM   41  C   UNL     1     -46.916  62.815 -51.376  1.00  0.00     0.269 C 
HETATM   42  C   UNL     1     -45.279  63.762 -52.993  1.00  0.00     0.269 C 
ENDBRANCH  38  39
ENDBRANCH  37  38
ENDBRANCH   2  37
TORSDOF 13
ENDMDL
