MODEL 1
REMARK VINA RESULT:      -8.6      0.000      0.000
REMARK  9 active torsions:
REMARK  status: ('A' for Active; 'I' for Inactive)
REMARK    1  A    between atoms: C_4  and  C_5 
REMARK    2  A    between atoms: C_13  and  C_14 
REMARK    3  A    between atoms: C_14  and  N_15 
REMARK    4  A    between atoms: C_19  and  C_20 
REMARK       I    between atoms: C_20  and  N_21 
REMARK    5  A    between atoms: N_21  and  C_22 
REMARK    6  A    between atoms: C_22  and  C_23 
REMARK    7  A    between atoms: C_23  and  C_24 
REMARK    8  A    between atoms: C_24  and  N_25 
REMARK    9  A    between atoms: N_29  and  C_30 
ROOT
HETATM    1  N   UNL     1     -42.146  56.774 -57.674  1.00  0.00    -0.066 N 
HETATM    2  H   UNL     1     -41.353  56.118 -57.750  1.00  0.00     0.280 HD
HETATM    3  C   UNL     1     -43.402  55.948 -57.794  1.00  0.00     0.236 C 
HETATM    4  C   UNL     1     -43.555  55.410 -59.215  1.00  0.00     0.042 C 
HETATM    5  C   UNL     1     -43.555  56.531 -60.254  1.00  0.00     0.081 C 
HETATM    6  C   UNL     1     -42.277  57.359 -60.114  1.00  0.00     0.042 C 
HETATM    7  C   UNL     1     -42.012  57.864 -58.703  1.00  0.00     0.236 C 
ENDROOT
BRANCH   5   8
HETATM    8  C   UNL     1     -44.822  57.367 -60.081  1.00  0.00     0.221 C 
HETATM    9  N   UNL     1     -45.820  56.757 -59.356  1.00  0.00    -0.361 N 
HETATM   10  H   UNL     1     -45.680  55.806 -59.027  1.00  0.00     0.162 HD
HETATM   11  O   UNL     1     -44.890  58.537 -60.452  1.00  0.00    -0.273 OA
BRANCH   9  12
HETATM   12  C   UNL     1     -46.933  57.504 -58.796  1.00  0.00     0.124 C 
BRANCH  12  13
HETATM   13  C   UNL     1     -46.595  58.276 -57.515  1.00  0.00     0.047 C 
BRANCH  13  14
HETATM   14  C   UNL     1     -47.003  59.740 -57.669  1.00  0.00     0.236 C 
BRANCH  14  15
HETATM   15  N   UNL     1     -45.887  60.688 -57.285  1.00  0.00    -0.068 N 
HETATM   16  H   UNL     1     -45.825  61.437 -57.988  1.00  0.00     0.280 HD
HETATM   17  C   UNL     1     -46.215  61.377 -55.941  1.00  0.00     0.254 C 
HETATM   18  C   UNL     1     -45.077  62.324 -55.502  1.00  0.00     0.150 C 
HETATM   19  N   UNL     1     -43.778  61.631 -55.485  1.00  0.00    -0.378 N 
HETATM   20  C   UNL     1     -43.419  61.014 -56.776  1.00  0.00     0.150 C 
HETATM   21  C   UNL     1     -44.507  60.009 -57.212  1.00  0.00     0.254 C 
BRANCH  19  22
HETATM   22  C   UNL     1     -43.312  61.003 -54.326  1.00  0.00     0.031 A 
HETATM   23  C   UNL     1     -42.128  60.252 -54.277  1.00  0.00     0.053 A 
HETATM   24  C   UNL     1     -41.694  59.648 -53.089  1.00  0.00     0.036 A 
HETATM   25 CL   UNL     1     -40.209  58.778 -53.081  1.00  0.00    -0.084 Cl
HETATM   26  C   UNL     1     -42.439  59.753 -51.923  1.00  0.00     0.024 A 
HETATM   27  C   UNL     1     -43.634  60.462 -51.950  1.00  0.00     0.004 A 
HETATM   28  C   UNL     1     -44.060  61.071 -53.136  1.00  0.00     0.029 A 
ENDBRANCH  19  22
ENDBRANCH  14  15
ENDBRANCH  13  14
ENDBRANCH  12  13
ENDBRANCH   9  12
ENDBRANCH   5   8
BRANCH   1  29
HETATM   29  C   UNL     1     -41.995  57.380 -56.281  1.00  0.00     0.296 C 
BRANCH  29  30
HETATM   30  C   UNL     1     -42.056  56.409 -55.161  1.00  0.00     0.092 A 
HETATM   31  C   UNL     1     -43.003  56.303 -54.167  1.00  0.00     0.078 A 
HETATM   32  C   UNL     1     -44.239  57.028 -53.814  1.00  0.00     0.079 C 
HETATM   33  O   UNL     1     -42.649  55.259 -53.369  1.00  0.00    -0.294 OA
HETATM   34  C   UNL     1     -41.484  54.779 -53.908  1.00  0.00     0.180 A 
HETATM   35  N   UNL     1     -41.088  55.436 -54.988  1.00  0.00    -0.224 NA
BRANCH  34  36
HETATM   36  C   UNL     1     -40.887  53.626 -53.237  1.00  0.00     0.017 A 
HETATM   37  C   UNL     1     -40.786  53.562 -51.836  1.00  0.00     0.017 A 
HETATM   38  C   UNL     1     -40.220  52.449 -51.208  1.00  0.00     0.025 A 
HETATM   39  C   UNL     1     -39.748  51.388 -51.976  1.00  0.00     0.034 A 
HETATM   40 CL   UNL     1     -39.055  50.017 -51.206  1.00  0.00    -0.084 Cl
HETATM   41  C   UNL     1     -39.837  51.432 -53.365  1.00  0.00     0.025 A 
HETATM   42  C   UNL     1     -40.404  52.548 -53.992  1.00  0.00     0.017 A 
ENDBRANCH  34  36
ENDBRANCH  29  30
ENDBRANCH   1  29
TORSDOF 9
ENDMDL
MODEL 2
REMARK VINA RESULT:      -8.3      2.425      4.452
REMARK  9 active torsions:
REMARK  status: ('A' for Active; 'I' for Inactive)
REMARK    1  A    between atoms: C_4  and  C_5 
REMARK    2  A    between atoms: C_13  and  C_14 
REMARK    3  A    between atoms: C_14  and  N_15 
REMARK    4  A    between atoms: C_19  and  C_20 
REMARK       I    between atoms: C_20  and  N_21 
REMARK    5  A    between atoms: N_21  and  C_22 
REMARK    6  A    between atoms: C_22  and  C_23 
REMARK    7  A    between atoms: C_23  and  C_24 
REMARK    8  A    between atoms: C_24  and  N_25 
REMARK    9  A    between atoms: N_29  and  C_30 
ROOT
HETATM    1  N   UNL     1     -43.851  57.610 -60.553  1.00  0.00    -0.066 N 
HETATM    2  H   UNL     1     -43.881  57.262 -61.524  1.00  0.00     0.280 HD
HETATM    3  C   UNL     1     -44.759  58.812 -60.497  1.00  0.00     0.236 C 
HETATM    4  C   UNL     1     -44.157  59.975 -61.282  1.00  0.00     0.042 C 
HETATM    5  C   UNL     1     -42.759  60.340 -60.781  1.00  0.00     0.081 C 
HETATM    6  C   UNL     1     -41.855  59.109 -60.842  1.00  0.00     0.042 C 
HETATM    7  C   UNL     1     -42.427  57.881 -60.148  1.00  0.00     0.236 C 
ENDROOT
BRANCH   5   8
HETATM    8  C   UNL     1     -42.874  60.920 -59.372  1.00  0.00     0.221 C 
HETATM    9  N   UNL     1     -42.115  60.278 -58.420  1.00  0.00    -0.361 N 
HETATM   10  H   UNL     1     -41.576  59.460 -58.690  1.00  0.00     0.162 HD
HETATM   11  O   UNL     1     -43.496  61.954 -59.140  1.00  0.00    -0.273 OA
BRANCH   9  12
HETATM   12  C   UNL     1     -41.824  60.880 -57.131  1.00  0.00     0.124 C 
BRANCH  12  13
HETATM   13  C   UNL     1     -41.999  59.934 -55.938  1.00  0.00     0.047 C 
BRANCH  13  14
HETATM   14  C   UNL     1     -42.724  60.657 -54.804  1.00  0.00     0.236 C 
BRANCH  14  15
HETATM   15  N   UNL     1     -42.083  60.398 -53.458  1.00  0.00    -0.068 N 
HETATM   16  H   UNL     1     -41.574  61.242 -53.160  1.00  0.00     0.280 HD
HETATM   17  C   UNL     1     -43.172  60.146 -52.391  1.00  0.00     0.254 C 
HETATM   18  C   UNL     1     -42.549  59.841 -51.012  1.00  0.00     0.150 C 
HETATM   19  N   UNL     1     -41.568  58.746 -51.095  1.00  0.00    -0.378 N 
HETATM   20  C   UNL     1     -40.487  58.992 -52.068  1.00  0.00     0.150 C 
HETATM   21  C   UNL     1     -41.075  59.235 -53.475  1.00  0.00     0.254 C 
BRANCH  19  22
HETATM   22  C   UNL     1     -41.954  57.417 -50.893  1.00  0.00     0.031 A 
HETATM   23  C   UNL     1     -41.246  56.523 -50.077  1.00  0.00     0.053 A 
HETATM   24  C   UNL     1     -41.676  55.202 -49.895  1.00  0.00     0.036 A 
HETATM   25 CL   UNL     1     -40.791  54.165 -48.844  1.00  0.00    -0.084 Cl
HETATM   26  C   UNL     1     -42.810  54.726 -50.539  1.00  0.00     0.024 A 
HETATM   27  C   UNL     1     -43.512  55.579 -51.382  1.00  0.00     0.004 A 
HETATM   28  C   UNL     1     -43.084  56.901 -51.554  1.00  0.00     0.029 A 
ENDBRANCH  19  22
ENDBRANCH  14  15
ENDBRANCH  13  14
ENDBRANCH  12  13
ENDBRANCH   9  12
ENDBRANCH   5   8
BRANCH   1  29
HETATM   29  C   UNL     1     -44.395  56.449 -59.724  1.00  0.00     0.296 C 
BRANCH  29  30
HETATM   30  C   UNL     1     -43.977  56.438 -58.302  1.00  0.00     0.092 A 
HETATM   31  C   UNL     1     -44.318  57.320 -57.300  1.00  0.00     0.078 A 
HETATM   32  C   UNL     1     -45.158  58.530 -57.209  1.00  0.00     0.079 C 
HETATM   33  O   UNL     1     -43.704  56.906 -56.159  1.00  0.00    -0.294 OA
HETATM   34  C   UNL     1     -42.998  55.789 -56.520  1.00  0.00     0.180 A 
HETATM   35  N   UNL     1     -43.132  55.466 -57.799  1.00  0.00    -0.224 NA
BRANCH  34  36
HETATM   36  C   UNL     1     -42.245  55.127 -55.457  1.00  0.00     0.017 A 
HETATM   37  C   UNL     1     -41.272  55.812 -54.709  1.00  0.00     0.017 A 
HETATM   38  C   UNL     1     -40.565  55.168 -53.690  1.00  0.00     0.025 A 
HETATM   39  C   UNL     1     -40.824  53.830 -53.408  1.00  0.00     0.034 A 
HETATM   40 CL   UNL     1     -39.959  53.036 -52.153  1.00  0.00    -0.084 Cl
HETATM   41  C   UNL     1     -41.783  53.132 -54.138  1.00  0.00     0.025 A 
HETATM   42  C   UNL     1     -42.490  53.778 -55.159  1.00  0.00     0.017 A 
ENDBRANCH  34  36
ENDBRANCH  29  30
ENDBRANCH   1  29
TORSDOF 9
ENDMDL
MODEL 3
REMARK VINA RESULT:      -8.3      1.297      1.800
REMARK  9 active torsions:
REMARK  status: ('A' for Active; 'I' for Inactive)
REMARK    1  A    between atoms: C_4  and  C_5 
REMARK    2  A    between atoms: C_13  and  C_14 
REMARK    3  A    between atoms: C_14  and  N_15 
REMARK    4  A    between atoms: C_19  and  C_20 
REMARK       I    between atoms: C_20  and  N_21 
REMARK    5  A    between atoms: N_21  and  C_22 
REMARK    6  A    between atoms: C_22  and  C_23 
REMARK    7  A    between atoms: C_23  and  C_24 
REMARK    8  A    between atoms: C_24  and  N_25 
REMARK    9  A    between atoms: N_29  and  C_30 
ROOT
HETATM    1  N   UNL     1     -42.106  56.882 -57.724  1.00  0.00    -0.066 N 
HETATM    2  H   UNL     1     -41.242  56.346 -57.904  1.00  0.00     0.280 HD
HETATM    3  C   UNL     1     -43.256  55.927 -57.926  1.00  0.00     0.236 C 
HETATM    4  C   UNL     1     -43.397  55.565 -59.403  1.00  0.00     0.042 C 
HETATM    5  C   UNL     1     -43.572  56.804 -60.282  1.00  0.00     0.081 C 
HETATM    6  C   UNL     1     -42.400  57.760 -60.059  1.00  0.00     0.042 C 
HETATM    7  C   UNL     1     -42.145  58.105 -58.599  1.00  0.00     0.236 C 
ENDROOT
BRANCH   5   8
HETATM    8  C   UNL     1     -44.924  57.444 -59.970  1.00  0.00     0.221 C 
HETATM    9  N   UNL     1     -44.853  58.706 -59.425  1.00  0.00    -0.361 N 
HETATM   10  H   UNL     1     -43.941  59.107 -59.229  1.00  0.00     0.162 HD
HETATM   11  O   UNL     1     -45.986  56.921 -60.298  1.00  0.00    -0.273 OA
BRANCH   9  12
HETATM   12  C   UNL     1     -46.000  59.596 -59.389  1.00  0.00     0.124 C 
BRANCH  12  13
HETATM   13  C   UNL     1     -46.077  60.476 -58.136  1.00  0.00     0.047 C 
BRANCH  13  14
HETATM   14  C   UNL     1     -44.667  60.803 -57.646  1.00  0.00     0.236 C 
BRANCH  14  15
HETATM   15  N   UNL     1     -44.636  61.127 -56.168  1.00  0.00    -0.068 N 
HETATM   16  H   UNL     1     -45.253  61.930 -55.986  1.00  0.00     0.280 HD
HETATM   17  C   UNL     1     -45.208  59.945 -55.353  1.00  0.00     0.254 C 
HETATM   18  C   UNL     1     -45.155  60.228 -53.837  1.00  0.00     0.150 C 
HETATM   19  N   UNL     1     -43.799  60.612 -53.408  1.00  0.00    -0.378 N 
HETATM   20  C   UNL     1     -43.256  61.775 -54.135  1.00  0.00     0.150 C 
HETATM   21  C   UNL     1     -43.233  61.498 -55.654  1.00  0.00     0.254 C 
BRANCH  19  22
HETATM   22  C   UNL     1     -42.884  59.651 -52.968  1.00  0.00     0.031 A 
HETATM   23  C   UNL     1     -43.221  58.607 -52.094  1.00  0.00     0.053 A 
HETATM   24  C   UNL     1     -42.272  57.659 -51.687  1.00  0.00     0.036 A 
HETATM   25 CL   UNL     1     -42.756  56.374 -50.650  1.00  0.00    -0.084 Cl
HETATM   26  C   UNL     1     -40.956  57.738 -52.120  1.00  0.00     0.024 A 
HETATM   27  C   UNL     1     -40.584  58.782 -52.959  1.00  0.00     0.004 A 
HETATM   28  C   UNL     1     -41.537  59.721 -53.370  1.00  0.00     0.029 A 
ENDBRANCH  19  22
ENDBRANCH  14  15
ENDBRANCH  13  14
ENDBRANCH  12  13
ENDBRANCH   9  12
ENDBRANCH   5   8
BRANCH   1  29
HETATM   29  C   UNL     1     -41.977  57.314 -56.265  1.00  0.00     0.296 C 
BRANCH  29  30
HETATM   30  C   UNL     1     -42.117  56.223 -55.269  1.00  0.00     0.092 A 
HETATM   31  C   UNL     1     -43.228  55.865 -54.539  1.00  0.00     0.078 A 
HETATM   32  C   UNL     1     -44.616  56.354 -54.434  1.00  0.00     0.079 C 
HETATM   33  O   UNL     1     -42.886  54.802 -53.762  1.00  0.00    -0.294 OA
HETATM   34  C   UNL     1     -41.567  54.564 -54.045  1.00  0.00     0.180 A 
HETATM   35  N   UNL     1     -41.060  55.392 -54.947  1.00  0.00    -0.224 NA
BRANCH  34  36
HETATM   36  C   UNL     1     -40.946  53.444 -53.342  1.00  0.00     0.017 A 
HETATM   37  C   UNL     1     -40.777  53.454 -51.946  1.00  0.00     0.017 A 
HETATM   38  C   UNL     1     -40.188  52.372 -51.287  1.00  0.00     0.025 A 
HETATM   39  C   UNL     1     -39.761  51.266 -52.017  1.00  0.00     0.034 A 
HETATM   40 CL   UNL     1     -39.040  49.933 -51.209  1.00  0.00    -0.084 Cl
HETATM   41  C   UNL     1     -39.917  51.237 -53.401  1.00  0.00     0.025 A 
HETATM   42  C   UNL     1     -40.507  52.322 -54.060  1.00  0.00     0.017 A 
ENDBRANCH  34  36
ENDBRANCH  29  30
ENDBRANCH   1  29
TORSDOF 9
ENDMDL
MODEL 4
REMARK VINA RESULT:      -8.2      3.633      9.389
REMARK  9 active torsions:
REMARK  status: ('A' for Active; 'I' for Inactive)
REMARK    1  A    between atoms: C_4  and  C_5 
REMARK    2  A    between atoms: C_13  and  C_14 
REMARK    3  A    between atoms: C_14  and  N_15 
REMARK    4  A    between atoms: C_19  and  C_20 
REMARK       I    between atoms: C_20  and  N_21 
REMARK    5  A    between atoms: N_21  and  C_22 
REMARK    6  A    between atoms: C_22  and  C_23 
REMARK    7  A    between atoms: C_23  and  C_24 
REMARK    8  A    between atoms: C_24  and  N_25 
REMARK    9  A    between atoms: N_29  and  C_30 
ROOT
HETATM    1  N   UNL     1     -44.020  56.436 -57.135  1.00  0.00    -0.066 N 
HETATM    2  H   UNL     1     -44.831  55.816 -57.287  1.00  0.00     0.280 HD
HETATM    3  C   UNL     1     -42.828  55.540 -56.907  1.00  0.00     0.236 C 
HETATM    4  C   UNL     1     -42.948  54.822 -55.565  1.00  0.00     0.042 C 
HETATM    5  C   UNL     1     -43.107  55.803 -54.403  1.00  0.00     0.081 C 
HETATM    6  C   UNL     1     -44.316  56.704 -54.655  1.00  0.00     0.042 C 
HETATM    7  C   UNL     1     -44.308  57.394 -56.012  1.00  0.00     0.236 C 
ENDROOT
BRANCH   5   8
HETATM    8  C   UNL     1     -41.807  56.590 -54.239  1.00  0.00     0.221 C 
HETATM    9  N   UNL     1     -41.968  57.883 -53.794  1.00  0.00    -0.361 N 
HETATM   10  H   UNL     1     -42.907  58.240 -53.647  1.00  0.00     0.162 HD
HETATM   11  O   UNL     1     -40.705  56.066 -54.374  1.00  0.00    -0.273 OA
BRANCH   9  12
HETATM   12  C   UNL     1     -40.863  58.655 -53.253  1.00  0.00     0.124 C 
BRANCH  12  13
HETATM   13  C   UNL     1     -40.749  58.608 -51.725  1.00  0.00     0.047 C 
BRANCH  13  14
HETATM   14  C   UNL     1     -42.106  58.260 -51.115  1.00  0.00     0.236 C 
BRANCH  14  15
HETATM   15  N   UNL     1     -42.048  57.008 -50.267  1.00  0.00    -0.068 N 
HETATM   16  H   UNL     1     -42.425  57.217 -49.332  1.00  0.00     0.280 HD
HETATM   17  C   UNL     1     -42.960  55.916 -50.870  1.00  0.00     0.254 C 
HETATM   18  C   UNL     1     -42.894  54.611 -50.049  1.00  0.00     0.150 C 
HETATM   19  N   UNL     1     -41.505  54.157 -49.870  1.00  0.00    -0.378 N 
HETATM   20  C   UNL     1     -40.630  55.165 -49.242  1.00  0.00     0.150 C 
HETATM   21  C   UNL     1     -40.621  56.464 -50.078  1.00  0.00     0.254 C 
BRANCH  19  22
HETATM   22  C   UNL     1     -40.913  53.275 -50.778  1.00  0.00     0.031 A 
HETATM   23  C   UNL     1     -40.834  53.523 -52.157  1.00  0.00     0.053 A 
HETATM   24  C   UNL     1     -40.221  52.614 -53.029  1.00  0.00     0.036 A 
HETATM   25 CL   UNL     1     -40.115  52.995 -54.705  1.00  0.00    -0.084 Cl
HETATM   26  C   UNL     1     -39.690  51.421 -52.558  1.00  0.00     0.024 A 
HETATM   27  C   UNL     1     -39.784  51.132 -51.202  1.00  0.00     0.004 A 
HETATM   28  C   UNL     1     -40.389  52.047 -50.332  1.00  0.00     0.029 A 
ENDBRANCH  19  22
ENDBRANCH  14  15
ENDBRANCH  13  14
ENDBRANCH  12  13
ENDBRANCH   9  12
ENDBRANCH   5   8
BRANCH   1  29
HETATM   29  C   UNL     1     -43.900  57.218 -58.442  1.00  0.00     0.296 C 
BRANCH  29  30
HETATM   30  C   UNL     1     -45.037  57.057 -59.380  1.00  0.00     0.092 A 
HETATM   31  C   UNL     1     -45.433  55.930 -60.065  1.00  0.00     0.078 A 
HETATM   32  C   UNL     1     -44.954  54.538 -60.159  1.00  0.00     0.079 C 
HETATM   33  O   UNL     1     -46.532  56.257 -60.797  1.00  0.00    -0.294 OA
HETATM   34  C   UNL     1     -46.753  57.583 -60.535  1.00  0.00     0.180 A 
HETATM   35  N   UNL     1     -45.881  58.109 -59.686  1.00  0.00    -0.224 NA
BRANCH  34  36
HETATM   36  C   UNL     1     -47.904  58.192 -61.197  1.00  0.00     0.017 A 
HETATM   37  C   UNL     1     -48.672  57.482 -62.137  1.00  0.00     0.017 A 
HETATM   38  C   UNL     1     -49.776  58.074 -62.757  1.00  0.00     0.025 A 
HETATM   39  C   UNL     1     -50.124  59.385 -62.443  1.00  0.00     0.034 A 
HETATM   40 CL   UNL     1     -51.483  60.114 -63.200  1.00  0.00    -0.084 Cl
HETATM   41  C   UNL     1     -49.376  60.107 -61.516  1.00  0.00     0.025 A 
HETATM   42  C   UNL     1     -48.270  59.512 -60.897  1.00  0.00     0.017 A 
ENDBRANCH  34  36
ENDBRANCH  29  30
ENDBRANCH   1  29
TORSDOF 9
ENDMDL
MODEL 5
REMARK VINA RESULT:      -8.2      1.523      1.875
REMARK  9 active torsions:
REMARK  status: ('A' for Active; 'I' for Inactive)
REMARK    1  A    between atoms: C_4  and  C_5 
REMARK    2  A    between atoms: C_13  and  C_14 
REMARK    3  A    between atoms: C_14  and  N_15 
REMARK    4  A    between atoms: C_19  and  C_20 
REMARK       I    between atoms: C_20  and  N_21 
REMARK    5  A    between atoms: N_21  and  C_22 
REMARK    6  A    between atoms: C_22  and  C_23 
REMARK    7  A    between atoms: C_23  and  C_24 
REMARK    8  A    between atoms: C_24  and  N_25 
REMARK    9  A    between atoms: N_29  and  C_30 
ROOT
HETATM    1  N   UNL     1     -42.228  56.900 -57.463  1.00  0.00    -0.066 N 
HETATM    2  H   UNL     1     -41.397  56.291 -57.408  1.00  0.00     0.280 HD
HETATM    3  C   UNL     1     -43.329  56.072 -58.078  1.00  0.00     0.236 C 
HETATM    4  C   UNL     1     -43.029  55.790 -59.548  1.00  0.00     0.042 C 
HETATM    5  C   UNL     1     -42.822  57.078 -60.347  1.00  0.00     0.081 C 
HETATM    6  C   UNL     1     -41.706  57.904 -59.707  1.00  0.00     0.042 C 
HETATM    7  C   UNL     1     -41.895  58.159 -58.218  1.00  0.00     0.236 C 
ENDROOT
BRANCH   5   8
HETATM    8  C   UNL     1     -44.149  57.832 -60.421  1.00  0.00     0.221 C 
HETATM    9  N   UNL     1     -45.254  57.038 -60.623  1.00  0.00    -0.361 N 
HETATM   10  H   UNL     1     -45.125  56.038 -60.750  1.00  0.00     0.162 HD
HETATM   11  O   UNL     1     -44.229  59.037 -60.191  1.00  0.00    -0.273 OA
BRANCH   9  12
HETATM   12  C   UNL     1     -46.603  57.516 -60.375  1.00  0.00     0.124 C 
BRANCH  12  13
HETATM   13  C   UNL     1     -46.939  57.716 -58.893  1.00  0.00     0.047 C 
BRANCH  13  14
HETATM   14  C   UNL     1     -47.444  59.140 -58.663  1.00  0.00     0.236 C 
BRANCH  14  15
HETATM   15  N   UNL     1     -46.430  59.997 -57.938  1.00  0.00    -0.068 N 
HETATM   16  H   UNL     1     -45.842  60.482 -58.629  1.00  0.00     0.280 HD
HETATM   17  C   UNL     1     -47.149  61.099 -57.128  1.00  0.00     0.254 C 
HETATM   18  C   UNL     1     -46.143  61.969 -56.344  1.00  0.00     0.150 C 
HETATM   19  N   UNL     1     -45.251  61.143 -55.514  1.00  0.00    -0.378 N 
HETATM   20  C   UNL     1     -44.510  60.120 -56.277  1.00  0.00     0.150 C 
HETATM   21  C   UNL     1     -45.492  59.190 -57.021  1.00  0.00     0.254 C 
BRANCH  19  22
HETATM   22  C   UNL     1     -45.577  60.838 -54.189  1.00  0.00     0.031 A 
HETATM   23  C   UNL     1     -45.024  59.757 -53.487  1.00  0.00     0.053 A 
HETATM   24  C   UNL     1     -45.374  59.495 -52.155  1.00  0.00     0.036 A 
HETATM   25 CL   UNL     1     -44.626  58.182 -51.330  1.00  0.00    -0.084 Cl
HETATM   26  C   UNL     1     -46.302  60.287 -51.493  1.00  0.00     0.024 A 
HETATM   27  C   UNL     1     -46.893  61.344 -52.175  1.00  0.00     0.004 A 
HETATM   28  C   UNL     1     -46.534  61.608 -53.502  1.00  0.00     0.029 A 
ENDBRANCH  19  22
ENDBRANCH  14  15
ENDBRANCH  13  14
ENDBRANCH  12  13
ENDBRANCH   9  12
ENDBRANCH   5   8
BRANCH   1  29
HETATM   29  C   UNL     1     -42.529  57.253 -56.009  1.00  0.00     0.296 C 
BRANCH  29  30
HETATM   30  C   UNL     1     -41.820  56.429 -55.000  1.00  0.00     0.092 A 
HETATM   31  C   UNL     1     -41.210  56.835 -53.833  1.00  0.00     0.078 A 
HETATM   32  C   UNL     1     -41.015  58.126 -53.147  1.00  0.00     0.079 C 
HETATM   33  O   UNL     1     -40.700  55.729 -53.227  1.00  0.00    -0.294 OA
HETATM   34  C   UNL     1     -41.012  54.689 -54.064  1.00  0.00     0.180 A 
HETATM   35  N   UNL     1     -41.686  55.060 -55.143  1.00  0.00    -0.224 NA
BRANCH  34  36
HETATM   36  C   UNL     1     -40.583  53.361 -53.633  1.00  0.00     0.017 A 
HETATM   37  C   UNL     1     -40.222  53.101 -52.300  1.00  0.00     0.017 A 
HETATM   38  C   UNL     1     -39.821  51.823 -51.900  1.00  0.00     0.025 A 
HETATM   39  C   UNL     1     -39.778  50.789 -52.832  1.00  0.00     0.034 A 
HETATM   40 CL   UNL     1     -39.291  49.216 -52.343  1.00  0.00    -0.084 Cl
HETATM   41  C   UNL     1     -40.131  51.025 -54.158  1.00  0.00     0.025 A 
HETATM   42  C   UNL     1     -40.531  52.306 -54.557  1.00  0.00     0.017 A 
ENDBRANCH  34  36
ENDBRANCH  29  30
ENDBRANCH   1  29
TORSDOF 9
ENDMDL
MODEL 6
REMARK VINA RESULT:      -8.1      2.184      3.326
REMARK  9 active torsions:
REMARK  status: ('A' for Active; 'I' for Inactive)
REMARK    1  A    between atoms: C_4  and  C_5 
REMARK    2  A    between atoms: C_13  and  C_14 
REMARK    3  A    between atoms: C_14  and  N_15 
REMARK    4  A    between atoms: C_19  and  C_20 
REMARK       I    between atoms: C_20  and  N_21 
REMARK    5  A    between atoms: N_21  and  C_22 
REMARK    6  A    between atoms: C_22  and  C_23 
REMARK    7  A    between atoms: C_23  and  C_24 
REMARK    8  A    between atoms: C_24  and  N_25 
REMARK    9  A    between atoms: N_29  and  C_30 
ROOT
HETATM    1  N   UNL     1     -42.292  56.995 -57.387  1.00  0.00    -0.066 N 
HETATM    2  H   UNL     1     -41.424  56.442 -57.300  1.00  0.00     0.280 HD
HETATM    3  C   UNL     1     -43.353  56.053 -57.897  1.00  0.00     0.236 C 
HETATM    4  C   UNL     1     -43.068  55.658 -59.344  1.00  0.00     0.042 C 
HETATM    5  C   UNL     1     -42.955  56.879 -60.259  1.00  0.00     0.081 C 
HETATM    6  C   UNL     1     -41.878  57.822 -59.723  1.00  0.00     0.042 C 
HETATM    7  C   UNL     1     -42.050  58.198 -58.258  1.00  0.00     0.236 C 
ENDROOT
BRANCH   5   8
HETATM    8  C   UNL     1     -44.326  57.546 -60.364  1.00  0.00     0.221 C 
HETATM    9  N   UNL     1     -45.390  56.729 -60.056  1.00  0.00    -0.361 N 
HETATM   10  H   UNL     1     -45.213  55.755 -59.826  1.00  0.00     0.162 HD
HETATM   11  O   UNL     1     -44.452  58.748 -60.583  1.00  0.00    -0.273 OA
BRANCH   9  12
HETATM   12  C   UNL     1     -46.709  57.260 -59.762  1.00  0.00     0.124 C 
BRANCH  12  13
HETATM   13  C   UNL     1     -46.867  57.806 -58.338  1.00  0.00     0.047 C 
BRANCH  13  14
HETATM   14  C   UNL     1     -47.532  59.181 -58.380  1.00  0.00     0.236 C 
BRANCH  14  15
HETATM   15  N   UNL     1     -46.700  60.241 -57.691  1.00  0.00    -0.068 N 
HETATM   16  H   UNL     1     -47.220  60.602 -56.880  1.00  0.00     0.280 HD
HETATM   17  C   UNL     1     -45.400  59.618 -57.134  1.00  0.00     0.254 C 
HETATM   18  C   UNL     1     -44.511  60.682 -56.458  1.00  0.00     0.150 C 
HETATM   19  N   UNL     1     -44.257  61.821 -57.356  1.00  0.00    -0.378 N 
HETATM   20  C   UNL     1     -45.485  62.467 -57.855  1.00  0.00     0.150 C 
HETATM   21  C   UNL     1     -46.369  61.441 -58.597  1.00  0.00     0.254 C 
BRANCH  19  22
HETATM   22  C   UNL     1     -43.140  61.839 -58.198  1.00  0.00     0.031 A 
HETATM   23  C   UNL     1     -43.218  61.677 -59.589  1.00  0.00     0.053 A 
HETATM   24  C   UNL     1     -42.072  61.713 -60.395  1.00  0.00     0.036 A 
HETATM   25 CL   UNL     1     -42.237  61.555 -62.101  1.00  0.00    -0.084 Cl
HETATM   26  C   UNL     1     -40.814  61.887 -59.836  1.00  0.00     0.024 A 
HETATM   27  C   UNL     1     -40.701  62.014 -58.457  1.00  0.00     0.004 A 
HETATM   28  C   UNL     1     -41.849  61.987 -57.656  1.00  0.00     0.029 A 
ENDBRANCH  19  22
ENDBRANCH  14  15
ENDBRANCH  13  14
ENDBRANCH  12  13
ENDBRANCH   9  12
ENDBRANCH   5   8
BRANCH   1  29
HETATM   29  C   UNL     1     -42.582  57.459 -55.962  1.00  0.00     0.296 C 
BRANCH  29  30
HETATM   30  C   UNL     1     -41.833  56.743 -54.900  1.00  0.00     0.092 A 
HETATM   31  C   UNL     1     -41.144  57.271 -53.831  1.00  0.00     0.078 A 
HETATM   32  C   UNL     1     -40.876  58.630 -53.324  1.00  0.00     0.079 C 
HETATM   33  O   UNL     1     -40.625  56.233 -53.121  1.00  0.00    -0.294 OA
HETATM   34  C   UNL     1     -41.011  55.108 -53.802  1.00  0.00     0.180 A 
HETATM   35  N   UNL     1     -41.742  55.364 -54.878  1.00  0.00    -0.224 NA
BRANCH  34  36
HETATM   36  C   UNL     1     -40.590  53.830 -53.234  1.00  0.00     0.017 A 
HETATM   37  C   UNL     1     -40.272  52.731 -54.052  1.00  0.00     0.017 A 
HETATM   38  C   UNL     1     -39.861  51.517 -53.494  1.00  0.00     0.025 A 
HETATM   39  C   UNL     1     -39.765  51.388 -52.111  1.00  0.00     0.034 A 
HETATM   40 CL   UNL     1     -39.257  49.898 -51.424  1.00  0.00    -0.084 Cl
HETATM   41  C   UNL     1     -40.077  52.464 -51.283  1.00  0.00     0.025 A 
HETATM   42  C   UNL     1     -40.488  53.679 -51.843  1.00  0.00     0.017 A 
ENDBRANCH  34  36
ENDBRANCH  29  30
ENDBRANCH   1  29
TORSDOF 9
ENDMDL
MODEL 7
REMARK VINA RESULT:      -7.9      2.791      6.212
REMARK  9 active torsions:
REMARK  status: ('A' for Active; 'I' for Inactive)
REMARK    1  A    between atoms: C_4  and  C_5 
REMARK    2  A    between atoms: C_13  and  C_14 
REMARK    3  A    between atoms: C_14  and  N_15 
REMARK    4  A    between atoms: C_19  and  C_20 
REMARK       I    between atoms: C_20  and  N_21 
REMARK    5  A    between atoms: N_21  and  C_22 
REMARK    6  A    between atoms: C_22  and  C_23 
REMARK    7  A    between atoms: C_23  and  C_24 
REMARK    8  A    between atoms: C_24  and  N_25 
REMARK    9  A    between atoms: N_29  and  C_30 
ROOT
HETATM    1  N   UNL     1     -44.075  58.609 -51.022  1.00  0.00    -0.066 N 
HETATM    2  H   UNL     1     -43.338  58.647 -50.302  1.00  0.00     0.280 HD
HETATM    3  C   UNL     1     -43.524  59.302 -52.243  1.00  0.00     0.236 C 
HETATM    4  C   UNL     1     -43.389  60.802 -51.990  1.00  0.00     0.042 C 
HETATM    5  C   UNL     1     -44.718  61.434 -51.573  1.00  0.00     0.081 C 
HETATM    6  C   UNL     1     -45.262  60.715 -50.339  1.00  0.00     0.042 C 
HETATM    7  C   UNL     1     -45.350  59.203 -50.486  1.00  0.00     0.236 C 
ENDROOT
BRANCH   5   8
HETATM    8  C   UNL     1     -45.682  61.386 -52.759  1.00  0.00     0.221 C 
HETATM    9  N   UNL     1     -45.104  61.639 -53.982  1.00  0.00    -0.361 N 
HETATM   10  H   UNL     1     -44.118  61.877 -54.021  1.00  0.00     0.162 HD
HETATM   11  O   UNL     1     -46.849  61.024 -52.637  1.00  0.00    -0.273 OA
BRANCH   9  12
HETATM   12  C   UNL     1     -45.764  61.300 -55.231  1.00  0.00     0.124 C 
BRANCH  12  13
HETATM   13  C   UNL     1     -44.809  60.891 -56.358  1.00  0.00     0.047 C 
BRANCH  13  14
HETATM   14  C   UNL     1     -43.405  60.674 -55.795  1.00  0.00     0.236 C 
BRANCH  14  15
HETATM   15  N   UNL     1     -42.721  59.473 -56.411  1.00  0.00    -0.068 N 
HETATM   16  H   UNL     1     -41.746  59.437 -56.085  1.00  0.00     0.280 HD
HETATM   17  C   UNL     1     -43.393  58.170 -55.923  1.00  0.00     0.254 C 
HETATM   18  C   UNL     1     -42.742  56.926 -56.564  1.00  0.00     0.150 C 
HETATM   19  N   UNL     1     -42.707  57.034 -58.032  1.00  0.00    -0.378 N 
HETATM   20  C   UNL     1     -42.018  58.243 -58.522  1.00  0.00     0.150 C 
HETATM   21  C   UNL     1     -42.690  59.511 -57.950  1.00  0.00     0.254 C 
BRANCH  19  22
HETATM   22  C   UNL     1     -43.751  56.534 -58.816  1.00  0.00     0.031 A 
HETATM   23  C   UNL     1     -44.888  57.281 -59.156  1.00  0.00     0.053 A 
HETATM   24  C   UNL     1     -45.906  56.741 -59.954  1.00  0.00     0.036 A 
HETATM   25 CL   UNL     1     -47.255  57.723 -60.376  1.00  0.00    -0.084 Cl
HETATM   26  C   UNL     1     -45.833  55.434 -60.414  1.00  0.00     0.024 A 
HETATM   27  C   UNL     1     -44.735  54.657 -60.064  1.00  0.00     0.004 A 
HETATM   28  C   UNL     1     -43.716  55.203 -59.275  1.00  0.00     0.029 A 
ENDBRANCH  19  22
ENDBRANCH  14  15
ENDBRANCH  13  14
ENDBRANCH  12  13
ENDBRANCH   9  12
ENDBRANCH   5   8
BRANCH   1  29
HETATM   29  C   UNL     1     -44.282  57.115 -51.264  1.00  0.00     0.296 C 
BRANCH  29  30
HETATM   30  C   UNL     1     -43.038  56.327 -51.440  1.00  0.00     0.092 A 
HETATM   31  C   UNL     1     -41.769  56.612 -50.987  1.00  0.00     0.078 A 
HETATM   32  C   UNL     1     -41.153  57.708 -50.213  1.00  0.00     0.079 C 
HETATM   33  O   UNL     1     -40.952  55.598 -51.380  1.00  0.00    -0.294 OA
HETATM   34  C   UNL     1     -41.762  54.737 -52.073  1.00  0.00     0.180 A 
HETATM   35  N   UNL     1     -43.027  55.131 -52.134  1.00  0.00    -0.224 NA
BRANCH  34  36
HETATM   36  C   UNL     1     -41.126  53.533 -52.602  1.00  0.00     0.017 A 
HETATM   37  C   UNL     1     -41.379  53.082 -53.909  1.00  0.00     0.017 A 
HETATM   38  C   UNL     1     -40.757  51.932 -54.404  1.00  0.00     0.025 A 
HETATM   39  C   UNL     1     -39.875  51.221 -53.596  1.00  0.00     0.034 A 
HETATM   40 CL   UNL     1     -39.106  49.810 -54.204  1.00  0.00    -0.084 Cl
HETATM   41  C   UNL     1     -39.612  51.650 -52.298  1.00  0.00     0.025 A 
HETATM   42  C   UNL     1     -40.236  52.801 -51.803  1.00  0.00     0.017 A 
ENDBRANCH  34  36
ENDBRANCH  29  30
ENDBRANCH   1  29
TORSDOF 9
ENDMDL
MODEL 8
REMARK VINA RESULT:      -7.7      2.445      5.745
REMARK  9 active torsions:
REMARK  status: ('A' for Active; 'I' for Inactive)
REMARK    1  A    between atoms: C_4  and  C_5 
REMARK    2  A    between atoms: C_13  and  C_14 
REMARK    3  A    between atoms: C_14  and  N_15 
REMARK    4  A    between atoms: C_19  and  C_20 
REMARK       I    between atoms: C_20  and  N_21 
REMARK    5  A    between atoms: N_21  and  C_22 
REMARK    6  A    between atoms: C_22  and  C_23 
REMARK    7  A    between atoms: C_23  and  C_24 
REMARK    8  A    between atoms: C_24  and  N_25 
REMARK    9  A    between atoms: N_29  and  C_30 
ROOT
HETATM    1  N   UNL     1     -42.562  58.772 -52.381  1.00  0.00    -0.066 N 
HETATM    2  H   UNL     1     -42.142  58.141 -51.681  1.00  0.00     0.280 HD
HETATM    3  C   UNL     1     -42.218  60.177 -51.956  1.00  0.00     0.236 C 
HETATM    4  C   UNL     1     -42.974  60.551 -50.683  1.00  0.00     0.042 C 
HETATM    5  C   UNL     1     -44.487  60.399 -50.850  1.00  0.00     0.081 C 
HETATM    6  C   UNL     1     -44.813  58.971 -51.285  1.00  0.00     0.042 C 
HETATM    7  C   UNL     1     -44.036  58.497 -52.505  1.00  0.00     0.236 C 
ENDROOT
BRANCH   5   8
HETATM    8  C   UNL     1     -44.981  61.448 -51.845  1.00  0.00     0.221 C 
HETATM    9  N   UNL     1     -45.999  61.026 -52.669  1.00  0.00    -0.361 N 
HETATM   10  H   UNL     1     -46.321  60.065 -52.602  1.00  0.00     0.162 HD
HETATM   11  O   UNL     1     -44.586  62.611 -51.819  1.00  0.00    -0.273 OA
BRANCH   9  12
HETATM   12  C   UNL     1     -46.821  61.959 -53.420  1.00  0.00     0.124 C 
BRANCH  12  13
HETATM   13  C   UNL     1     -46.404  62.131 -54.885  1.00  0.00     0.047 C 
BRANCH  13  14
HETATM   14  C   UNL     1     -45.711  60.862 -55.379  1.00  0.00     0.236 C 
BRANCH  14  15
HETATM   15  N   UNL     1     -45.808  60.704 -56.880  1.00  0.00    -0.068 N 
HETATM   16  H   UNL     1     -46.442  61.423 -57.254  1.00  0.00     0.280 HD
HETATM   17  C   UNL     1     -44.430  60.955 -57.532  1.00  0.00     0.254 C 
HETATM   18  C   UNL     1     -44.487  60.764 -59.062  1.00  0.00     0.150 C 
HETATM   19  N   UNL     1     -45.055  59.453 -59.419  1.00  0.00    -0.378 N 
HETATM   20  C   UNL     1     -46.397  59.215 -58.854  1.00  0.00     0.150 C 
HETATM   21  C   UNL     1     -46.360  59.334 -57.315  1.00  0.00     0.254 C 
BRANCH  19  22
HETATM   22  C   UNL     1     -44.233  58.337 -59.601  1.00  0.00     0.031 A 
HETATM   23  C   UNL     1     -44.693  57.016 -59.512  1.00  0.00     0.053 A 
HETATM   24  C   UNL     1     -43.833  55.927 -59.712  1.00  0.00     0.036 A 
HETATM   25 CL   UNL     1     -44.467  54.328 -59.636  1.00  0.00    -0.084 Cl
HETATM   26  C   UNL     1     -42.486  56.123 -59.981  1.00  0.00     0.024 A 
HETATM   27  C   UNL     1     -41.994  57.421 -60.040  1.00  0.00     0.004 A 
HETATM   28  C   UNL     1     -42.857  58.506 -59.849  1.00  0.00     0.029 A 
ENDBRANCH  19  22
ENDBRANCH  14  15
ENDBRANCH  13  14
ENDBRANCH  12  13
ENDBRANCH   9  12
ENDBRANCH   5   8
BRANCH   1  29
HETATM   29  C   UNL     1     -41.870  58.390 -53.688  1.00  0.00     0.296 C 
BRANCH  29  30
HETATM   30  C   UNL     1     -41.652  56.936 -53.885  1.00  0.00     0.092 A 
HETATM   31  C   UNL     1     -41.892  56.176 -55.008  1.00  0.00     0.078 A 
HETATM   32  C   UNL     1     -42.415  56.442 -56.362  1.00  0.00     0.079 C 
HETATM   33  O   UNL     1     -41.531  54.895 -54.724  1.00  0.00    -0.294 OA
HETATM   34  C   UNL     1     -41.096  54.928 -53.426  1.00  0.00     0.180 A 
HETATM   35  N   UNL     1     -41.147  56.134 -52.878  1.00  0.00    -0.224 NA
BRANCH  34  36
HETATM   36  C   UNL     1     -40.628  53.661 -52.868  1.00  0.00     0.017 A 
HETATM   37  C   UNL     1     -40.219  52.600 -53.694  1.00  0.00     0.017 A 
HETATM   38  C   UNL     1     -39.766  51.396 -53.146  1.00  0.00     0.025 A 
HETATM   39  C   UNL     1     -39.719  51.242 -51.763  1.00  0.00     0.034 A 
HETATM   40 CL   UNL     1     -39.159  49.765 -51.086  1.00  0.00    -0.084 Cl
HETATM   41  C   UNL     1     -40.121  52.280 -50.926  1.00  0.00     0.025 A 
HETATM   42  C   UNL     1     -40.575  53.484 -51.477  1.00  0.00     0.017 A 
ENDBRANCH  34  36
ENDBRANCH  29  30
ENDBRANCH   1  29
TORSDOF 9
ENDMDL
MODEL 9
REMARK VINA RESULT:      -7.7      2.481      5.191
REMARK  9 active torsions:
REMARK  status: ('A' for Active; 'I' for Inactive)
REMARK    1  A    between atoms: C_4  and  C_5 
REMARK    2  A    between atoms: C_13  and  C_14 
REMARK    3  A    between atoms: C_14  and  N_15 
REMARK    4  A    between atoms: C_19  and  C_20 
REMARK       I    between atoms: C_20  and  N_21 
REMARK    5  A    between atoms: N_21  and  C_22 
REMARK    6  A    between atoms: C_22  and  C_23 
REMARK    7  A    between atoms: C_23  and  C_24 
REMARK    8  A    between atoms: C_24  and  N_25 
REMARK    9  A    between atoms: N_29  and  C_30 
ROOT
HETATM    1  N   UNL     1     -43.212  59.186 -52.602  1.00  0.00    -0.066 N 
HETATM    2  H   UNL     1     -43.045  58.806 -51.657  1.00  0.00     0.280 HD
HETATM    3  C   UNL     1     -42.859  60.651 -52.548  1.00  0.00     0.236 C 
HETATM    4  C   UNL     1     -43.876  61.415 -51.703  1.00  0.00     0.042 C 
HETATM    5  C   UNL     1     -45.303  61.230 -52.219  1.00  0.00     0.081 C 
HETATM    6  C   UNL     1     -45.640  59.740 -52.270  1.00  0.00     0.042 C 
HETATM    7  C   UNL     1     -44.626  58.897 -53.030  1.00  0.00     0.236 C 
ENDROOT
BRANCH   5   8
HETATM    8  C   UNL     1     -45.429  61.913 -53.580  1.00  0.00     0.221 C 
HETATM    9  N   UNL     1     -46.259  61.272 -54.472  1.00  0.00    -0.361 N 
HETATM   10  H   UNL     1     -46.690  60.393 -54.200  1.00  0.00     0.162 HD
HETATM   11  O   UNL     1     -44.927  63.010 -53.810  1.00  0.00    -0.273 OA
BRANCH   9  12
HETATM   12  C   UNL     1     -46.771  61.933 -55.659  1.00  0.00     0.124 C 
BRANCH  12  13
HETATM   13  C   UNL     1     -46.087  61.507 -56.963  1.00  0.00     0.047 C 
BRANCH  13  14
HETATM   14  C   UNL     1     -45.049  62.551 -57.370  1.00  0.00     0.236 C 
BRANCH  14  15
HETATM   15  N   UNL     1     -43.683  61.942 -57.601  1.00  0.00    -0.068 N 
HETATM   16  H   UNL     1     -42.967  62.675 -57.508  1.00  0.00     0.280 HD
HETATM   17  C   UNL     1     -43.377  60.894 -56.507  1.00  0.00     0.254 C 
HETATM   18  C   UNL     1     -42.006  60.225 -56.736  1.00  0.00     0.150 C 
HETATM   19  N   UNL     1     -41.896  59.675 -58.098  1.00  0.00    -0.378 N 
HETATM   20  C   UNL     1     -42.128  60.673 -59.159  1.00  0.00     0.150 C 
HETATM   21  C   UNL     1     -43.523  61.315 -58.997  1.00  0.00     0.254 C 
BRANCH  19  22
HETATM   22  C   UNL     1     -42.262  58.354 -58.373  1.00  0.00     0.031 A 
HETATM   23  C   UNL     1     -42.463  57.385 -57.379  1.00  0.00     0.053 A 
HETATM   24  C   UNL     1     -42.840  56.074 -57.702  1.00  0.00     0.036 A 
HETATM   25 CL   UNL     1     -43.117  54.942 -56.435  1.00  0.00    -0.084 Cl
HETATM   26  C   UNL     1     -43.005  55.685 -59.023  1.00  0.00     0.024 A 
HETATM   27  C   UNL     1     -42.779  56.615 -60.032  1.00  0.00     0.004 A 
HETATM   28  C   UNL     1     -42.411  57.925 -59.705  1.00  0.00     0.029 A 
ENDBRANCH  19  22
ENDBRANCH  14  15
ENDBRANCH  13  14
ENDBRANCH  12  13
ENDBRANCH   9  12
ENDBRANCH   5   8
BRANCH   1  29
HETATM   29  C   UNL     1     -42.250  58.403 -53.492  1.00  0.00     0.296 C 
BRANCH  29  30
HETATM   30  C   UNL     1     -41.693  57.169 -52.887  1.00  0.00     0.092 A 
HETATM   31  C   UNL     1     -41.308  56.950 -51.583  1.00  0.00     0.078 A 
HETATM   32  C   UNL     1     -41.282  57.757 -50.348  1.00  0.00     0.079 C 
HETATM   33  O   UNL     1     -40.867  55.666 -51.492  1.00  0.00    -0.294 OA
HETATM   34  C   UNL     1     -40.991  55.158 -52.758  1.00  0.00     0.180 A 
HETATM   35  N   UNL     1     -41.485  56.023 -53.632  1.00  0.00    -0.224 NA
BRANCH  34  36
HETATM   36  C   UNL     1     -40.592  53.764 -52.938  1.00  0.00     0.017 A 
HETATM   37  C   UNL     1     -40.117  52.991 -51.864  1.00  0.00     0.017 A 
HETATM   38  C   UNL     1     -39.746  51.656 -52.049  1.00  0.00     0.025 A 
HETATM   39  C   UNL     1     -39.847  51.080 -53.313  1.00  0.00     0.034 A 
HETATM   40 CL   UNL     1     -39.396  49.438 -53.543  1.00  0.00    -0.084 Cl
HETATM   41  C   UNL     1     -40.313  51.828 -54.390  1.00  0.00     0.025 A 
HETATM   42  C   UNL     1     -40.683  53.165 -54.203  1.00  0.00     0.017 A 
ENDBRANCH  34  36
ENDBRANCH  29  30
ENDBRANCH   1  29
TORSDOF 9
ENDMDL
MODEL 10
REMARK VINA RESULT:      -7.6      2.872      6.464
REMARK  9 active torsions:
REMARK  status: ('A' for Active; 'I' for Inactive)
REMARK    1  A    between atoms: C_4  and  C_5 
REMARK    2  A    between atoms: C_13  and  C_14 
REMARK    3  A    between atoms: C_14  and  N_15 
REMARK    4  A    between atoms: C_19  and  C_20 
REMARK       I    between atoms: C_20  and  N_21 
REMARK    5  A    between atoms: N_21  and  C_22 
REMARK    6  A    between atoms: C_22  and  C_23 
REMARK    7  A    between atoms: C_23  and  C_24 
REMARK    8  A    between atoms: C_24  and  N_25 
REMARK    9  A    between atoms: N_29  and  C_30 
ROOT
HETATM    1  N   UNL     1     -44.258  59.132 -50.612  1.00  0.00    -0.066 N 
HETATM    2  H   UNL     1     -43.773  58.623 -49.856  1.00  0.00     0.280 HD
HETATM    3  C   UNL     1     -43.187  59.663 -51.532  1.00  0.00     0.236 C 
HETATM    4  C   UNL     1     -42.395  60.773 -50.845  1.00  0.00     0.042 C 
HETATM    5  C   UNL     1     -43.299  61.910 -50.368  1.00  0.00     0.081 C 
HETATM    6  C   UNL     1     -44.379  61.352 -49.442  1.00  0.00     0.042 C 
HETATM    7  C   UNL     1     -45.161  60.184 -50.028  1.00  0.00     0.236 C 
ENDROOT
BRANCH   5   8
HETATM    8  C   UNL     1     -43.878  62.626 -51.588  1.00  0.00     0.221 C 
HETATM    9  N   UNL     1     -43.040  62.678 -52.678  1.00  0.00    -0.361 N 
HETATM   10  H   UNL     1     -42.104  62.291 -52.599  1.00  0.00     0.162 HD
HETATM   11  O   UNL     1     -45.045  63.009 -51.628  1.00  0.00    -0.273 OA
BRANCH   9  12
HETATM   12  C   UNL     1     -43.526  62.994 -54.010  1.00  0.00     0.124 C 
BRANCH  12  13
HETATM   13  C   UNL     1     -43.925  61.771 -54.843  1.00  0.00     0.047 C 
BRANCH  13  14
HETATM   14  C   UNL     1     -42.715  60.859 -55.036  1.00  0.00     0.236 C 
BRANCH  14  15
HETATM   15  N   UNL     1     -42.470  60.533 -56.494  1.00  0.00    -0.068 N 
HETATM   16  H   UNL     1     -41.625  61.028 -56.812  1.00  0.00     0.280 HD
HETATM   17  C   UNL     1     -42.180  59.025 -56.660  1.00  0.00     0.254 C 
HETATM   18  C   UNL     1     -41.963  58.653 -58.142  1.00  0.00     0.150 C 
HETATM   19  N   UNL     1     -43.082  59.114 -58.982  1.00  0.00    -0.378 N 
HETATM   20  C   UNL     1     -43.339  60.564 -58.882  1.00  0.00     0.150 C 
HETATM   21  C   UNL     1     -43.626  60.958 -57.417  1.00  0.00     0.254 C 
BRANCH  19  22
HETATM   22  C   UNL     1     -44.180  58.288 -59.235  1.00  0.00     0.031 A 
HETATM   23  C   UNL     1     -44.125  57.164 -60.072  1.00  0.00     0.053 A 
HETATM   24  C   UNL     1     -45.251  56.357 -60.288  1.00  0.00     0.036 A 
HETATM   25 CL   UNL     1     -45.109  54.964 -61.289  1.00  0.00    -0.084 Cl
HETATM   26  C   UNL     1     -46.469  56.661 -59.698  1.00  0.00     0.024 A 
HETATM   27  C   UNL     1     -46.564  57.789 -58.891  1.00  0.00     0.004 A 
HETATM   28  C   UNL     1     -45.435  58.587 -58.670  1.00  0.00     0.029 A 
ENDBRANCH  19  22
ENDBRANCH  14  15
ENDBRANCH  13  14
ENDBRANCH  12  13
ENDBRANCH   9  12
ENDBRANCH   5   8
BRANCH   1  29
HETATM   29  C   UNL     1     -45.110  58.062 -51.292  1.00  0.00     0.296 C 
BRANCH  29  30
HETATM   30  C   UNL     1     -44.379  57.173 -52.227  1.00  0.00     0.092 A 
HETATM   31  C   UNL     1     -44.403  57.170 -53.604  1.00  0.00     0.078 A 
HETATM   32  C   UNL     1     -45.090  57.961 -54.643  1.00  0.00     0.079 C 
HETATM   33  O   UNL     1     -43.568  56.183 -54.029  1.00  0.00    -0.294 OA
HETATM   34  C   UNL     1     -43.078  55.614 -52.883  1.00  0.00     0.180 A 
HETATM   35  N   UNL     1     -43.535  56.176 -51.773  1.00  0.00    -0.224 NA
BRANCH  34  36
HETATM   36  C   UNL     1     -42.129  54.517 -53.059  1.00  0.00     0.017 A 
HETATM   37  C   UNL     1     -41.902  53.937 -54.319  1.00  0.00     0.017 A 
HETATM   38  C   UNL     1     -40.985  52.893 -54.474  1.00  0.00     0.025 A 
HETATM   39  C   UNL     1     -40.285  52.419 -53.368  1.00  0.00     0.034 A 
HETATM   40 CL   UNL     1     -39.154  51.139 -53.556  1.00  0.00    -0.084 Cl
HETATM   41  C   UNL     1     -40.496  52.979 -52.111  1.00  0.00     0.025 A 
HETATM   42  C   UNL     1     -41.415  54.023 -51.958  1.00  0.00     0.017 A 
ENDBRANCH  34  36
ENDBRANCH  29  30
ENDBRANCH   1  29
TORSDOF 9
ENDMDL
