MODEL 1
REMARK VINA RESULT:      -8.6      0.000      0.000
REMARK  5 active torsions:
REMARK  status: ('A' for Active; 'I' for Inactive)
REMARK    1  A    between atoms: C_9  and  C_10 
REMARK       I    between atoms: C_10  and  N_11 
REMARK    2  A    between atoms: N_11  and  C_12 
REMARK    3  A    between atoms: C_12  and  C_13 
REMARK    4  A    between atoms: C_16  and  N_17 
REMARK       I    between atoms: N_17  and  C_18 
REMARK       I    between atoms: C_18  and  N_19 
REMARK    5  A    between atoms: N_19  and  C_20 
ROOT
HETATM    1  C   UNL     1     -43.602  56.624 -52.659  1.00  0.00     0.161 C 
ENDROOT
BRANCH   1   2
HETATM    2  N   UNL     1     -42.904  55.566 -51.980  1.00  0.00    -0.351 N 
HETATM    3  C   UNL     1     -41.681  55.737 -51.379  1.00  0.00     0.273 C 
HETATM    4  O   UNL     1     -41.083  56.808 -51.359  1.00  0.00    -0.266 OA
HETATM    5  H   UNL     1     -43.300  54.632 -51.920  1.00  0.00     0.163 HD
BRANCH   3   6
HETATM    6  C   UNL     1     -41.167  54.497 -50.773  1.00  0.00     0.157 A 
HETATM    7  C   UNL     1     -40.693  53.330 -51.442  1.00  0.00     0.029 A 
HETATM    8  C   UNL     1     -40.529  52.922 -52.780  1.00  0.00     0.023 A 
HETATM    9  C   UNL     1     -40.336  52.452 -50.426  1.00  0.00     0.063 A 
HETATM   10  C   UNL     1     -40.015  51.644 -53.056  1.00  0.00    -0.061 A 
HETATM   11  C   UNL     1     -39.825  51.188 -54.474  1.00  0.00     0.048 C 
HETATM   12  C   UNL     1     -39.667  50.790 -52.001  1.00  0.00     0.009 A 
HETATM   13  C   UNL     1     -39.821  51.176 -50.665  1.00  0.00     0.032 A 
HETATM   14  N   UNL     1     -40.604  53.117 -49.263  1.00  0.00    -0.277 N 
HETATM   15  H   UNL     1     -40.466  52.777 -48.318  1.00  0.00     0.189 HD
HETATM   16  N   UNL     1     -41.105  54.352 -49.429  1.00  0.00    -0.168 NA
ENDBRANCH   3   6
ENDBRANCH   1   2
BRANCH   1  17
HETATM   17  C   UNL     1     -43.344  56.543 -54.139  1.00  0.00    -0.040 A 
HETATM   18  C   UNL     1     -43.172  55.307 -54.773  1.00  0.00     0.011 A 
HETATM   19  C   UNL     1     -42.839  55.243 -56.131  1.00  0.00     0.030 A 
HETATM   20  C   UNL     1     -42.644  56.411 -56.871  1.00  0.00     0.036 A 
HETATM   21  C   UNL     1     -42.866  57.645 -56.250  1.00  0.00     0.030 A 
HETATM   22  C   UNL     1     -43.201  57.713 -54.894  1.00  0.00     0.011 A 
BRANCH  20  23
HETATM   23  N   UNL     1     -42.261  56.441 -58.223  1.00  0.00    -0.309 N 
HETATM   24  C   UNL     1     -42.969  56.497 -59.387  1.00  0.00     0.321 C 
HETATM   25  N   UNL     1     -44.306  56.250 -59.313  1.00  0.00    -0.339 N 
HETATM   26  O   UNL     1     -42.367  56.700 -60.438  1.00  0.00    -0.247 OA
HETATM   27  H   UNL     1     -44.552  55.640 -58.547  1.00  0.00     0.164 HD
HETATM   28  H   UNL     1     -41.266  56.416 -58.412  1.00  0.00     0.170 HD
BRANCH  25  29
HETATM   29  C   UNL     1     -45.187  56.166 -60.473  1.00  0.00     0.078 C 
HETATM   30  C   UNL     1     -45.034  54.861 -61.253  1.00  0.00     0.032 C 
HETATM   31  C   UNL     1     -46.643  56.429 -60.097  1.00  0.00     0.032 C 
ENDBRANCH  25  29
ENDBRANCH  20  23
ENDBRANCH   1  17
TORSDOF 5
ENDMDL
MODEL 2
REMARK VINA RESULT:      -7.8     14.359     16.093
REMARK  5 active torsions:
REMARK  status: ('A' for Active; 'I' for Inactive)
REMARK    1  A    between atoms: C_9  and  C_10 
REMARK       I    between atoms: C_10  and  N_11 
REMARK    2  A    between atoms: N_11  and  C_12 
REMARK    3  A    between atoms: C_12  and  C_13 
REMARK    4  A    between atoms: C_16  and  N_17 
REMARK       I    between atoms: N_17  and  C_18 
REMARK       I    between atoms: C_18  and  N_19 
REMARK    5  A    between atoms: N_19  and  C_20 
ROOT
HETATM    1  C   UNL     1     -37.204  42.419 -56.040  1.00  0.00     0.161 C 
ENDROOT
BRANCH   1   2
HETATM    2  N   UNL     1     -37.361  41.684 -54.816  1.00  0.00    -0.351 N 
HETATM    3  C   UNL     1     -36.622  41.936 -53.686  1.00  0.00     0.273 C 
HETATM    4  O   UNL     1     -35.772  42.818 -53.619  1.00  0.00    -0.266 OA
HETATM    5  H   UNL     1     -38.041  40.932 -54.740  1.00  0.00     0.163 HD
BRANCH   3   6
HETATM    6  C   UNL     1     -36.957  41.031 -52.573  1.00  0.00     0.157 A 
HETATM    7  C   UNL     1     -36.076  40.503 -51.584  1.00  0.00     0.029 A 
HETATM    8  C   UNL     1     -34.704  40.609 -51.283  1.00  0.00     0.023 A 
HETATM    9  C   UNL     1     -36.878  39.703 -50.778  1.00  0.00     0.063 A 
HETATM   10  C   UNL     1     -34.180  39.906 -50.185  1.00  0.00    -0.061 A 
HETATM   11  C   UNL     1     -32.722  40.009 -49.840  1.00  0.00     0.048 C 
HETATM   12  C   UNL     1     -35.024  39.112 -49.398  1.00  0.00     0.009 A 
HETATM   13  C   UNL     1     -36.389  38.993 -49.678  1.00  0.00     0.032 A 
HETATM   14  N   UNL     1     -38.133  39.798 -51.309  1.00  0.00    -0.277 N 
HETATM   15  H   UNL     1     -38.975  39.343 -50.975  1.00  0.00     0.189 HD
HETATM   16  N   UNL     1     -38.223  40.590 -52.390  1.00  0.00    -0.168 NA
ENDBRANCH   3   6
ENDBRANCH   1   2
BRANCH   1  17
HETATM   17  C   UNL     1     -37.444  41.515 -57.219  1.00  0.00    -0.040 A 
HETATM   18  C   UNL     1     -37.881  40.198 -57.037  1.00  0.00     0.011 A 
HETATM   19  C   UNL     1     -38.012  39.333 -58.130  1.00  0.00     0.030 A 
HETATM   20  C   UNL     1     -37.679  39.760 -59.417  1.00  0.00     0.036 A 
HETATM   21  C   UNL     1     -37.291  41.091 -59.605  1.00  0.00     0.030 A 
HETATM   22  C   UNL     1     -37.162  41.958 -58.516  1.00  0.00     0.011 A 
BRANCH  20  23
HETATM   23  N   UNL     1     -37.733  38.947 -60.563  1.00  0.00    -0.309 N 
HETATM   24  C   UNL     1     -38.752  38.289 -61.187  1.00  0.00     0.321 C 
HETATM   25  N   UNL     1     -39.922  38.163 -60.502  1.00  0.00    -0.339 N 
HETATM   26  O   UNL     1     -38.548  37.794 -62.292  1.00  0.00    -0.247 OA
HETATM   27  H   UNL     1     -39.793  38.156 -59.501  1.00  0.00     0.164 HD
HETATM   28  H   UNL     1     -36.858  38.793 -61.050  1.00  0.00     0.170 HD
BRANCH  25  29
HETATM   29  C   UNL     1     -41.070  37.401 -60.980  1.00  0.00     0.078 C 
HETATM   30  C   UNL     1     -41.821  36.679 -59.863  1.00  0.00     0.032 C 
HETATM   31  C   UNL     1     -42.007  38.260 -61.824  1.00  0.00     0.032 C 
ENDBRANCH  25  29
ENDBRANCH  20  23
ENDBRANCH   1  17
TORSDOF 5
ENDMDL
MODEL 3
REMARK VINA RESULT:      -7.7      1.861      2.486
REMARK  5 active torsions:
REMARK  status: ('A' for Active; 'I' for Inactive)
REMARK    1  A    between atoms: C_9  and  C_10 
REMARK       I    between atoms: C_10  and  N_11 
REMARK    2  A    between atoms: N_11  and  C_12 
REMARK    3  A    between atoms: C_12  and  C_13 
REMARK    4  A    between atoms: C_16  and  N_17 
REMARK       I    between atoms: N_17  and  C_18 
REMARK       I    between atoms: C_18  and  N_19 
REMARK    5  A    between atoms: N_19  and  C_20 
ROOT
HETATM    1  C   UNL     1     -43.860  57.432 -51.224  1.00  0.00     0.161 C 
ENDROOT
BRANCH   1   2
HETATM    2  N   UNL     1     -43.081  56.270 -50.896  1.00  0.00    -0.351 N 
HETATM    3  C   UNL     1     -41.810  56.339 -50.380  1.00  0.00     0.273 C 
HETATM    4  O   UNL     1     -41.234  57.396 -50.143  1.00  0.00    -0.266 OA
HETATM    5  H   UNL     1     -43.451  55.334 -51.038  1.00  0.00     0.163 HD
BRANCH   3   6
HETATM    6  C   UNL     1     -41.217  55.010 -50.151  1.00  0.00     0.157 A 
HETATM    7  C   UNL     1     -40.822  54.051 -51.130  1.00  0.00     0.029 A 
HETATM    8  C   UNL     1     -40.823  53.975 -52.536  1.00  0.00     0.023 A 
HETATM    9  C   UNL     1     -40.336  52.972 -50.402  1.00  0.00     0.063 A 
HETATM   10  C   UNL     1     -40.339  52.816 -53.167  1.00  0.00    -0.061 A 
HETATM   11  C   UNL     1     -40.324  52.714 -54.665  1.00  0.00     0.048 C 
HETATM   12  C   UNL     1     -39.857  51.752 -52.394  1.00  0.00     0.009 A 
HETATM   13  C   UNL     1     -39.846  51.807 -50.997  1.00  0.00     0.032 A 
HETATM   14  N   UNL     1     -40.461  53.335 -49.091  1.00  0.00    -0.277 N 
HETATM   15  H   UNL     1     -40.204  52.788 -48.277  1.00  0.00     0.189 HD
HETATM   16  N   UNL     1     -40.987  54.556 -48.898  1.00  0.00    -0.168 NA
ENDBRANCH   3   6
ENDBRANCH   1   2
BRANCH   1  17
HETATM   17  C   UNL     1     -44.063  57.513 -52.713  1.00  0.00    -0.040 A 
HETATM   18  C   UNL     1     -44.667  58.632 -53.297  1.00  0.00     0.011 A 
HETATM   19  C   UNL     1     -44.938  58.661 -54.670  1.00  0.00     0.030 A 
HETATM   20  C   UNL     1     -44.637  57.561 -55.476  1.00  0.00     0.036 A 
HETATM   21  C   UNL     1     -43.987  56.464 -54.902  1.00  0.00     0.030 A 
HETATM   22  C   UNL     1     -43.713  56.432 -53.531  1.00  0.00     0.011 A 
BRANCH  20  23
HETATM   23  N   UNL     1     -44.919  57.484 -56.851  1.00  0.00    -0.309 N 
HETATM   24  C   UNL     1     -44.156  57.674 -57.967  1.00  0.00     0.321 C 
HETATM   25  N   UNL     1     -42.947  58.276 -57.798  1.00  0.00    -0.339 N 
HETATM   26  O   UNL     1     -44.617  57.357 -59.060  1.00  0.00    -0.247 OA
HETATM   27  H   UNL     1     -42.925  58.897 -57.002  1.00  0.00     0.164 HD
HETATM   28  H   UNL     1     -45.869  57.242 -57.106  1.00  0.00     0.170 HD
BRANCH  25  29
HETATM   29  C   UNL     1     -42.059  58.647 -58.893  1.00  0.00     0.078 C 
HETATM   30  C   UNL     1     -41.806  57.507 -59.878  1.00  0.00     0.032 C 
HETATM   31  C   UNL     1     -42.537  59.910 -59.606  1.00  0.00     0.032 C 
ENDBRANCH  25  29
ENDBRANCH  20  23
ENDBRANCH   1  17
TORSDOF 5
ENDMDL
MODEL 4
REMARK VINA RESULT:      -7.5      3.883      4.988
REMARK  5 active torsions:
REMARK  status: ('A' for Active; 'I' for Inactive)
REMARK    1  A    between atoms: C_9  and  C_10 
REMARK       I    between atoms: C_10  and  N_11 
REMARK    2  A    between atoms: N_11  and  C_12 
REMARK    3  A    between atoms: C_12  and  C_13 
REMARK    4  A    between atoms: C_16  and  N_17 
REMARK       I    between atoms: N_17  and  C_18 
REMARK       I    between atoms: C_18  and  N_19 
REMARK    5  A    between atoms: N_19  and  C_20 
ROOT
HETATM    1  C   UNL     1     -42.503  56.160 -57.151  1.00  0.00     0.161 C 
ENDROOT
BRANCH   1   2
HETATM    2  N   UNL     1     -41.974  55.680 -55.904  1.00  0.00    -0.351 N 
HETATM    3  C   UNL     1     -42.541  54.650 -55.193  1.00  0.00     0.273 C 
HETATM    4  O   UNL     1     -43.540  54.043 -55.565  1.00  0.00    -0.266 OA
HETATM    5  H   UNL     1     -41.142  56.095 -55.493  1.00  0.00     0.163 HD
BRANCH   3   6
HETATM    6  C   UNL     1     -41.825  54.363 -53.938  1.00  0.00     0.157 A 
HETATM    7  C   UNL     1     -41.038  53.215 -53.626  1.00  0.00     0.029 A 
HETATM    8  C   UNL     1     -40.658  52.033 -54.291  1.00  0.00     0.023 A 
HETATM    9  C   UNL     1     -40.594  53.425 -52.326  1.00  0.00     0.063 A 
HETATM   10  C   UNL     1     -39.846  51.097 -53.627  1.00  0.00    -0.061 A 
HETATM   11  C   UNL     1     -39.422  49.832 -54.317  1.00  0.00     0.048 C 
HETATM   12  C   UNL     1     -39.419  51.349 -52.317  1.00  0.00     0.009 A 
HETATM   13  C   UNL     1     -39.785  52.517 -51.639  1.00  0.00     0.032 A 
HETATM   14  N   UNL     1     -41.116  54.632 -51.957  1.00  0.00    -0.277 N 
HETATM   15  H   UNL     1     -40.998  55.103 -51.067  1.00  0.00     0.189 HD
HETATM   16  N   UNL     1     -41.862  55.230 -52.900  1.00  0.00    -0.168 NA
ENDBRANCH   3   6
ENDBRANCH   1   2
BRANCH   1  17
HETATM   17  C   UNL     1     -42.521  57.664 -57.157  1.00  0.00    -0.040 A 
HETATM   18  C   UNL     1     -42.731  58.376 -58.344  1.00  0.00     0.011 A 
HETATM   19  C   UNL     1     -42.652  59.773 -58.362  1.00  0.00     0.030 A 
HETATM   20  C   UNL     1     -42.333  60.481 -57.200  1.00  0.00     0.036 A 
HETATM   21  C   UNL     1     -42.174  59.773 -56.004  1.00  0.00     0.030 A 
HETATM   22  C   UNL     1     -42.254  58.378 -55.983  1.00  0.00     0.011 A 
BRANCH  20  23
HETATM   23  N   UNL     1     -42.185  61.877 -57.137  1.00  0.00    -0.309 N 
HETATM   24  C   UNL     1     -41.704  62.800 -58.019  1.00  0.00     0.321 C 
HETATM   25  N   UNL     1     -41.009  62.332 -59.091  1.00  0.00    -0.339 N 
HETATM   26  O   UNL     1     -41.862  63.993 -57.773  1.00  0.00    -0.247 OA
HETATM   27  H   UNL     1     -40.548  61.452 -58.908  1.00  0.00     0.164 HD
HETATM   28  H   UNL     1     -42.482  62.326 -56.278  1.00  0.00     0.170 HD
BRANCH  25  29
HETATM   29  C   UNL     1     -40.340  63.184 -60.068  1.00  0.00     0.078 C 
HETATM   30  C   UNL     1     -38.929  63.591 -59.647  1.00  0.00     0.032 C 
HETATM   31  C   UNL     1     -40.354  62.564 -61.463  1.00  0.00     0.032 C 
ENDBRANCH  25  29
ENDBRANCH  20  23
ENDBRANCH   1  17
TORSDOF 5
ENDMDL
MODEL 5
REMARK VINA RESULT:      -7.3     14.490     16.387
REMARK  5 active torsions:
REMARK  status: ('A' for Active; 'I' for Inactive)
REMARK    1  A    between atoms: C_9  and  C_10 
REMARK       I    between atoms: C_10  and  N_11 
REMARK    2  A    between atoms: N_11  and  C_12 
REMARK    3  A    between atoms: C_12  and  C_13 
REMARK    4  A    between atoms: C_16  and  N_17 
REMARK       I    between atoms: N_17  and  C_18 
REMARK       I    between atoms: C_18  and  N_19 
REMARK    5  A    between atoms: N_19  and  C_20 
ROOT
HETATM    1  C   UNL     1     -37.544  42.327 -56.332  1.00  0.00     0.161 C 
ENDROOT
BRANCH   1   2
HETATM    2  N   UNL     1     -36.533  41.904 -55.402  1.00  0.00    -0.351 N 
HETATM    3  C   UNL     1     -36.818  41.290 -54.207  1.00  0.00     0.273 C 
HETATM    4  O   UNL     1     -37.960  41.038 -53.835  1.00  0.00    -0.266 OA
HETATM    5  H   UNL     1     -35.546  42.048 -55.600  1.00  0.00     0.163 HD
BRANCH   3   6
HETATM    6  C   UNL     1     -35.610  40.977 -53.426  1.00  0.00     0.157 A 
HETATM    7  C   UNL     1     -34.326  40.601 -53.919  1.00  0.00     0.029 A 
HETATM    8  C   UNL     1     -33.742  40.403 -55.185  1.00  0.00     0.023 A 
HETATM    9  C   UNL     1     -33.546  40.409 -52.785  1.00  0.00     0.063 A 
HETATM   10  C   UNL     1     -32.394  40.014 -55.273  1.00  0.00    -0.061 A 
HETATM   11  C   UNL     1     -31.747  39.803 -56.611  1.00  0.00     0.048 C 
HETATM   12  C   UNL     1     -31.644  39.833 -54.103  1.00  0.00     0.009 A 
HETATM   13  C   UNL     1     -32.204  40.025 -52.836  1.00  0.00     0.032 A 
HETATM   14  N   UNL     1     -34.373  40.671 -51.730  1.00  0.00    -0.277 N 
HETATM   15  H   UNL     1     -34.139  40.630 -50.744  1.00  0.00     0.189 HD
HETATM   16  N   UNL     1     -35.624  41.018 -52.074  1.00  0.00    -0.168 NA
ENDBRANCH   3   6
ENDBRANCH   1   2
BRANCH   1  17
HETATM   17  C   UNL     1     -37.495  41.472 -57.569  1.00  0.00    -0.040 A 
HETATM   18  C   UNL     1     -37.220  42.035 -58.821  1.00  0.00     0.011 A 
HETATM   19  C   UNL     1     -37.269  41.253 -59.981  1.00  0.00     0.030 A 
HETATM   20  C   UNL     1     -37.623  39.903 -59.913  1.00  0.00     0.036 A 
HETATM   21  C   UNL     1     -37.848  39.329 -58.657  1.00  0.00     0.030 A 
HETATM   22  C   UNL     1     -37.798  40.107 -57.496  1.00  0.00     0.011 A 
BRANCH  20  23
HETATM   23  N   UNL     1     -37.745  39.057 -61.029  1.00  0.00    -0.309 N 
HETATM   24  C   UNL     1     -38.794  38.361 -61.555  1.00  0.00     0.321 C 
HETATM   25  N   UNL     1     -39.905  38.231 -60.778  1.00  0.00    -0.339 N 
HETATM   26  O   UNL     1     -38.664  37.839 -62.659  1.00  0.00    -0.247 OA
HETATM   27  H   UNL     1     -39.699  38.255 -59.790  1.00  0.00     0.164 HD
HETATM   28  H   UNL     1     -36.907  38.907 -61.578  1.00  0.00     0.170 HD
BRANCH  25  29
HETATM   29  C   UNL     1     -41.069  37.432 -61.145  1.00  0.00     0.078 C 
HETATM   30  C   UNL     1     -41.711  36.721 -59.955  1.00  0.00     0.032 C 
HETATM   31  C   UNL     1     -42.091  38.250 -61.930  1.00  0.00     0.032 C 
ENDBRANCH  25  29
ENDBRANCH  20  23
ENDBRANCH   1  17
TORSDOF 5
ENDMDL
MODEL 6
REMARK VINA RESULT:      -7.0      3.899      6.249
REMARK  5 active torsions:
REMARK  status: ('A' for Active; 'I' for Inactive)
REMARK    1  A    between atoms: C_9  and  C_10 
REMARK       I    between atoms: C_10  and  N_11 
REMARK    2  A    between atoms: N_11  and  C_12 
REMARK    3  A    between atoms: C_12  and  C_13 
REMARK    4  A    between atoms: C_16  and  N_17 
REMARK       I    between atoms: N_17  and  C_18 
REMARK       I    between atoms: C_18  and  N_19 
REMARK    5  A    between atoms: N_19  and  C_20 
ROOT
HETATM    1  C   UNL     1     -41.734  57.497 -54.604  1.00  0.00     0.161 C 
ENDROOT
BRANCH   1   2
HETATM    2  N   UNL     1     -41.339  56.489 -53.660  1.00  0.00    -0.351 N 
HETATM    3  C   UNL     1     -41.676  55.164 -53.790  1.00  0.00     0.273 C 
HETATM    4  O   UNL     1     -42.333  54.724 -54.728  1.00  0.00    -0.266 OA
HETATM    5  H   UNL     1     -40.784  56.726 -52.842  1.00  0.00     0.163 HD
BRANCH   3   6
HETATM    6  C   UNL     1     -41.172  54.337 -52.680  1.00  0.00     0.157 A 
HETATM    7  C   UNL     1     -40.625  53.022 -52.751  1.00  0.00     0.029 A 
HETATM    8  C   UNL     1     -40.365  52.083 -53.768  1.00  0.00     0.023 A 
HETATM    9  C   UNL     1     -40.313  52.690 -51.438  1.00  0.00     0.063 A 
HETATM   10  C   UNL     1     -39.801  50.839 -53.434  1.00  0.00    -0.061 A 
HETATM   11  C   UNL     1     -39.508  49.825 -54.501  1.00  0.00     0.048 C 
HETATM   12  C   UNL     1     -39.500  50.547 -52.097  1.00  0.00     0.009 A 
HETATM   13  C   UNL     1     -39.750  51.465 -51.072  1.00  0.00     0.032 A 
HETATM   14  N   UNL     1     -40.672  53.779 -50.695  1.00  0.00    -0.277 N 
HETATM   15  H   UNL     1     -40.586  53.890 -49.691  1.00  0.00     0.189 HD
HETATM   16  N   UNL     1     -41.192  54.792 -51.406  1.00  0.00    -0.168 NA
ENDBRANCH   3   6
ENDBRANCH   1   2
BRANCH   1  17
HETATM   17  C   UNL     1     -42.882  58.298 -54.053  1.00  0.00    -0.040 A 
HETATM   18  C   UNL     1     -43.614  57.841 -52.951  1.00  0.00     0.011 A 
HETATM   19  C   UNL     1     -44.739  58.542 -52.502  1.00  0.00     0.030 A 
HETATM   20  C   UNL     1     -45.169  59.695 -53.163  1.00  0.00     0.036 A 
HETATM   21  C   UNL     1     -44.408  60.179 -54.233  1.00  0.00     0.030 A 
HETATM   22  C   UNL     1     -43.283  59.483 -54.683  1.00  0.00     0.011 A 
BRANCH  20  23
HETATM   23  N   UNL     1     -46.313  60.432 -52.813  1.00  0.00    -0.309 N 
HETATM   24  C   UNL     1     -46.531  61.436 -51.915  1.00  0.00     0.321 C 
HETATM   25  N   UNL     1     -45.560  61.661 -50.988  1.00  0.00    -0.339 N 
HETATM   26  O   UNL     1     -47.602  62.035 -51.944  1.00  0.00    -0.247 OA
HETATM   27  H   UNL     1     -45.023  60.834 -50.771  1.00  0.00     0.164 HD
HETATM   28  H   UNL     1     -47.169  60.201 -53.303  1.00  0.00     0.170 HD
BRANCH  25  29
HETATM   29  C   UNL     1     -45.680  62.620 -49.895  1.00  0.00     0.078 C 
HETATM   30  C   UNL     1     -46.168  61.992 -48.591  1.00  0.00     0.032 C 
HETATM   31  C   UNL     1     -44.389  63.409 -49.691  1.00  0.00     0.032 C 
ENDBRANCH  25  29
ENDBRANCH  20  23
ENDBRANCH   1  17
TORSDOF 5
ENDMDL
MODEL 7
REMARK VINA RESULT:      -7.0     14.627     19.026
REMARK  5 active torsions:
REMARK  status: ('A' for Active; 'I' for Inactive)
REMARK    1  A    between atoms: C_9  and  C_10 
REMARK       I    between atoms: C_10  and  N_11 
REMARK    2  A    between atoms: N_11  and  C_12 
REMARK    3  A    between atoms: C_12  and  C_13 
REMARK    4  A    between atoms: C_16  and  N_17 
REMARK       I    between atoms: N_17  and  C_18 
REMARK       I    between atoms: C_18  and  N_19 
REMARK    5  A    between atoms: N_19  and  C_20 
ROOT
HETATM    1  C   UNL     1     -35.264  42.050 -52.509  1.00  0.00     0.161 C 
ENDROOT
BRANCH   1   2
HETATM    2  N   UNL     1     -35.767  41.241 -53.586  1.00  0.00    -0.351 N 
HETATM    3  C   UNL     1     -35.646  41.591 -54.909  1.00  0.00     0.273 C 
HETATM    4  O   UNL     1     -35.089  42.616 -55.287  1.00  0.00    -0.266 OA
HETATM    5  H   UNL     1     -36.242  40.361 -53.403  1.00  0.00     0.163 HD
BRANCH   3   6
HETATM    6  C   UNL     1     -36.262  40.607 -55.815  1.00  0.00     0.157 A 
HETATM    7  C   UNL     1     -36.717  40.817 -57.151  1.00  0.00     0.029 A 
HETATM    8  C   UNL     1     -36.761  41.899 -58.051  1.00  0.00     0.023 A 
HETATM    9  C   UNL     1     -37.221  39.587 -57.557  1.00  0.00     0.063 A 
HETATM   10  C   UNL     1     -37.312  41.713 -59.330  1.00  0.00    -0.061 A 
HETATM   11  C   UNL     1     -37.364  42.849 -60.310  1.00  0.00     0.048 C 
HETATM   12  C   UNL     1     -37.807  40.455 -59.700  1.00  0.00     0.009 A 
HETATM   13  C   UNL     1     -37.773  39.367 -58.822  1.00  0.00     0.032 A 
HETATM   14  N   UNL     1     -37.042  38.753 -56.490  1.00  0.00    -0.277 N 
HETATM   15  H   UNL     1     -37.295  37.773 -56.430  1.00  0.00     0.189 HD
HETATM   16  N   UNL     1     -36.467  39.329 -55.422  1.00  0.00    -0.168 NA
ENDBRANCH   3   6
ENDBRANCH   1   2
BRANCH   1  17
HETATM   17  C   UNL     1     -34.457  41.203 -51.563  1.00  0.00    -0.040 A 
HETATM   18  C   UNL     1     -33.066  41.112 -51.687  1.00  0.00     0.011 A 
HETATM   19  C   UNL     1     -32.331  40.249 -50.865  1.00  0.00     0.030 A 
HETATM   20  C   UNL     1     -32.977  39.443 -49.926  1.00  0.00     0.036 A 
HETATM   21  C   UNL     1     -34.361  39.571 -49.766  1.00  0.00     0.030 A 
HETATM   22  C   UNL     1     -35.097  40.433 -50.584  1.00  0.00     0.011 A 
BRANCH  20  23
HETATM   23  N   UNL     1     -32.326  38.514 -49.095  1.00  0.00    -0.309 N 
HETATM   24  C   UNL     1     -31.573  38.649 -47.965  1.00  0.00     0.321 C 
HETATM   25  N   UNL     1     -31.137  39.900 -47.654  1.00  0.00    -0.339 N 
HETATM   26  O   UNL     1     -31.275  37.642 -47.328  1.00  0.00    -0.247 OA
HETATM   27  H   UNL     1     -31.023  40.490 -48.466  1.00  0.00     0.164 HD
HETATM   28  H   UNL     1     -32.407  37.539 -49.355  1.00  0.00     0.170 HD
BRANCH  25  29
HETATM   29  C   UNL     1     -30.238  40.201 -46.545  1.00  0.00     0.078 C 
HETATM   30  C   UNL     1     -30.733  39.661 -45.205  1.00  0.00     0.032 C 
HETATM   31  C   UNL     1     -28.809  39.754 -46.839  1.00  0.00     0.032 C 
ENDBRANCH  25  29
ENDBRANCH  20  23
ENDBRANCH   1  17
TORSDOF 5
ENDMDL
MODEL 8
REMARK VINA RESULT:      -6.9      2.016      2.699
REMARK  5 active torsions:
REMARK  status: ('A' for Active; 'I' for Inactive)
REMARK    1  A    between atoms: C_9  and  C_10 
REMARK       I    between atoms: C_10  and  N_11 
REMARK    2  A    between atoms: N_11  and  C_12 
REMARK    3  A    between atoms: C_12  and  C_13 
REMARK    4  A    between atoms: C_16  and  N_17 
REMARK       I    between atoms: N_17  and  C_18 
REMARK       I    between atoms: C_18  and  N_19 
REMARK    5  A    between atoms: N_19  and  C_20 
ROOT
HETATM    1  C   UNL     1     -43.154  59.527 -53.147  1.00  0.00     0.161 C 
ENDROOT
BRANCH   1   2
HETATM    2  N   UNL     1     -42.752  58.266 -52.586  1.00  0.00    -0.351 N 
HETATM    3  C   UNL     1     -43.645  57.326 -52.132  1.00  0.00     0.273 C 
HETATM    4  O   UNL     1     -44.862  57.475 -52.177  1.00  0.00    -0.266 OA
HETATM    5  H   UNL     1     -41.770  58.019 -52.502  1.00  0.00     0.163 HD
BRANCH   3   6
HETATM    6  C   UNL     1     -42.983  56.131 -51.582  1.00  0.00     0.157 A 
HETATM    7  C   UNL     1     -42.105  55.232 -52.258  1.00  0.00     0.029 A 
HETATM    8  C   UNL     1     -41.567  55.120 -53.555  1.00  0.00     0.023 A 
HETATM    9  C   UNL     1     -41.767  54.277 -51.307  1.00  0.00     0.063 A 
HETATM   10  C   UNL     1     -40.708  54.049 -53.857  1.00  0.00    -0.061 A 
HETATM   11  C   UNL     1     -40.116  53.911 -55.230  1.00  0.00     0.048 C 
HETATM   12  C   UNL     1     -40.391  53.109 -52.867  1.00  0.00     0.009 A 
HETATM   13  C   UNL     1     -40.914  53.202 -51.573  1.00  0.00     0.032 A 
HETATM   14  N   UNL     1     -42.429  54.647 -50.171  1.00  0.00    -0.277 N 
HETATM   15  H   UNL     1     -42.414  54.176 -49.274  1.00  0.00     0.189 HD
HETATM   16  N   UNL     1     -43.172  55.759 -50.295  1.00  0.00    -0.168 NA
ENDBRANCH   3   6
ENDBRANCH   1   2
BRANCH   1  17
HETATM   17  C   UNL     1     -43.291  59.404 -54.641  1.00  0.00    -0.040 A 
HETATM   18  C   UNL     1     -42.247  58.893 -55.420  1.00  0.00     0.011 A 
HETATM   19  C   UNL     1     -42.344  58.870 -56.816  1.00  0.00     0.030 A 
HETATM   20  C   UNL     1     -43.473  59.383 -57.458  1.00  0.00     0.036 A 
HETATM   21  C   UNL     1     -44.538  59.846 -56.678  1.00  0.00     0.030 A 
HETATM   22  C   UNL     1     -44.445  59.869 -55.283  1.00  0.00     0.011 A 
BRANCH  20  23
HETATM   23  N   UNL     1     -43.634  59.446 -58.853  1.00  0.00    -0.309 N 
HETATM   24  C   UNL     1     -44.202  58.599 -59.760  1.00  0.00     0.321 C 
HETATM   25  N   UNL     1     -44.480  57.334 -59.340  1.00  0.00    -0.339 N 
HETATM   26  O   UNL     1     -44.372  58.992 -60.911  1.00  0.00    -0.247 OA
HETATM   27  H   UNL     1     -43.867  57.021 -58.602  1.00  0.00     0.164 HD
HETATM   28  H   UNL     1     -43.267  60.269 -59.315  1.00  0.00     0.170 HD
BRANCH  25  29
HETATM   29  C   UNL     1     -44.987  56.278 -60.209  1.00  0.00     0.078 C 
HETATM   30  C   UNL     1     -44.370  54.911 -59.919  1.00  0.00     0.032 C 
HETATM   31  C   UNL     1     -46.513  56.220 -60.197  1.00  0.00     0.032 C 
ENDBRANCH  25  29
ENDBRANCH  20  23
ENDBRANCH   1  17
TORSDOF 5
ENDMDL
MODEL 9
REMARK VINA RESULT:      -6.9      3.623      4.859
REMARK  5 active torsions:
REMARK  status: ('A' for Active; 'I' for Inactive)
REMARK    1  A    between atoms: C_9  and  C_10 
REMARK       I    between atoms: C_10  and  N_11 
REMARK    2  A    between atoms: N_11  and  C_12 
REMARK    3  A    between atoms: C_12  and  C_13 
REMARK    4  A    between atoms: C_16  and  N_17 
REMARK       I    between atoms: N_17  and  C_18 
REMARK       I    between atoms: C_18  and  N_19 
REMARK    5  A    between atoms: N_19  and  C_20 
ROOT
HETATM    1  C   UNL     1     -42.592  56.791 -57.762  1.00  0.00     0.161 C 
ENDROOT
BRANCH   1   2
HETATM    2  N   UNL     1     -42.131  56.384 -56.463  1.00  0.00    -0.351 N 
HETATM    3  C   UNL     1     -42.436  55.167 -55.904  1.00  0.00     0.273 C 
HETATM    4  O   UNL     1     -43.118  54.317 -56.468  1.00  0.00    -0.266 OA
HETATM    5  H   UNL     1     -41.549  56.997 -55.898  1.00  0.00     0.163 HD
BRANCH   3   6
HETATM    6  C   UNL     1     -41.863  55.000 -54.557  1.00  0.00     0.157 A 
HETATM    7  C   UNL     1     -41.187  53.859 -54.032  1.00  0.00     0.029 A 
HETATM    8  C   UNL     1     -40.822  52.586 -54.509  1.00  0.00     0.023 A 
HETATM    9  C   UNL     1     -40.857  54.205 -52.728  1.00  0.00     0.063 A 
HETATM   10  C   UNL     1     -40.141  51.697 -53.660  1.00  0.00    -0.061 A 
HETATM   11  C   UNL     1     -39.736  50.336 -54.147  1.00  0.00     0.048 C 
HETATM   12  C   UNL     1     -39.826  52.087 -52.351  1.00  0.00     0.009 A 
HETATM   13  C   UNL     1     -40.178  53.348 -51.858  1.00  0.00     0.032 A 
HETATM   14  N   UNL     1     -41.331  55.475 -52.559  1.00  0.00    -0.277 N 
HETATM   15  H   UNL     1     -41.268  56.046 -51.724  1.00  0.00     0.189 HD
HETATM   16  N   UNL     1     -41.943  55.990 -53.638  1.00  0.00    -0.168 NA
ENDBRANCH   3   6
ENDBRANCH   1   2
BRANCH   1  17
HETATM   17  C   UNL     1     -44.008  57.291 -57.672  1.00  0.00    -0.040 A 
HETATM   18  C   UNL     1     -44.887  57.161 -58.754  1.00  0.00     0.011 A 
HETATM   19  C   UNL     1     -46.172  57.713 -58.699  1.00  0.00     0.030 A 
HETATM   20  C   UNL     1     -46.590  58.428 -57.574  1.00  0.00     0.036 A 
HETATM   21  C   UNL     1     -45.731  58.514 -56.474  1.00  0.00     0.030 A 
HETATM   22  C   UNL     1     -44.447  57.963 -56.525  1.00  0.00     0.011 A 
BRANCH  20  23
HETATM   23  N   UNL     1     -47.842  59.056 -57.453  1.00  0.00    -0.309 N 
HETATM   24  C   UNL     1     -48.372  60.184 -58.007  1.00  0.00     0.321 C 
HETATM   25  N   UNL     1     -47.509  61.037 -58.624  1.00  0.00    -0.339 N 
HETATM   26  O   UNL     1     -49.572  60.405 -57.869  1.00  0.00    -0.247 OA
HETATM   27  H   UNL     1     -46.575  60.997 -58.242  1.00  0.00     0.164 HD
HETATM   28  H   UNL     1     -48.513  58.612 -56.837  1.00  0.00     0.170 HD
BRANCH  25  29
HETATM   29  C   UNL     1     -47.892  62.333 -59.173  1.00  0.00     0.078 C 
HETATM   30  C   UNL     1     -46.962  63.468 -58.747  1.00  0.00     0.032 C 
HETATM   31  C   UNL     1     -48.057  62.279 -60.689  1.00  0.00     0.032 C 
ENDBRANCH  25  29
ENDBRANCH  20  23
ENDBRANCH   1  17
TORSDOF 5
ENDMDL
MODEL 10
REMARK VINA RESULT:      -6.9      3.873      6.631
REMARK  5 active torsions:
REMARK  status: ('A' for Active; 'I' for Inactive)
REMARK    1  A    between atoms: C_9  and  C_10 
REMARK       I    between atoms: C_10  and  N_11 
REMARK    2  A    between atoms: N_11  and  C_12 
REMARK    3  A    between atoms: C_12  and  C_13 
REMARK    4  A    between atoms: C_16  and  N_17 
REMARK       I    between atoms: N_17  and  C_18 
REMARK       I    between atoms: C_18  and  N_19 
REMARK    5  A    between atoms: N_19  and  C_20 
ROOT
HETATM    1  C   UNL     1     -42.515  56.945 -55.228  1.00  0.00     0.161 C 
ENDROOT
BRANCH   1   2
HETATM    2  N   UNL     1     -41.829  55.822 -54.651  1.00  0.00    -0.351 N 
HETATM    3  C   UNL     1     -42.240  54.521 -54.819  1.00  0.00     0.273 C 
HETATM    4  O   UNL     1     -43.221  54.205 -55.485  1.00  0.00    -0.266 OA
HETATM    5  H   UNL     1     -40.995  55.952 -54.085  1.00  0.00     0.163 HD
BRANCH   3   6
HETATM    6  C   UNL     1     -41.381  53.558 -54.110  1.00  0.00     0.157 A 
HETATM    7  C   UNL     1     -41.094  53.508 -52.714  1.00  0.00     0.029 A 
HETATM    8  C   UNL     1     -41.460  54.251 -51.574  1.00  0.00     0.023 A 
HETATM    9  C   UNL     1     -40.234  52.428 -52.561  1.00  0.00     0.063 A 
HETATM   10  C   UNL     1     -40.949  53.886 -50.317  1.00  0.00    -0.061 A 
HETATM   11  C   UNL     1     -41.329  54.657 -49.087  1.00  0.00     0.048 C 
HETATM   12  C   UNL     1     -40.085  52.788 -50.208  1.00  0.00     0.009 A 
HETATM   13  C   UNL     1     -39.709  52.037 -51.327  1.00  0.00     0.032 A 
HETATM   14  N   UNL     1     -40.068  51.917 -53.817  1.00  0.00    -0.277 N 
HETATM   15  H   UNL     1     -39.502  51.120 -54.084  1.00  0.00     0.189 HD
HETATM   16  N   UNL     1     -40.743  52.569 -54.778  1.00  0.00    -0.168 NA
ENDBRANCH   3   6
ENDBRANCH   1   2
BRANCH   1  17
HETATM   17  C   UNL     1     -43.393  57.597 -54.194  1.00  0.00    -0.040 A 
HETATM   18  C   UNL     1     -44.365  58.534 -54.564  1.00  0.00     0.011 A 
HETATM   19  C   UNL     1     -45.113  59.207 -53.591  1.00  0.00     0.030 A 
HETATM   20  C   UNL     1     -44.883  58.977 -52.233  1.00  0.00     0.036 A 
HETATM   21  C   UNL     1     -43.948  58.004 -51.865  1.00  0.00     0.030 A 
HETATM   22  C   UNL     1     -43.200  57.328 -52.834  1.00  0.00     0.011 A 
BRANCH  20  23
HETATM   23  N   UNL     1     -45.551  59.642 -51.190  1.00  0.00    -0.309 N 
HETATM   24  C   UNL     1     -45.523  60.931 -50.743  1.00  0.00     0.321 C 
HETATM   25  N   UNL     1     -44.512  61.723 -51.196  1.00  0.00    -0.339 N 
HETATM   26  O   UNL     1     -46.358  61.290 -49.918  1.00  0.00    -0.247 OA
HETATM   27  H   UNL     1     -43.680  61.203 -51.432  1.00  0.00     0.164 HD
HETATM   28  H   UNL     1     -46.190  59.086 -50.634  1.00  0.00     0.170 HD
BRANCH  25  29
HETATM   29  C   UNL     1     -44.276  63.088 -50.738  1.00  0.00     0.078 C 
HETATM   30  C   UNL     1     -42.858  63.311 -50.215  1.00  0.00     0.032 C 
HETATM   31  C   UNL     1     -44.651  64.115 -51.802  1.00  0.00     0.032 C 
ENDBRANCH  25  29
ENDBRANCH  20  23
ENDBRANCH   1  17
TORSDOF 5
ENDMDL
