MODEL 1
REMARK VINA RESULT:      -8.5      0.000      0.000
REMARK  7 active torsions:
REMARK  status: ('A' for Active; 'I' for Inactive)
REMARK    1  A    between atoms: C_3  and  C_4 
REMARK    2  A    between atoms: C_4  and  N_5 
REMARK    3  A    between atoms: N_5  and  C_6 
REMARK    4  A    between atoms: C_13  and  C_14 
REMARK       I    between atoms: C_14  and  N_15 
REMARK    5  A    between atoms: C_19  and  O_20 
REMARK    6  A    between atoms: O_20  and  C_21 
REMARK    7  A    between atoms: C_21  and  C_22 
ROOT
HETATM    1  C   UNL     1     -42.260  54.707 -53.017  1.00  0.00     0.029 A 
HETATM    2  C   UNL     1     -41.794  56.020 -53.221  1.00  0.00     0.045 A 
HETATM    3  C   UNL     1     -42.236  57.076 -52.398  1.00  0.00     0.030 A 
HETATM    4  C   UNL     1     -43.148  56.797 -51.391  1.00  0.00     0.063 A 
HETATM    5  N   UNL     1     -43.382  57.993 -50.772  1.00  0.00    -0.277 N 
HETATM    6  H   UNL     1     -43.999  58.164 -49.987  1.00  0.00     0.189 HD
HETATM    7  N   UNL     1     -42.715  59.033 -51.300  1.00  0.00    -0.168 NA
HETATM    8  C   UNL     1     -42.003  58.481 -52.309  1.00  0.00     0.156 A 
HETATM    9  C   UNL     1     -43.658  55.518 -51.165  1.00  0.00     0.034 A 
HETATM   10  C   UNL     1     -43.207  54.492 -52.010  1.00  0.00     0.031 A 
ENDROOT
BRANCH   1  11
HETATM   11  N   UNL     1     -41.844  53.725 -53.909  1.00  0.00    -0.386 N 
HETATM   12  H   UNL     1     -42.436  53.622 -54.727  1.00  0.00     0.160 HD
BRANCH  11  13
HETATM   13  C   UNL     1     -40.446  53.367 -54.127  1.00  0.00     0.161 C 
BRANCH  13  14
HETATM   14  C   UNL     1     -40.068  51.990 -53.617  1.00  0.00    -0.007 A 
HETATM   15  C   UNL     1     -40.081  50.870 -54.470  1.00  0.00     0.011 A 
HETATM   16  C   UNL     1     -39.775  49.599 -53.988  1.00  0.00     0.001 A 
HETATM   17  C   UNL     1     -39.470  49.421 -52.643  1.00  0.00     0.003 A 
HETATM   18  C   UNL     1     -39.470  50.516 -51.776  1.00  0.00     0.037 A 
HETATM   19  C   UNL     1     -39.763  51.798 -52.254  1.00  0.00     0.076 A 
BRANCH  19  20
HETATM   20  O   UNL     1     -39.807  52.919 -51.466  1.00  0.00    -0.350 OA
BRANCH  20  21
HETATM   21  C   UNL     1     -40.417  52.800 -50.182  1.00  0.00     0.180 C 
BRANCH  21  22
HETATM   22  C   UNL     1     -40.016  53.999 -49.378  1.00  0.00     0.010 A 
HETATM   23  C   UNL     1     -41.054  54.953 -48.843  1.00  0.00     0.007 A 
HETATM   24  C   UNL     1     -40.303  54.054 -47.898  1.00  0.00     0.007 A 
ENDBRANCH  21  22
ENDBRANCH  20  21
ENDBRANCH  19  20
ENDBRANCH  13  14
ENDBRANCH  11  13
ENDBRANCH   1  11
BRANCH   8  25
HETATM   25  C   UNL     1     -41.128  59.295 -53.164  1.00  0.00     0.270 C 
HETATM   26  N   UNL     1     -41.795  60.205 -53.937  1.00  0.00    -0.365 N 
HETATM   27  H   UNL     1     -42.806  60.244 -53.875  1.00  0.00     0.159 HD
HETATM   28  H   UNL     1     -41.283  60.796 -54.572  1.00  0.00     0.159 HD
HETATM   29  O   UNL     1     -39.906  59.193 -53.212  1.00  0.00    -0.266 OA
ENDBRANCH   8  25
TORSDOF 7
ENDMDL
MODEL 2
REMARK VINA RESULT:      -7.9      1.636      3.244
REMARK  7 active torsions:
REMARK  status: ('A' for Active; 'I' for Inactive)
REMARK    1  A    between atoms: C_3  and  C_4 
REMARK    2  A    between atoms: C_4  and  N_5 
REMARK    3  A    between atoms: N_5  and  C_6 
REMARK    4  A    between atoms: C_13  and  C_14 
REMARK       I    between atoms: C_14  and  N_15 
REMARK    5  A    between atoms: C_19  and  O_20 
REMARK    6  A    between atoms: O_20  and  C_21 
REMARK    7  A    between atoms: C_21  and  C_22 
ROOT
HETATM    1  C   UNL     1     -41.871  54.698 -50.633  1.00  0.00     0.029 A 
HETATM    2  C   UNL     1     -41.168  55.861 -50.999  1.00  0.00     0.045 A 
HETATM    3  C   UNL     1     -41.856  57.054 -51.298  1.00  0.00     0.030 A 
HETATM    4  C   UNL     1     -43.242  57.056 -51.235  1.00  0.00     0.063 A 
HETATM    5  N   UNL     1     -43.618  58.327 -51.567  1.00  0.00    -0.277 N 
HETATM    6  H   UNL     1     -44.562  58.691 -51.622  1.00  0.00     0.189 HD
HETATM    7  N   UNL     1     -42.598  59.152 -51.858  1.00  0.00    -0.168 NA
HETATM    8  C   UNL     1     -41.501  58.377 -51.698  1.00  0.00     0.156 A 
HETATM    9  C   UNL     1     -43.985  55.924 -50.902  1.00  0.00     0.034 A 
HETATM   10  C   UNL     1     -43.270  54.748 -50.623  1.00  0.00     0.031 A 
ENDROOT
BRANCH   1  11
HETATM   11  N   UNL     1     -41.140  53.534 -50.425  1.00  0.00    -0.386 N 
HETATM   12  H   UNL     1     -41.703  52.712 -50.232  1.00  0.00     0.160 HD
BRANCH  11  13
HETATM   13  C   UNL     1     -39.863  53.253 -51.074  1.00  0.00     0.161 C 
BRANCH  13  14
HETATM   14  C   UNL     1     -39.911  52.121 -52.082  1.00  0.00    -0.007 A 
HETATM   15  C   UNL     1     -39.576  50.805 -51.714  1.00  0.00     0.011 A 
HETATM   16  C   UNL     1     -39.580  49.775 -52.653  1.00  0.00     0.001 A 
HETATM   17  C   UNL     1     -39.900  50.046 -53.979  1.00  0.00     0.003 A 
HETATM   18  C   UNL     1     -40.218  51.349 -54.369  1.00  0.00     0.037 A 
HETATM   19  C   UNL     1     -40.229  52.386 -53.430  1.00  0.00     0.076 A 
BRANCH  19  20
HETATM   20  O   UNL     1     -40.507  53.693 -53.735  1.00  0.00    -0.350 OA
BRANCH  20  21
HETATM   21  C   UNL     1     -41.683  53.958 -54.497  1.00  0.00     0.180 C 
BRANCH  21  22
HETATM   22  C   UNL     1     -41.481  55.264 -55.203  1.00  0.00     0.010 A 
HETATM   23  C   UNL     1     -42.497  55.773 -56.193  1.00  0.00     0.007 A 
HETATM   24  C   UNL     1     -42.341  56.455 -54.861  1.00  0.00     0.007 A 
ENDBRANCH  21  22
ENDBRANCH  20  21
ENDBRANCH  19  20
ENDBRANCH  13  14
ENDBRANCH  11  13
ENDBRANCH   1  11
BRANCH   8  25
HETATM   25  C   UNL     1     -40.150  58.903 -51.934  1.00  0.00     0.270 C 
HETATM   26  N   UNL     1     -39.484  59.264 -50.793  1.00  0.00    -0.365 N 
HETATM   27  H   UNL     1     -39.957  59.156 -49.903  1.00  0.00     0.159 HD
HETATM   28  H   UNL     1     -38.558  59.654 -50.854  1.00  0.00     0.159 HD
HETATM   29  O   UNL     1     -39.631  59.027 -53.039  1.00  0.00    -0.266 OA
ENDBRANCH   8  25
TORSDOF 7
ENDMDL
MODEL 3
REMARK VINA RESULT:      -7.8      1.561      2.678
REMARK  7 active torsions:
REMARK  status: ('A' for Active; 'I' for Inactive)
REMARK    1  A    between atoms: C_3  and  C_4 
REMARK    2  A    between atoms: C_4  and  N_5 
REMARK    3  A    between atoms: N_5  and  C_6 
REMARK    4  A    between atoms: C_13  and  C_14 
REMARK       I    between atoms: C_14  and  N_15 
REMARK    5  A    between atoms: C_19  and  O_20 
REMARK    6  A    between atoms: O_20  and  C_21 
REMARK    7  A    between atoms: C_21  and  C_22 
ROOT
HETATM    1  C   UNL     1     -41.856  54.913 -54.994  1.00  0.00     0.029 A 
HETATM    2  C   UNL     1     -41.310  55.944 -54.207  1.00  0.00     0.045 A 
HETATM    3  C   UNL     1     -41.544  57.296 -54.529  1.00  0.00     0.030 A 
HETATM    4  C   UNL     1     -42.314  57.590 -55.645  1.00  0.00     0.063 A 
HETATM    5  N   UNL     1     -42.367  58.954 -55.700  1.00  0.00    -0.277 N 
HETATM    6  H   UNL     1     -42.848  59.520 -56.389  1.00  0.00     0.189 HD
HETATM    7  N   UNL     1     -41.684  59.578 -54.726  1.00  0.00    -0.168 NA
HETATM    8  C   UNL     1     -41.167  58.564 -53.994  1.00  0.00     0.156 A 
HETATM    9  C   UNL     1     -42.856  56.605 -56.471  1.00  0.00     0.034 A 
HETATM   10  C   UNL     1     -42.593  55.269 -56.129  1.00  0.00     0.031 A 
ENDROOT
BRANCH   1  11
HETATM   11  N   UNL     1     -41.526  53.602 -54.667  1.00  0.00    -0.386 N 
HETATM   12  H   UNL     1     -42.208  52.911 -54.962  1.00  0.00     0.160 HD
BRANCH  11  13
HETATM   13  C   UNL     1     -40.156  53.106 -54.596  1.00  0.00     0.161 C 
BRANCH  13  14
HETATM   14  C   UNL     1     -39.947  51.994 -53.586  1.00  0.00    -0.007 A 
HETATM   15  C   UNL     1     -39.758  50.662 -53.999  1.00  0.00     0.011 A 
HETATM   16  C   UNL     1     -39.609  49.637 -53.066  1.00  0.00     0.001 A 
HETATM   17  C   UNL     1     -39.666  49.922 -51.706  1.00  0.00     0.003 A 
HETATM   18  C   UNL     1     -39.872  51.234 -51.275  1.00  0.00     0.037 A 
HETATM   19  C   UNL     1     -40.009  52.272 -52.205  1.00  0.00     0.076 A 
BRANCH  19  20
HETATM   20  O   UNL     1     -40.235  53.580 -51.865  1.00  0.00    -0.350 OA
BRANCH  20  21
HETATM   21  C   UNL     1     -41.128  53.836 -50.783  1.00  0.00     0.180 C 
BRANCH  21  22
HETATM   22  C   UNL     1     -42.480  54.113 -51.366  1.00  0.00     0.010 A 
HETATM   23  C   UNL     1     -43.696  54.223 -50.482  1.00  0.00     0.007 A 
HETATM   24  C   UNL     1     -43.142  55.451 -51.153  1.00  0.00     0.007 A 
ENDBRANCH  21  22
ENDBRANCH  20  21
ENDBRANCH  19  20
ENDBRANCH  13  14
ENDBRANCH  11  13
ENDBRANCH   1  11
BRANCH   8  25
HETATM   25  C   UNL     1     -40.327  58.820 -52.816  1.00  0.00     0.270 C 
HETATM   26  N   UNL     1     -40.952  58.579 -51.623  1.00  0.00    -0.365 N 
HETATM   27  H   UNL     1     -41.915  58.264 -51.636  1.00  0.00     0.159 HD
HETATM   28  H   UNL     1     -40.463  58.744 -50.758  1.00  0.00     0.159 HD
HETATM   29  O   UNL     1     -39.167  59.217 -52.858  1.00  0.00    -0.266 OA
ENDBRANCH   8  25
TORSDOF 7
ENDMDL
MODEL 4
REMARK VINA RESULT:      -7.7      3.515      4.076
REMARK  7 active torsions:
REMARK  status: ('A' for Active; 'I' for Inactive)
REMARK    1  A    between atoms: C_3  and  C_4 
REMARK    2  A    between atoms: C_4  and  N_5 
REMARK    3  A    between atoms: N_5  and  C_6 
REMARK    4  A    between atoms: C_13  and  C_14 
REMARK       I    between atoms: C_14  and  N_15 
REMARK    5  A    between atoms: C_19  and  O_20 
REMARK    6  A    between atoms: O_20  and  C_21 
REMARK    7  A    between atoms: C_21  and  C_22 
ROOT
HETATM    1  C   UNL     1     -42.477  54.854 -55.097  1.00  0.00     0.029 A 
HETATM    2  C   UNL     1     -42.450  55.088 -56.484  1.00  0.00     0.045 A 
HETATM    3  C   UNL     1     -43.078  56.223 -57.035  1.00  0.00     0.030 A 
HETATM    4  C   UNL     1     -43.735  57.099 -56.183  1.00  0.00     0.063 A 
HETATM    5  N   UNL     1     -44.233  58.084 -56.988  1.00  0.00    -0.277 N 
HETATM    6  H   UNL     1     -44.770  58.894 -56.703  1.00  0.00     0.189 HD
HETATM    7  N   UNL     1     -43.974  57.918 -58.296  1.00  0.00    -0.168 NA
HETATM    8  C   UNL     1     -43.261  56.769 -58.341  1.00  0.00     0.156 A 
HETATM    9  C   UNL     1     -43.811  56.898 -54.805  1.00  0.00     0.034 A 
HETATM   10  C   UNL     1     -43.186  55.751 -54.290  1.00  0.00     0.031 A 
ENDROOT
BRANCH   1  11
HETATM   11  N   UNL     1     -41.904  53.678 -54.625  1.00  0.00    -0.386 N 
HETATM   12  H   UNL     1     -42.206  52.839 -55.109  1.00  0.00     0.160 HD
BRANCH  11  13
HETATM   13  C   UNL     1     -40.559  53.601 -54.064  1.00  0.00     0.161 C 
BRANCH  13  14
HETATM   14  C   UNL     1     -40.172  52.226 -53.557  1.00  0.00    -0.007 A 
HETATM   15  C   UNL     1     -40.244  51.096 -54.393  1.00  0.00     0.011 A 
HETATM   16  C   UNL     1     -39.929  49.826 -53.911  1.00  0.00     0.001 A 
HETATM   17  C   UNL     1     -39.556  49.661 -52.581  1.00  0.00     0.003 A 
HETATM   18  C   UNL     1     -39.497  50.767 -51.730  1.00  0.00     0.037 A 
HETATM   19  C   UNL     1     -39.799  52.047 -52.209  1.00  0.00     0.076 A 
BRANCH  19  20
HETATM   20  O   UNL     1     -39.786  53.177 -51.435  1.00  0.00    -0.350 OA
BRANCH  20  21
HETATM   21  C   UNL     1     -40.494  53.138 -50.197  1.00  0.00     0.180 C 
BRANCH  21  22
HETATM   22  C   UNL     1     -41.010  54.518 -49.925  1.00  0.00     0.010 A 
HETATM   23  C   UNL     1     -41.333  55.460 -51.057  1.00  0.00     0.007 A 
HETATM   24  C   UNL     1     -42.444  54.869 -50.232  1.00  0.00     0.007 A 
ENDBRANCH  21  22
ENDBRANCH  20  21
ENDBRANCH  19  20
ENDBRANCH  13  14
ENDBRANCH  11  13
ENDBRANCH   1  11
BRANCH   8  25
HETATM   25  C   UNL     1     -42.780  56.215 -59.614  1.00  0.00     0.270 C 
HETATM   26  N   UNL     1     -41.515  56.612 -59.952  1.00  0.00    -0.365 N 
HETATM   27  H   UNL     1     -41.024  57.245 -59.330  1.00  0.00     0.159 HD
HETATM   28  H   UNL     1     -41.105  56.300 -60.817  1.00  0.00     0.159 HD
HETATM   29  O   UNL     1     -43.426  55.463 -60.337  1.00  0.00    -0.266 OA
ENDBRANCH   8  25
TORSDOF 7
ENDMDL
MODEL 5
REMARK VINA RESULT:      -7.6      2.199      4.449
REMARK  7 active torsions:
REMARK  status: ('A' for Active; 'I' for Inactive)
REMARK    1  A    between atoms: C_3  and  C_4 
REMARK    2  A    between atoms: C_4  and  N_5 
REMARK    3  A    between atoms: N_5  and  C_6 
REMARK    4  A    between atoms: C_13  and  C_14 
REMARK       I    between atoms: C_14  and  N_15 
REMARK    5  A    between atoms: C_19  and  O_20 
REMARK    6  A    between atoms: O_20  and  C_21 
REMARK    7  A    between atoms: C_21  and  C_22 
ROOT
HETATM    1  C   UNL     1     -43.206  56.332 -52.900  1.00  0.00     0.029 A 
HETATM    2  C   UNL     1     -44.015  57.126 -52.068  1.00  0.00     0.045 A 
HETATM    3  C   UNL     1     -43.701  58.481 -51.838  1.00  0.00     0.030 A 
HETATM    4  C   UNL     1     -42.570  59.013 -52.441  1.00  0.00     0.063 A 
HETATM    5  N   UNL     1     -42.527  60.319 -52.044  1.00  0.00    -0.277 N 
HETATM    6  H   UNL     1     -41.832  61.013 -52.296  1.00  0.00     0.189 HD
HETATM    7  N   UNL     1     -43.523  60.684 -51.219  1.00  0.00    -0.168 NA
HETATM    8  C   UNL     1     -44.257  59.555 -51.081  1.00  0.00     0.156 A 
HETATM    9  C   UNL     1     -41.723  58.260 -53.254  1.00  0.00     0.034 A 
HETATM   10  C   UNL     1     -42.057  56.911 -53.452  1.00  0.00     0.031 A 
ENDROOT
BRANCH   1  11
HETATM   11  N   UNL     1     -43.527  54.984 -53.026  1.00  0.00    -0.386 N 
HETATM   12  H   UNL     1     -43.296  54.579 -53.927  1.00  0.00     0.160 HD
BRANCH  11  13
HETATM   13  C   UNL     1     -43.502  54.039 -51.914  1.00  0.00     0.161 C 
BRANCH  13  14
HETATM   14  C   UNL     1     -42.175  53.970 -51.184  1.00  0.00    -0.007 A 
HETATM   15  C   UNL     1     -42.033  54.486 -49.882  1.00  0.00     0.011 A 
HETATM   16  C   UNL     1     -40.801  54.460 -49.231  1.00  0.00     0.001 A 
HETATM   17  C   UNL     1     -39.686  53.936 -49.876  1.00  0.00     0.003 A 
HETATM   18  C   UNL     1     -39.801  53.436 -51.175  1.00  0.00     0.037 A 
HETATM   19  C   UNL     1     -41.037  53.446 -51.831  1.00  0.00     0.076 A 
BRANCH  19  20
HETATM   20  O   UNL     1     -41.229  52.996 -53.111  1.00  0.00    -0.350 OA
BRANCH  20  21
HETATM   21  C   UNL     1     -40.129  52.361 -53.760  1.00  0.00     0.180 C 
BRANCH  21  22
HETATM   22  C   UNL     1     -40.465  50.907 -53.901  1.00  0.00     0.010 A 
HETATM   23  C   UNL     1     -39.534  49.964 -54.620  1.00  0.00     0.007 A 
HETATM   24  C   UNL     1     -39.693  49.869 -53.127  1.00  0.00     0.007 A 
ENDBRANCH  21  22
ENDBRANCH  20  21
ENDBRANCH  19  20
ENDBRANCH  13  14
ENDBRANCH  11  13
ENDBRANCH   1  11
BRANCH   8  25
HETATM   25  C   UNL     1     -45.456  59.520 -50.233  1.00  0.00     0.270 C 
HETATM   26  N   UNL     1     -45.324  60.196 -49.051  1.00  0.00    -0.365 N 
HETATM   27  H   UNL     1     -44.438  60.645 -48.847  1.00  0.00     0.159 HD
HETATM   28  H   UNL     1     -46.086  60.212 -48.393  1.00  0.00     0.159 HD
HETATM   29  O   UNL     1     -46.501  58.944 -50.524  1.00  0.00    -0.266 OA
ENDBRANCH   8  25
TORSDOF 7
ENDMDL
MODEL 6
REMARK VINA RESULT:      -7.4      4.345      6.206
REMARK  7 active torsions:
REMARK  status: ('A' for Active; 'I' for Inactive)
REMARK    1  A    between atoms: C_3  and  C_4 
REMARK    2  A    between atoms: C_4  and  N_5 
REMARK    3  A    between atoms: N_5  and  C_6 
REMARK    4  A    between atoms: C_13  and  C_14 
REMARK       I    between atoms: C_14  and  N_15 
REMARK    5  A    between atoms: C_19  and  O_20 
REMARK    6  A    between atoms: O_20  and  C_21 
REMARK    7  A    between atoms: C_21  and  C_22 
ROOT
HETATM    1  C   UNL     1     -42.288  55.739 -56.236  1.00  0.00     0.029 A 
HETATM    2  C   UNL     1     -42.943  55.298 -57.402  1.00  0.00     0.045 A 
HETATM    3  C   UNL     1     -43.684  56.198 -58.195  1.00  0.00     0.030 A 
HETATM    4  C   UNL     1     -43.765  57.524 -57.796  1.00  0.00     0.063 A 
HETATM    5  N   UNL     1     -44.532  58.141 -58.744  1.00  0.00    -0.277 N 
HETATM    6  H   UNL     1     -44.798  59.119 -58.774  1.00  0.00     0.189 HD
HETATM    7  N   UNL     1     -44.974  57.329 -59.719  1.00  0.00    -0.168 NA
HETATM    8  C   UNL     1     -44.458  56.122 -59.391  1.00  0.00     0.156 A 
HETATM    9  C   UNL     1     -43.156  58.004 -56.637  1.00  0.00     0.034 A 
HETATM   10  C   UNL     1     -42.436  57.080 -55.863  1.00  0.00     0.031 A 
ENDROOT
BRANCH   1  11
HETATM   11  N   UNL     1     -41.637  54.788 -55.458  1.00  0.00    -0.386 N 
HETATM   12  H   UNL     1     -40.760  55.103 -55.055  1.00  0.00     0.160 HD
BRANCH  11  13
HETATM   13  C   UNL     1     -42.330  53.770 -54.674  1.00  0.00     0.161 C 
BRANCH  13  14
HETATM   14  C   UNL     1     -42.310  54.014 -53.178  1.00  0.00    -0.007 A 
HETATM   15  C   UNL     1     -43.407  54.602 -52.522  1.00  0.00     0.011 A 
HETATM   16  C   UNL     1     -43.368  54.865 -51.154  1.00  0.00     0.001 A 
HETATM   17  C   UNL     1     -42.226  54.563 -50.421  1.00  0.00     0.003 A 
HETATM   18  C   UNL     1     -41.118  53.996 -51.056  1.00  0.00     0.037 A 
HETATM   19  C   UNL     1     -41.153  53.718 -52.427  1.00  0.00     0.076 A 
BRANCH  19  20
HETATM   20  O   UNL     1     -40.104  53.185 -53.128  1.00  0.00    -0.350 OA
BRANCH  20  21
HETATM   21  C   UNL     1     -39.754  51.828 -52.864  1.00  0.00     0.180 C 
BRANCH  21  22
HETATM   22  C   UNL     1     -39.731  51.102 -54.175  1.00  0.00     0.010 A 
HETATM   23  C   UNL     1     -39.272  49.668 -54.258  1.00  0.00     0.007 A 
HETATM   24  C   UNL     1     -40.725  50.004 -54.455  1.00  0.00     0.007 A 
ENDBRANCH  21  22
ENDBRANCH  20  21
ENDBRANCH  19  20
ENDBRANCH  13  14
ENDBRANCH  11  13
ENDBRANCH   1  11
BRANCH   8  25
HETATM   25  C   UNL     1     -44.716  54.930 -60.211  1.00  0.00     0.270 C 
HETATM   26  N   UNL     1     -45.029  53.812 -59.486  1.00  0.00    -0.365 N 
HETATM   27  H   UNL     1     -45.049  53.881 -58.475  1.00  0.00     0.159 HD
HETATM   28  H   UNL     1     -45.204  52.940 -59.959  1.00  0.00     0.159 HD
HETATM   29  O   UNL     1     -44.662  54.900 -61.436  1.00  0.00    -0.266 OA
ENDBRANCH   8  25
TORSDOF 7
ENDMDL
MODEL 7
REMARK VINA RESULT:      -7.4      4.650      5.957
REMARK  7 active torsions:
REMARK  status: ('A' for Active; 'I' for Inactive)
REMARK    1  A    between atoms: C_3  and  C_4 
REMARK    2  A    between atoms: C_4  and  N_5 
REMARK    3  A    between atoms: N_5  and  C_6 
REMARK    4  A    between atoms: C_13  and  C_14 
REMARK       I    between atoms: C_14  and  N_15 
REMARK    5  A    between atoms: C_19  and  O_20 
REMARK    6  A    between atoms: O_20  and  C_21 
REMARK    7  A    between atoms: C_21  and  C_22 
ROOT
HETATM    1  C   UNL     1     -42.430  56.081 -56.603  1.00  0.00     0.029 A 
HETATM    2  C   UNL     1     -43.081  55.526 -57.720  1.00  0.00     0.045 A 
HETATM    3  C   UNL     1     -43.905  56.321 -58.542  1.00  0.00     0.030 A 
HETATM    4  C   UNL     1     -44.070  57.661 -58.220  1.00  0.00     0.063 A 
HETATM    5  N   UNL     1     -44.903  58.164 -59.179  1.00  0.00    -0.277 N 
HETATM    6  H   UNL     1     -45.238  59.117 -59.258  1.00  0.00     0.189 HD
HETATM    7  N   UNL     1     -45.311  57.265 -60.090  1.00  0.00    -0.168 NA
HETATM    8  C   UNL     1     -44.702  56.119 -59.707  1.00  0.00     0.156 A 
HETATM    9  C   UNL     1     -43.466  58.252 -57.110  1.00  0.00     0.034 A 
HETATM   10  C   UNL     1     -42.662  57.428 -56.305  1.00  0.00     0.031 A 
ENDROOT
BRANCH   1  11
HETATM   11  N   UNL     1     -41.692  55.227 -55.790  1.00  0.00    -0.386 N 
HETATM   12  H   UNL     1     -40.963  55.684 -55.252  1.00  0.00     0.160 HD
BRANCH  11  13
HETATM   13  C   UNL     1     -42.242  54.028 -55.165  1.00  0.00     0.161 C 
BRANCH  13  14
HETATM   14  C   UNL     1     -41.374  53.442 -54.069  1.00  0.00    -0.007 A 
HETATM   15  C   UNL     1     -40.583  52.301 -54.299  1.00  0.00     0.011 A 
HETATM   16  C   UNL     1     -39.820  51.739 -53.277  1.00  0.00     0.001 A 
HETATM   17  C   UNL     1     -39.849  52.296 -52.003  1.00  0.00     0.003 A 
HETATM   18  C   UNL     1     -40.642  53.417 -51.748  1.00  0.00     0.037 A 
HETATM   19  C   UNL     1     -41.401  53.995 -52.772  1.00  0.00     0.076 A 
BRANCH  19  20
HETATM   20  O   UNL     1     -42.221  55.080 -52.599  1.00  0.00    -0.350 OA
BRANCH  20  21
HETATM   21  C   UNL     1     -41.614  56.312 -52.214  1.00  0.00     0.180 C 
BRANCH  21  22
HETATM   22  C   UNL     1     -42.553  57.417 -52.590  1.00  0.00     0.010 A 
HETATM   23  C   UNL     1     -44.020  57.145 -52.807  1.00  0.00     0.007 A 
HETATM   24  C   UNL     1     -43.572  57.920 -51.598  1.00  0.00     0.007 A 
ENDBRANCH  21  22
ENDBRANCH  20  21
ENDBRANCH  19  20
ENDBRANCH  13  14
ENDBRANCH  11  13
ENDBRANCH   1  11
BRANCH   8  25
HETATM   25  C   UNL     1     -44.897  54.865 -60.447  1.00  0.00     0.270 C 
HETATM   26  N   UNL     1     -45.098  53.772 -59.648  1.00  0.00    -0.365 N 
HETATM   27  H   UNL     1     -45.087  53.900 -58.643  1.00  0.00     0.159 HD
HETATM   28  H   UNL     1     -45.221  52.863 -60.063  1.00  0.00     0.159 HD
HETATM   29  O   UNL     1     -44.883  54.765 -61.670  1.00  0.00    -0.266 OA
ENDBRANCH   8  25
TORSDOF 7
ENDMDL
MODEL 8
REMARK VINA RESULT:      -7.4      1.895      4.356
REMARK  7 active torsions:
REMARK  status: ('A' for Active; 'I' for Inactive)
REMARK    1  A    between atoms: C_3  and  C_4 
REMARK    2  A    between atoms: C_4  and  N_5 
REMARK    3  A    between atoms: N_5  and  C_6 
REMARK    4  A    between atoms: C_13  and  C_14 
REMARK       I    between atoms: C_14  and  N_15 
REMARK    5  A    between atoms: C_19  and  O_20 
REMARK    6  A    between atoms: O_20  and  C_21 
REMARK    7  A    between atoms: C_21  and  C_22 
ROOT
HETATM    1  C   UNL     1     -42.371  55.020 -54.821  1.00  0.00     0.029 A 
HETATM    2  C   UNL     1     -42.043  56.307 -54.354  1.00  0.00     0.045 A 
HETATM    3  C   UNL     1     -42.186  57.433 -55.189  1.00  0.00     0.030 A 
HETATM    4  C   UNL     1     -42.645  57.246 -56.485  1.00  0.00     0.063 A 
HETATM    5  N   UNL     1     -42.681  58.494 -57.041  1.00  0.00    -0.277 N 
HETATM    6  H   UNL     1     -42.970  58.737 -57.981  1.00  0.00     0.189 HD
HETATM    7  N   UNL     1     -42.268  59.479 -56.225  1.00  0.00    -0.168 NA
HETATM    8  C   UNL     1     -41.957  58.837 -55.076  1.00  0.00     0.156 A 
HETATM    9  C   UNL     1     -42.959  55.989 -57.002  1.00  0.00     0.034 A 
HETATM   10  C   UNL     1     -42.794  54.887 -56.148  1.00  0.00     0.031 A 
ENDROOT
BRANCH   1  11
HETATM   11  N   UNL     1     -42.137  53.942 -53.974  1.00  0.00    -0.386 N 
HETATM   12  H   UNL     1     -41.208  53.541 -54.051  1.00  0.00     0.160 HD
BRANCH  11  13
HETATM   13  C   UNL     1     -42.749  53.800 -52.657  1.00  0.00     0.161 C 
BRANCH  13  14
HETATM   14  C   UNL     1     -41.794  54.011 -51.499  1.00  0.00    -0.007 A 
HETATM   15  C   UNL     1     -42.084  54.932 -50.475  1.00  0.00     0.011 A 
HETATM   16  C   UNL     1     -41.184  55.156 -49.435  1.00  0.00     0.001 A 
HETATM   17  C   UNL     1     -39.970  54.478 -49.410  1.00  0.00     0.003 A 
HETATM   18  C   UNL     1     -39.653  53.574 -50.426  1.00  0.00     0.037 A 
HETATM   19  C   UNL     1     -40.557  53.333 -51.467  1.00  0.00     0.076 A 
BRANCH  19  20
HETATM   20  O   UNL     1     -40.314  52.480 -52.512  1.00  0.00    -0.350 OA
BRANCH  20  21
HETATM   21  C   UNL     1     -39.386  51.420 -52.296  1.00  0.00     0.180 C 
BRANCH  21  22
HETATM   22  C   UNL     1     -39.870  50.230 -53.067  1.00  0.00     0.010 A 
HETATM   23  C   UNL     1     -40.682  50.402 -54.326  1.00  0.00     0.007 A 
HETATM   24  C   UNL     1     -39.267  49.896 -54.409  1.00  0.00     0.007 A 
ENDBRANCH  21  22
ENDBRANCH  20  21
ENDBRANCH  19  20
ENDBRANCH  13  14
ENDBRANCH  11  13
ENDBRANCH   1  11
BRANCH   8  25
HETATM   25  C   UNL     1     -41.445  59.564 -53.906  1.00  0.00     0.270 C 
HETATM   26  N   UNL     1     -42.273  60.559 -53.462  1.00  0.00    -0.365 N 
HETATM   27  H   UNL     1     -43.141  60.724 -53.959  1.00  0.00     0.159 HD
HETATM   28  H   UNL     1     -41.999  61.127 -52.677  1.00  0.00     0.159 HD
HETATM   29  O   UNL     1     -40.375  59.332 -53.353  1.00  0.00    -0.266 OA
ENDBRANCH   8  25
TORSDOF 7
ENDMDL
MODEL 9
REMARK VINA RESULT:      -6.9      4.490      6.769
REMARK  7 active torsions:
REMARK  status: ('A' for Active; 'I' for Inactive)
REMARK    1  A    between atoms: C_3  and  C_4 
REMARK    2  A    between atoms: C_4  and  N_5 
REMARK    3  A    between atoms: N_5  and  C_6 
REMARK    4  A    between atoms: C_13  and  C_14 
REMARK       I    between atoms: C_14  and  N_15 
REMARK    5  A    between atoms: C_19  and  O_20 
REMARK    6  A    between atoms: O_20  and  C_21 
REMARK    7  A    between atoms: C_21  and  C_22 
ROOT
HETATM    1  C   UNL     1     -43.007  57.734 -56.168  1.00  0.00     0.029 A 
HETATM    2  C   UNL     1     -43.612  56.800 -57.028  1.00  0.00     0.045 A 
HETATM    3  C   UNL     1     -43.317  56.792 -58.406  1.00  0.00     0.030 A 
HETATM    4  C   UNL     1     -42.425  57.734 -58.900  1.00  0.00     0.063 A 
HETATM    5  N   UNL     1     -42.337  57.483 -60.240  1.00  0.00    -0.277 N 
HETATM    6  H   UNL     1     -41.772  57.979 -60.919  1.00  0.00     0.189 HD
HETATM    7  N   UNL     1     -43.109  56.470 -60.669  1.00  0.00    -0.168 NA
HETATM    8  C   UNL     1     -43.723  56.034 -59.544  1.00  0.00     0.156 A 
HETATM    9  C   UNL     1     -41.817  58.696 -58.093  1.00  0.00     0.034 A 
HETATM   10  C   UNL     1     -42.143  58.683 -56.727  1.00  0.00     0.031 A 
ENDROOT
BRANCH   1  11
HETATM   11  N   UNL     1     -43.397  57.738 -54.833  1.00  0.00    -0.386 N 
HETATM   12  H   UNL     1     -44.345  57.412 -54.671  1.00  0.00     0.160 HD
BRANCH  11  13
HETATM   13  C   UNL     1     -42.481  57.508 -53.721  1.00  0.00     0.161 C 
BRANCH  13  14
HETATM   14  C   UNL     1     -42.951  56.458 -52.732  1.00  0.00    -0.007 A 
HETATM   15  C   UNL     1     -43.585  56.823 -51.530  1.00  0.00     0.011 A 
HETATM   16  C   UNL     1     -43.977  55.858 -50.604  1.00  0.00     0.001 A 
HETATM   17  C   UNL     1     -43.725  54.513 -50.855  1.00  0.00     0.003 A 
HETATM   18  C   UNL     1     -43.080  54.131 -52.034  1.00  0.00     0.037 A 
HETATM   19  C   UNL     1     -42.695  55.093 -52.974  1.00  0.00     0.076 A 
BRANCH  19  20
HETATM   20  O   UNL     1     -42.040  54.803 -54.142  1.00  0.00    -0.350 OA
BRANCH  20  21
HETATM   21  C   UNL     1     -41.981  53.436 -54.545  1.00  0.00     0.180 C 
BRANCH  21  22
HETATM   22  C   UNL     1     -40.560  52.982 -54.402  1.00  0.00     0.010 A 
HETATM   23  C   UNL     1     -40.068  52.373 -53.114  1.00  0.00     0.007 A 
HETATM   24  C   UNL     1     -40.233  51.512 -54.336  1.00  0.00     0.007 A 
ENDBRANCH  21  22
ENDBRANCH  20  21
ENDBRANCH  19  20
ENDBRANCH  13  14
ENDBRANCH  11  13
ENDBRANCH   1  11
BRANCH   8  25
HETATM   25  C   UNL     1     -44.680  54.920 -59.577  1.00  0.00     0.270 C 
HETATM   26  N   UNL     1     -45.951  55.287 -59.926  1.00  0.00    -0.365 N 
HETATM   27  H   UNL     1     -46.136  56.265 -60.119  1.00  0.00     0.159 HD
HETATM   28  H   UNL     1     -46.683  54.596 -59.957  1.00  0.00     0.159 HD
HETATM   29  O   UNL     1     -44.403  53.753 -59.317  1.00  0.00    -0.266 OA
ENDBRANCH   8  25
TORSDOF 7
ENDMDL
MODEL 10
REMARK VINA RESULT:      -6.9      2.154      2.228
REMARK  7 active torsions:
REMARK  status: ('A' for Active; 'I' for Inactive)
REMARK    1  A    between atoms: C_3  and  C_4 
REMARK    2  A    between atoms: C_4  and  N_5 
REMARK    3  A    between atoms: N_5  and  C_6 
REMARK    4  A    between atoms: C_13  and  C_14 
REMARK       I    between atoms: C_14  and  N_15 
REMARK    5  A    between atoms: C_19  and  O_20 
REMARK    6  A    between atoms: O_20  and  C_21 
REMARK    7  A    between atoms: C_21  and  C_22 
ROOT
HETATM    1  C   UNL     1     -42.942  55.185 -52.616  1.00  0.00     0.029 A 
HETATM    2  C   UNL     1     -43.194  55.944 -53.774  1.00  0.00     0.045 A 
HETATM    3  C   UNL     1     -43.894  57.165 -53.695  1.00  0.00     0.030 A 
HETATM    4  C   UNL     1     -44.339  57.598 -52.455  1.00  0.00     0.063 A 
HETATM    5  N   UNL     1     -44.968  58.788 -52.690  1.00  0.00    -0.277 N 
HETATM    6  H   UNL     1     -45.415  59.389 -52.007  1.00  0.00     0.189 HD
HETATM    7  N   UNL     1     -44.987  59.163 -53.980  1.00  0.00    -0.168 NA
HETATM    8  C   UNL     1     -44.327  58.167 -54.615  1.00  0.00     0.156 A 
HETATM    9  C   UNL     1     -44.137  56.870 -51.282  1.00  0.00     0.034 A 
HETATM   10  C   UNL     1     -43.447  55.652 -51.397  1.00  0.00     0.031 A 
ENDROOT
BRANCH   1  11
HETATM   11  N   UNL     1     -42.314  53.954 -52.770  1.00  0.00    -0.386 N 
HETATM   12  H   UNL     1     -42.945  53.160 -52.795  1.00  0.00     0.160 HD
BRANCH  11  13
HETATM   13  C   UNL     1     -41.075  53.765 -53.518  1.00  0.00     0.161 C 
BRANCH  13  14
HETATM   14  C   UNL     1     -40.507  52.361 -53.440  1.00  0.00    -0.007 A 
HETATM   15  C   UNL     1     -40.674  51.450 -54.499  1.00  0.00     0.011 A 
HETATM   16  C   UNL     1     -40.188  50.146 -54.407  1.00  0.00     0.001 A 
HETATM   17  C   UNL     1     -39.546  49.726 -53.248  1.00  0.00     0.003 A 
HETATM   18  C   UNL     1     -39.386  50.609 -52.177  1.00  0.00     0.037 A 
HETATM   19  C   UNL     1     -39.859  51.923 -52.267  1.00  0.00     0.076 A 
BRANCH  19  20
HETATM   20  O   UNL     1     -39.763  52.843 -51.256  1.00  0.00    -0.350 OA
BRANCH  20  21
HETATM   21  C   UNL     1     -40.340  52.502 -49.996  1.00  0.00     0.180 C 
BRANCH  21  22
HETATM   22  C   UNL     1     -41.041  53.719 -49.475  1.00  0.00     0.010 A 
HETATM   23  C   UNL     1     -40.605  54.372 -48.188  1.00  0.00     0.007 A 
HETATM   24  C   UNL     1     -40.357  55.063 -49.502  1.00  0.00     0.007 A 
ENDBRANCH  21  22
ENDBRANCH  20  21
ENDBRANCH  19  20
ENDBRANCH  13  14
ENDBRANCH  11  13
ENDBRANCH   1  11
BRANCH   8  25
HETATM   25  C   UNL     1     -44.131  58.183 -56.071  1.00  0.00     0.270 C 
HETATM   26  N   UNL     1     -44.895  57.272 -56.747  1.00  0.00    -0.365 N 
HETATM   27  H   UNL     1     -45.510  56.666 -56.215  1.00  0.00     0.159 HD
HETATM   28  H   UNL     1     -44.816  57.194 -57.748  1.00  0.00     0.159 HD
HETATM   29  O   UNL     1     -43.359  58.931 -56.663  1.00  0.00    -0.266 OA
ENDBRANCH   8  25
TORSDOF 7
ENDMDL
