MODEL 1
REMARK VINA RESULT:      -8.9      0.000      0.000
REMARK  7 active torsions:
REMARK  status: ('A' for Active; 'I' for Inactive)
REMARK    1  A    between atoms: C_2  and  O_3 
REMARK    2  A    between atoms: O_3  and  C_4 
REMARK    3  A    between atoms: C_4  and  C_5 
REMARK    4  A    between atoms: C_6  and  N_7 
REMARK    5  A    between atoms: N_7  and  C_8 
REMARK    6  A    between atoms: C_9  and  C_10 
REMARK    7  A    between atoms: C_13  and  C_14 
ROOT
HETATM    1  C   UNL     1     -43.130  57.872 -53.349  1.00  0.00     0.114 C 
HETATM    2  C   UNL     1     -43.244  57.138 -52.223  1.00  0.00     0.095 C 
HETATM    3  C   UNL     1     -44.350  57.384 -51.356  1.00  0.00     0.103 C 
HETATM    4  N   UNL     1     -45.255  57.634 -50.671  1.00  0.00    -0.191 NA
ENDROOT
BRANCH   2   5
HETATM    5  C   UNL     1     -42.284  56.151 -51.832  1.00  0.00     0.120 A 
HETATM    6  S   UNL     1     -41.580  56.166 -50.239  1.00  0.00    -0.078 SA
HETATM    7  C   UNL     1     -40.753  54.710 -50.575  1.00  0.00     0.084 A 
HETATM    8  C   UNL     1     -41.070  54.263 -51.840  1.00  0.00     0.075 A 
HETATM    9  N   UNL     1     -41.931  55.093 -52.545  1.00  0.00    -0.239 NA
BRANCH   8  10
HETATM   10  C   UNL     1     -40.559  53.029 -52.428  1.00  0.00    -0.007 A 
HETATM   11  C   UNL     1     -39.908  52.054 -51.655  1.00  0.00     0.017 A 
HETATM   12  C   UNL     1     -39.431  50.880 -52.248  1.00  0.00     0.043 A 
HETATM   13  C   UNL     1     -39.610  50.677 -53.610  1.00  0.00     0.116 A 
HETATM   14  F   UNL     1     -39.152  49.553 -54.175  1.00  0.00    -0.206 F 
HETATM   15  C   UNL     1     -40.259  51.623 -54.393  1.00  0.00     0.043 A 
HETATM   16  C   UNL     1     -40.737  52.795 -53.802  1.00  0.00     0.017 A 
ENDBRANCH   8  10
ENDBRANCH   2   5
BRANCH   1  17
HETATM   17  N   UNL     1     -42.219  57.813 -54.385  1.00  0.00    -0.358 N 
HETATM   18  H   UNL     1     -41.362  58.349 -54.209  1.00  0.00     0.166 HD
BRANCH  17  19
HETATM   19  C   UNL     1     -42.466  57.525 -55.703  1.00  0.00     0.091 A 
HETATM   20  C   UNL     1     -42.498  58.454 -56.746  1.00  0.00     0.080 A 
HETATM   21  C   UNL     1     -42.875  57.831 -58.001  1.00  0.00    -0.026 A 
HETATM   22  C   UNL     1     -43.065  56.471 -57.856  1.00  0.00    -0.008 A 
HETATM   23  C   UNL     1     -43.050  58.501 -59.338  1.00  0.00     0.041 C 
HETATM   24  S   UNL     1     -42.799  55.937 -56.273  1.00  0.00    -0.075 SA
HETATM   25  C   UNL     1     -43.500  55.530 -58.938  1.00  0.00     0.047 C 
HETATM   26  C   UNL     1     -43.316  56.172 -60.319  1.00  0.00     0.005 C 
HETATM   27  C   UNL     1     -43.818  57.620 -60.336  1.00  0.00     0.005 C 
BRANCH  20  28
HETATM   28  C   UNL     1     -42.180  59.869 -56.516  1.00  0.00     0.296 C 
HETATM   29  O   UNL     1     -42.695  60.534 -55.623  1.00  0.00    -0.259 OA
BRANCH  28  30
HETATM   30  O   UNL     1     -41.236  60.349 -57.375  1.00  0.00    -0.318 OA
BRANCH  30  31
HETATM   31  C   UNL     1     -41.569  61.551 -58.084  1.00  0.00     0.174 C 
HETATM   32  C   UNL     1     -40.304  62.195 -58.617  1.00  0.00     0.034 C 
ENDBRANCH  30  31
ENDBRANCH  28  30
ENDBRANCH  20  28
ENDBRANCH  17  19
ENDBRANCH   1  17
TORSDOF 7
ENDMDL
MODEL 2
REMARK VINA RESULT:      -8.3      3.248      7.380
REMARK  7 active torsions:
REMARK  status: ('A' for Active; 'I' for Inactive)
REMARK    1  A    between atoms: C_2  and  O_3 
REMARK    2  A    between atoms: O_3  and  C_4 
REMARK    3  A    between atoms: C_4  and  C_5 
REMARK    4  A    between atoms: C_6  and  N_7 
REMARK    5  A    between atoms: N_7  and  C_8 
REMARK    6  A    between atoms: C_9  and  C_10 
REMARK    7  A    between atoms: C_13  and  C_14 
ROOT
HETATM    1  C   UNL     1     -40.841  56.927 -51.353  1.00  0.00     0.114 C 
HETATM    2  C   UNL     1     -40.880  58.213 -51.761  1.00  0.00     0.095 C 
HETATM    3  C   UNL     1     -40.042  59.164 -51.105  1.00  0.00     0.103 C 
HETATM    4  N   UNL     1     -39.360  59.904 -50.527  1.00  0.00    -0.191 NA
ENDROOT
BRANCH   2   5
HETATM    5  C   UNL     1     -41.754  58.679 -52.795  1.00  0.00     0.120 A 
HETATM    6  S   UNL     1     -42.502  60.248 -52.695  1.00  0.00    -0.078 SA
HETATM    7  C   UNL     1     -43.178  60.041 -54.249  1.00  0.00     0.084 A 
HETATM    8  C   UNL     1     -42.783  58.833 -54.783  1.00  0.00     0.075 A 
HETATM    9  N   UNL     1     -41.984  58.067 -53.945  1.00  0.00    -0.239 NA
BRANCH   8  10
HETATM   10  C   UNL     1     -43.158  58.358 -56.111  1.00  0.00    -0.007 A 
HETATM   11  C   UNL     1     -42.195  58.041 -57.083  1.00  0.00     0.017 A 
HETATM   12  C   UNL     1     -42.585  57.585 -58.347  1.00  0.00     0.043 A 
HETATM   13  C   UNL     1     -43.935  57.442 -58.638  1.00  0.00     0.116 A 
HETATM   14  F   UNL     1     -44.306  57.006 -59.848  1.00  0.00    -0.206 F 
HETATM   15  C   UNL     1     -44.906  57.741 -57.690  1.00  0.00     0.043 A 
HETATM   16  C   UNL     1     -44.517  58.194 -56.427  1.00  0.00     0.017 A 
ENDBRANCH   8  10
ENDBRANCH   2   5
BRANCH   1  17
HETATM   17  N   UNL     1     -41.479  55.801 -51.833  1.00  0.00    -0.358 N 
HETATM   18  H   UNL     1     -42.502  55.879 -51.841  1.00  0.00     0.166 HD
BRANCH  17  19
HETATM   19  C   UNL     1     -40.993  54.519 -51.882  1.00  0.00     0.091 A 
HETATM   20  C   UNL     1     -40.676  53.814 -53.045  1.00  0.00     0.080 A 
HETATM   21  C   UNL     1     -40.272  52.452 -52.749  1.00  0.00    -0.026 A 
HETATM   22  C   UNL     1     -40.264  52.210 -51.389  1.00  0.00    -0.008 A 
HETATM   23  C   UNL     1     -39.887  51.377 -53.730  1.00  0.00     0.041 C 
HETATM   24  S   UNL     1     -40.715  53.563 -50.480  1.00  0.00    -0.075 SA
HETATM   25  C   UNL     1     -39.938  50.901 -50.737  1.00  0.00     0.047 C 
HETATM   26  C   UNL     1     -39.219  49.971 -51.723  1.00  0.00     0.005 C 
HETATM   27  C   UNL     1     -39.898  49.977 -53.097  1.00  0.00     0.005 C 
BRANCH  20  28
HETATM   28  C   UNL     1     -40.770  54.444 -54.368  1.00  0.00     0.296 C 
HETATM   29  O   UNL     1     -40.052  55.376 -54.719  1.00  0.00    -0.259 OA
BRANCH  28  30
HETATM   30  O   UNL     1     -41.709  53.864 -55.169  1.00  0.00    -0.318 OA
BRANCH  30  31
HETATM   31  C   UNL     1     -42.762  54.718 -55.639  1.00  0.00     0.174 C 
HETATM   32  C   UNL     1     -43.768  54.945 -54.527  1.00  0.00     0.034 C 
ENDBRANCH  30  31
ENDBRANCH  28  30
ENDBRANCH  20  28
ENDBRANCH  17  19
ENDBRANCH   1  17
TORSDOF 7
ENDMDL
MODEL 3
REMARK VINA RESULT:      -8.2      4.178      7.299
REMARK  7 active torsions:
REMARK  status: ('A' for Active; 'I' for Inactive)
REMARK    1  A    between atoms: C_2  and  O_3 
REMARK    2  A    between atoms: O_3  and  C_4 
REMARK    3  A    between atoms: C_4  and  C_5 
REMARK    4  A    between atoms: C_6  and  N_7 
REMARK    5  A    between atoms: N_7  and  C_8 
REMARK    6  A    between atoms: C_9  and  C_10 
REMARK    7  A    between atoms: C_13  and  C_14 
ROOT
HETATM    1  C   UNL     1     -44.517  56.244 -54.522  1.00  0.00     0.114 C 
HETATM    2  C   UNL     1     -44.437  57.555 -54.833  1.00  0.00     0.095 C 
HETATM    3  C   UNL     1     -45.012  58.002 -56.061  1.00  0.00     0.103 C 
HETATM    4  N   UNL     1     -45.476  58.315 -57.078  1.00  0.00    -0.191 NA
ENDROOT
BRANCH   2   5
HETATM    5  C   UNL     1     -43.764  58.514 -54.012  1.00  0.00     0.120 A 
HETATM    6  S   UNL     1     -44.558  59.983 -53.516  1.00  0.00    -0.078 SA
HETATM    7  C   UNL     1     -43.211  60.403 -52.555  1.00  0.00     0.084 A 
HETATM    8  C   UNL     1     -42.253  59.414 -52.618  1.00  0.00     0.075 A 
HETATM    9  N   UNL     1     -42.575  58.353 -53.454  1.00  0.00    -0.239 NA
BRANCH   8  10
HETATM   10  C   UNL     1     -40.989  59.444 -51.889  1.00  0.00    -0.007 A 
HETATM   11  C   UNL     1     -40.917  59.855 -50.547  1.00  0.00     0.017 A 
HETATM   12  C   UNL     1     -39.692  59.871 -49.874  1.00  0.00     0.043 A 
HETATM   13  C   UNL     1     -38.539  59.470 -50.537  1.00  0.00     0.116 A 
HETATM   14  F   UNL     1     -37.367  59.487 -49.890  1.00  0.00    -0.206 F 
HETATM   15  C   UNL     1     -38.586  59.051 -51.860  1.00  0.00     0.043 A 
HETATM   16  C   UNL     1     -39.810  59.034 -52.534  1.00  0.00     0.017 A 
ENDBRANCH   8  10
ENDBRANCH   2   5
BRANCH   1  17
HETATM   17  N   UNL     1     -44.116  55.550 -53.398  1.00  0.00    -0.358 N 
HETATM   18  H   UNL     1     -44.383  56.005 -52.517  1.00  0.00     0.166 HD
BRANCH  17  19
HETATM   19  C   UNL     1     -43.099  54.635 -53.296  1.00  0.00     0.091 A 
HETATM   20  C   UNL     1     -42.614  54.088 -52.106  1.00  0.00     0.080 A 
HETATM   21  C   UNL     1     -41.476  53.220 -52.344  1.00  0.00    -0.026 A 
HETATM   22  C   UNL     1     -41.188  53.121 -53.691  1.00  0.00    -0.008 A 
HETATM   23  C   UNL     1     -40.662  52.476 -51.319  1.00  0.00     0.041 C 
HETATM   24  S   UNL     1     -42.240  54.027 -54.656  1.00  0.00    -0.075 SA
HETATM   25  C   UNL     1     -40.053  52.342 -54.286  1.00  0.00     0.047 C 
HETATM   26  C   UNL     1     -39.495  51.339 -53.269  1.00  0.00     0.005 C 
HETATM   27  C   UNL     1     -39.323  51.979 -51.886  1.00  0.00     0.005 C 
BRANCH  20  28
HETATM   28  C   UNL     1     -43.232  54.407 -50.813  1.00  0.00     0.296 C 
HETATM   29  O   UNL     1     -44.429  54.259 -50.587  1.00  0.00    -0.259 OA
BRANCH  28  30
HETATM   30  O   UNL     1     -42.333  54.851 -49.888  1.00  0.00    -0.318 OA
BRANCH  30  31
HETATM   31  C   UNL     1     -41.842  56.187 -50.065  1.00  0.00     0.174 C 
HETATM   32  C   UNL     1     -40.336  56.156 -50.246  1.00  0.00     0.034 C 
ENDBRANCH  30  31
ENDBRANCH  28  30
ENDBRANCH  20  28
ENDBRANCH  17  19
ENDBRANCH   1  17
TORSDOF 7
ENDMDL
MODEL 4
REMARK VINA RESULT:      -8.2      2.069      3.297
REMARK  7 active torsions:
REMARK  status: ('A' for Active; 'I' for Inactive)
REMARK    1  A    between atoms: C_2  and  O_3 
REMARK    2  A    between atoms: O_3  and  C_4 
REMARK    3  A    between atoms: C_4  and  C_5 
REMARK    4  A    between atoms: C_6  and  N_7 
REMARK    5  A    between atoms: N_7  and  C_8 
REMARK    6  A    between atoms: C_9  and  C_10 
REMARK    7  A    between atoms: C_13  and  C_14 
ROOT
HETATM    1  C   UNL     1     -42.327  58.724 -53.811  1.00  0.00     0.114 C 
HETATM    2  C   UNL     1     -42.256  58.276 -52.541  1.00  0.00     0.095 C 
HETATM    3  C   UNL     1     -42.119  59.229 -51.487  1.00  0.00     0.103 C 
HETATM    4  N   UNL     1     -41.988  60.039 -50.666  1.00  0.00    -0.191 NA
ENDROOT
BRANCH   2   5
HETATM    5  C   UNL     1     -42.268  56.886 -52.199  1.00  0.00     0.120 A 
HETATM    6  S   UNL     1     -43.504  56.228 -51.164  1.00  0.00    -0.078 SA
HETATM    7  C   UNL     1     -42.881  54.655 -51.395  1.00  0.00     0.084 A 
HETATM    8  C   UNL     1     -41.808  54.691 -52.261  1.00  0.00     0.075 A 
HETATM    9  N   UNL     1     -41.466  55.962 -52.702  1.00  0.00    -0.239 NA
BRANCH   8  10
HETATM   10  C   UNL     1     -41.064  53.513 -52.697  1.00  0.00    -0.007 A 
HETATM   11  C   UNL     1     -40.264  52.772 -51.811  1.00  0.00     0.017 A 
HETATM   12  C   UNL     1     -39.565  51.647 -52.258  1.00  0.00     0.043 A 
HETATM   13  C   UNL     1     -39.668  51.258 -53.588  1.00  0.00     0.116 A 
HETATM   14  F   UNL     1     -38.996  50.181 -54.013  1.00  0.00    -0.206 F 
HETATM   15  C   UNL     1     -40.459  51.970 -54.480  1.00  0.00     0.043 A 
HETATM   16  C   UNL     1     -41.160  53.093 -54.034  1.00  0.00     0.017 A 
ENDBRANCH   8  10
ENDBRANCH   2   5
BRANCH   1  17
HETATM   17  N   UNL     1     -42.520  58.053 -55.003  1.00  0.00    -0.358 N 
HETATM   18  H   UNL     1     -42.374  57.040 -54.932  1.00  0.00     0.166 HD
BRANCH  17  19
HETATM   19  C   UNL     1     -42.452  58.565 -56.274  1.00  0.00     0.091 A 
HETATM   20  C   UNL     1     -42.611  57.835 -57.453  1.00  0.00     0.080 A 
HETATM   21  C   UNL     1     -42.389  58.661 -58.625  1.00  0.00    -0.026 A 
HETATM   22  C   UNL     1     -42.118  59.970 -58.278  1.00  0.00    -0.008 A 
HETATM   23  C   UNL     1     -42.437  58.235 -60.068  1.00  0.00     0.041 C 
HETATM   24  S   UNL     1     -42.131  60.222 -56.606  1.00  0.00    -0.075 SA
HETATM   25  C   UNL     1     -41.800  61.079 -59.235  1.00  0.00     0.047 C 
HETATM   26  C   UNL     1     -42.209  60.695 -60.662  1.00  0.00     0.005 C 
HETATM   27  C   UNL     1     -41.780  59.262 -61.002  1.00  0.00     0.005 C 
BRANCH  20  28
HETATM   28  C   UNL     1     -42.956  56.408 -57.426  1.00  0.00     0.296 C 
HETATM   29  O   UNL     1     -42.393  55.596 -56.698  1.00  0.00    -0.259 OA
BRANCH  28  30
HETATM   30  O   UNL     1     -43.984  56.092 -58.265  1.00  0.00    -0.318 OA
BRANCH  30  31
HETATM   31  C   UNL     1     -43.749  55.016 -59.185  1.00  0.00     0.174 C 
HETATM   32  C   UNL     1     -44.972  54.821 -60.061  1.00  0.00     0.034 C 
ENDBRANCH  30  31
ENDBRANCH  28  30
ENDBRANCH  20  28
ENDBRANCH  17  19
ENDBRANCH   1  17
TORSDOF 7
ENDMDL
MODEL 5
REMARK VINA RESULT:      -8.1      2.085      3.557
REMARK  7 active torsions:
REMARK  status: ('A' for Active; 'I' for Inactive)
REMARK    1  A    between atoms: C_2  and  O_3 
REMARK    2  A    between atoms: O_3  and  C_4 
REMARK    3  A    between atoms: C_4  and  C_5 
REMARK    4  A    between atoms: C_6  and  N_7 
REMARK    5  A    between atoms: N_7  and  C_8 
REMARK    6  A    between atoms: C_9  and  C_10 
REMARK    7  A    between atoms: C_13  and  C_14 
ROOT
HETATM    1  C   UNL     1     -44.897  57.354 -54.053  1.00  0.00     0.114 C 
HETATM    2  C   UNL     1     -44.061  56.813 -53.142  1.00  0.00     0.095 C 
HETATM    3  C   UNL     1     -44.382  56.946 -51.758  1.00  0.00     0.103 C 
HETATM    4  N   UNL     1     -44.673  57.097 -50.644  1.00  0.00    -0.191 NA
ENDROOT
BRANCH   2   5
HETATM    5  C   UNL     1     -42.844  56.148 -53.495  1.00  0.00     0.120 A 
HETATM    6  S   UNL     1     -41.505  57.030 -54.175  1.00  0.00    -0.078 SA
HETATM    7  C   UNL     1     -40.543  55.620 -54.149  1.00  0.00     0.084 A 
HETATM    8  C   UNL     1     -41.251  54.571 -53.600  1.00  0.00     0.075 A 
HETATM    9  N   UNL     1     -42.556  54.882 -53.242  1.00  0.00    -0.239 NA
BRANCH   8  10
HETATM   10  C   UNL     1     -40.711  53.230 -53.401  1.00  0.00    -0.007 A 
HETATM   11  C   UNL     1     -40.173  52.823 -52.168  1.00  0.00     0.017 A 
HETATM   12  C   UNL     1     -39.666  51.530 -52.007  1.00  0.00     0.043 A 
HETATM   13  C   UNL     1     -39.701  50.641 -53.074  1.00  0.00     0.116 A 
HETATM   14  F   UNL     1     -39.215  49.404 -52.917  1.00  0.00    -0.206 F 
HETATM   15  C   UNL     1     -40.237  51.017 -54.299  1.00  0.00     0.043 A 
HETATM   16  C   UNL     1     -40.745  52.308 -54.460  1.00  0.00     0.017 A 
ENDBRANCH   8  10
ENDBRANCH   2   5
BRANCH   1  17
HETATM   17  N   UNL     1     -44.877  57.328 -55.434  1.00  0.00    -0.358 N 
HETATM   18  H   UNL     1     -44.940  56.383 -55.829  1.00  0.00     0.166 HD
BRANCH  17  19
HETATM   19  C   UNL     1     -44.374  58.281 -56.283  1.00  0.00     0.091 A 
HETATM   20  C   UNL     1     -43.679  58.029 -57.467  1.00  0.00     0.080 A 
HETATM   21  C   UNL     1     -43.208  59.257 -58.080  1.00  0.00    -0.026 A 
HETATM   22  C   UNL     1     -43.602  60.367 -57.359  1.00  0.00    -0.008 A 
HETATM   23  C   UNL     1     -42.398  59.399 -59.341  1.00  0.00     0.041 C 
HETATM   24  S   UNL     1     -44.515  59.971 -55.991  1.00  0.00    -0.075 SA
HETATM   25  C   UNL     1     -43.254  61.788 -57.684  1.00  0.00     0.047 C 
HETATM   26  C   UNL     1     -42.756  61.906 -59.130  1.00  0.00     0.005 C 
HETATM   27  C   UNL     1     -41.760  60.791 -59.472  1.00  0.00     0.005 C 
BRANCH  20  28
HETATM   28  C   UNL     1     -43.487  56.660 -57.962  1.00  0.00     0.296 C 
HETATM   29  O   UNL     1     -42.827  55.817 -57.362  1.00  0.00    -0.259 OA
BRANCH  28  30
HETATM   30  O   UNL     1     -44.144  56.420 -59.133  1.00  0.00    -0.318 OA
BRANCH  30  31
HETATM   31  C   UNL     1     -43.727  55.264 -59.873  1.00  0.00     0.174 C 
HETATM   32  C   UNL     1     -44.821  54.215 -59.838  1.00  0.00     0.034 C 
ENDBRANCH  30  31
ENDBRANCH  28  30
ENDBRANCH  20  28
ENDBRANCH  17  19
ENDBRANCH   1  17
TORSDOF 7
ENDMDL
MODEL 6
REMARK VINA RESULT:      -8.0      2.705      4.220
REMARK  7 active torsions:
REMARK  status: ('A' for Active; 'I' for Inactive)
REMARK    1  A    between atoms: C_2  and  O_3 
REMARK    2  A    between atoms: O_3  and  C_4 
REMARK    3  A    between atoms: C_4  and  C_5 
REMARK    4  A    between atoms: C_6  and  N_7 
REMARK    5  A    between atoms: N_7  and  C_8 
REMARK    6  A    between atoms: C_9  and  C_10 
REMARK    7  A    between atoms: C_13  and  C_14 
ROOT
HETATM    1  C   UNL     1     -42.244  60.332 -54.076  1.00  0.00     0.114 C 
HETATM    2  C   UNL     1     -43.037  60.340 -52.985  1.00  0.00     0.095 C 
HETATM    3  C   UNL     1     -43.559  61.587 -52.528  1.00  0.00     0.103 C 
HETATM    4  N   UNL     1     -43.942  62.627 -52.182  1.00  0.00    -0.191 NA
ENDROOT
BRANCH   2   5
HETATM    5  C   UNL     1     -43.347  59.161 -52.235  1.00  0.00     0.120 A 
HETATM    6  S   UNL     1     -44.986  58.799 -51.771  1.00  0.00    -0.078 SA
HETATM    7  C   UNL     1     -44.486  57.306 -51.112  1.00  0.00     0.084 A 
HETATM    8  C   UNL     1     -43.131  57.131 -51.302  1.00  0.00     0.075 A 
HETATM    9  N   UNL     1     -42.496  58.193 -51.932  1.00  0.00    -0.239 NA
BRANCH   8  10
HETATM   10  C   UNL     1     -42.388  55.946 -50.886  1.00  0.00    -0.007 A 
HETATM   11  C   UNL     1     -42.837  54.648 -51.181  1.00  0.00     0.017 A 
HETATM   12  C   UNL     1     -42.101  53.532 -50.771  1.00  0.00     0.043 A 
HETATM   13  C   UNL     1     -40.914  53.711 -50.072  1.00  0.00     0.116 A 
HETATM   14  F   UNL     1     -40.212  52.641 -49.680  1.00  0.00    -0.206 F 
HETATM   15  C   UNL     1     -40.445  54.985 -49.776  1.00  0.00     0.043 A 
HETATM   16  C   UNL     1     -41.179  56.101 -50.187  1.00  0.00     0.017 A 
ENDBRANCH   8  10
ENDBRANCH   2   5
BRANCH   1  17
HETATM   17  N   UNL     1     -41.659  59.290 -54.769  1.00  0.00    -0.358 N 
HETATM   18  H   UNL     1     -40.664  59.161 -54.555  1.00  0.00     0.166 HD
BRANCH  17  19
HETATM   19  C   UNL     1     -42.080  58.725 -55.946  1.00  0.00     0.091 A 
HETATM   20  C   UNL     1     -42.443  57.389 -56.122  1.00  0.00     0.080 A 
HETATM   21  C   UNL     1     -42.753  57.100 -57.510  1.00  0.00    -0.026 A 
HETATM   22  C   UNL     1     -42.651  58.229 -58.298  1.00  0.00    -0.008 A 
HETATM   23  C   UNL     1     -43.152  55.774 -58.102  1.00  0.00     0.041 C 
HETATM   24  S   UNL     1     -42.206  59.604 -57.419  1.00  0.00    -0.075 SA
HETATM   25  C   UNL     1     -42.861  58.280 -59.781  1.00  0.00     0.047 C 
HETATM   26  C   UNL     1     -43.599  57.027 -60.266  1.00  0.00     0.005 C 
HETATM   27  C   UNL     1     -43.022  55.755 -59.632  1.00  0.00     0.005 C 
BRANCH  20  28
HETATM   28  C   UNL     1     -42.478  56.453 -54.991  1.00  0.00     0.296 C 
HETATM   29  O   UNL     1     -43.510  55.926 -54.589  1.00  0.00    -0.259 OA
BRANCH  28  30
HETATM   30  O   UNL     1     -41.244  56.210 -54.463  1.00  0.00    -0.318 OA
BRANCH  30  31
HETATM   31  C   UNL     1     -40.530  55.086 -54.999  1.00  0.00     0.174 C 
HETATM   32  C   UNL     1     -40.581  53.934 -54.014  1.00  0.00     0.034 C 
ENDBRANCH  30  31
ENDBRANCH  28  30
ENDBRANCH  20  28
ENDBRANCH  17  19
ENDBRANCH   1  17
TORSDOF 7
ENDMDL
MODEL 7
REMARK VINA RESULT:      -7.9      2.726      5.490
REMARK  7 active torsions:
REMARK  status: ('A' for Active; 'I' for Inactive)
REMARK    1  A    between atoms: C_2  and  O_3 
REMARK    2  A    between atoms: O_3  and  C_4 
REMARK    3  A    between atoms: C_4  and  C_5 
REMARK    4  A    between atoms: C_6  and  N_7 
REMARK    5  A    between atoms: N_7  and  C_8 
REMARK    6  A    between atoms: C_9  and  C_10 
REMARK    7  A    between atoms: C_13  and  C_14 
ROOT
HETATM    1  C   UNL     1     -42.494  58.085 -56.725  1.00  0.00     0.114 C 
HETATM    2  C   UNL     1     -42.696  56.751 -56.736  1.00  0.00     0.095 C 
HETATM    3  C   UNL     1     -42.940  56.107 -57.987  1.00  0.00     0.103 C 
HETATM    4  N   UNL     1     -43.155  55.631 -59.024  1.00  0.00    -0.191 NA
ENDROOT
BRANCH   2   5
HETATM    5  C   UNL     1     -42.720  55.953 -55.548  1.00  0.00     0.120 A 
HETATM    6  S   UNL     1     -44.127  55.914 -54.523  1.00  0.00    -0.078 SA
HETATM    7  C   UNL     1     -43.394  54.728 -53.537  1.00  0.00     0.084 A 
HETATM    8  C   UNL     1     -42.155  54.391 -54.039  1.00  0.00     0.075 A 
HETATM    9  N   UNL     1     -41.781  55.099 -55.174  1.00  0.00    -0.239 NA
BRANCH   8  10
HETATM   10  C   UNL     1     -41.276  53.384 -53.453  1.00  0.00    -0.007 A 
HETATM   11  C   UNL     1     -40.738  52.335 -54.217  1.00  0.00     0.017 A 
HETATM   12  C   UNL     1     -39.896  51.387 -53.627  1.00  0.00     0.043 A 
HETATM   13  C   UNL     1     -39.587  51.489 -52.277  1.00  0.00     0.116 A 
HETATM   14  F   UNL     1     -38.781  50.579 -51.715  1.00  0.00    -0.206 F 
HETATM   15  C   UNL     1     -40.098  52.523 -51.504  1.00  0.00     0.043 A 
HETATM   16  C   UNL     1     -40.938  53.472 -52.092  1.00  0.00     0.017 A 
ENDBRANCH   8  10
ENDBRANCH   2   5
BRANCH   1  17
HETATM   17  N   UNL     1     -42.179  58.948 -55.695  1.00  0.00    -0.358 N 
HETATM   18  H   UNL     1     -41.175  58.989 -55.485  1.00  0.00     0.166 HD
BRANCH  17  19
HETATM   19  C   UNL     1     -43.003  59.392 -54.691  1.00  0.00     0.091 A 
HETATM   20  C   UNL     1     -42.754  59.270 -53.323  1.00  0.00     0.080 A 
HETATM   21  C   UNL     1     -43.868  59.763 -52.534  1.00  0.00    -0.026 A 
HETATM   22  C   UNL     1     -44.874  60.266 -53.335  1.00  0.00    -0.008 A 
HETATM   23  C   UNL     1     -43.993  59.773 -51.034  1.00  0.00     0.041 C 
HETATM   24  S   UNL     1     -44.511  60.166 -54.984  1.00  0.00    -0.075 SA
HETATM   25  C   UNL     1     -46.182  60.815 -52.853  1.00  0.00     0.047 C 
HETATM   26  C   UNL     1     -46.115  61.134 -51.354  1.00  0.00     0.005 C 
HETATM   27  C   UNL     1     -45.440  60.002 -50.570  1.00  0.00     0.005 C 
BRANCH  20  28
HETATM   28  C   UNL     1     -41.497  58.698 -52.824  1.00  0.00     0.296 C 
HETATM   29  O   UNL     1     -41.239  57.500 -52.876  1.00  0.00    -0.259 OA
BRANCH  28  30
HETATM   30  O   UNL     1     -40.642  59.640 -52.332  1.00  0.00    -0.318 OA
BRANCH  30  31
HETATM   31  C   UNL     1     -39.816  59.238 -51.230  1.00  0.00     0.174 C 
HETATM   32  C   UNL     1     -40.562  59.458 -49.928  1.00  0.00     0.034 C 
ENDBRANCH  30  31
ENDBRANCH  28  30
ENDBRANCH  20  28
ENDBRANCH  17  19
ENDBRANCH   1  17
TORSDOF 7
ENDMDL
MODEL 8
REMARK VINA RESULT:      -7.9      2.695      3.689
REMARK  7 active torsions:
REMARK  status: ('A' for Active; 'I' for Inactive)
REMARK    1  A    between atoms: C_2  and  O_3 
REMARK    2  A    between atoms: O_3  and  C_4 
REMARK    3  A    between atoms: C_4  and  C_5 
REMARK    4  A    between atoms: C_6  and  N_7 
REMARK    5  A    between atoms: N_7  and  C_8 
REMARK    6  A    between atoms: C_9  and  C_10 
REMARK    7  A    between atoms: C_13  and  C_14 
ROOT
HETATM    1  C   UNL     1     -44.403  59.172 -53.420  1.00  0.00     0.114 C 
HETATM    2  C   UNL     1     -44.310  58.730 -52.149  1.00  0.00     0.095 C 
HETATM    3  C   UNL     1     -45.435  58.894 -51.285  1.00  0.00     0.103 C 
HETATM    4  N   UNL     1     -46.367  59.068 -50.615  1.00  0.00    -0.191 NA
ENDROOT
BRANCH   2   5
HETATM    5  C   UNL     1     -43.123  58.141 -51.610  1.00  0.00     0.120 A 
HETATM    6  S   UNL     1     -41.778  59.129 -51.112  1.00  0.00    -0.078 SA
HETATM    7  C   UNL     1     -40.960  57.749 -50.530  1.00  0.00     0.084 A 
HETATM    8  C   UNL     1     -41.741  56.626 -50.698  1.00  0.00     0.075 A 
HETATM    9  N   UNL     1     -42.960  56.860 -51.320  1.00  0.00    -0.239 NA
BRANCH   8  10
HETATM   10  C   UNL     1     -41.353  55.282 -50.279  1.00  0.00    -0.007 A 
HETATM   11  C   UNL     1     -41.041  54.985 -48.942  1.00  0.00     0.017 A 
HETATM   12  C   UNL     1     -40.675  53.688 -48.570  1.00  0.00     0.043 A 
HETATM   13  C   UNL     1     -40.625  52.686 -49.531  1.00  0.00     0.116 A 
HETATM   14  F   UNL     1     -40.274  51.445 -49.172  1.00  0.00    -0.206 F 
HETATM   15  C   UNL     1     -40.938  52.954 -50.858  1.00  0.00     0.043 A 
HETATM   16  C   UNL     1     -41.305  54.250 -51.230  1.00  0.00     0.017 A 
ENDBRANCH   8  10
ENDBRANCH   2   5
BRANCH   1  17
HETATM   17  N   UNL     1     -43.517  59.094 -54.477  1.00  0.00    -0.358 N 
HETATM   18  H   UNL     1     -42.747  59.769 -54.419  1.00  0.00     0.166 HD
BRANCH  17  19
HETATM   19  C   UNL     1     -43.748  58.580 -55.728  1.00  0.00     0.091 A 
HETATM   20  C   UNL     1     -43.409  57.293 -56.153  1.00  0.00     0.080 A 
HETATM   21  C   UNL     1     -43.711  57.101 -57.559  1.00  0.00    -0.026 A 
HETATM   22  C   UNL     1     -44.296  58.224 -58.110  1.00  0.00    -0.008 A 
HETATM   23  C   UNL     1     -43.463  55.869 -58.388  1.00  0.00     0.041 C 
HETATM   24  S   UNL     1     -44.491  59.478 -56.992  1.00  0.00    -0.075 SA
HETATM   25  C   UNL     1     -44.696  58.384 -59.546  1.00  0.00     0.047 C 
HETATM   26  C   UNL     1     -44.761  57.021 -60.244  1.00  0.00     0.005 C 
HETATM   27  C   UNL     1     -43.545  56.154 -59.896  1.00  0.00     0.005 C 
BRANCH  20  28
HETATM   28  C   UNL     1     -42.819  56.316 -55.229  1.00  0.00     0.296 C 
HETATM   29  O   UNL     1     -43.447  55.798 -54.311  1.00  0.00    -0.259 OA
BRANCH  28  30
HETATM   30  O   UNL     1     -41.519  56.024 -55.522  1.00  0.00    -0.318 OA
BRANCH  30  31
HETATM   31  C   UNL     1     -40.778  55.328 -54.510  1.00  0.00     0.174 C 
HETATM   32  C   UNL     1     -40.143  54.088 -55.108  1.00  0.00     0.034 C 
ENDBRANCH  30  31
ENDBRANCH  28  30
ENDBRANCH  20  28
ENDBRANCH  17  19
ENDBRANCH   1  17
TORSDOF 7
ENDMDL
MODEL 9
REMARK VINA RESULT:      -7.8      3.143      6.281
REMARK  7 active torsions:
REMARK  status: ('A' for Active; 'I' for Inactive)
REMARK    1  A    between atoms: C_2  and  O_3 
REMARK    2  A    between atoms: O_3  and  C_4 
REMARK    3  A    between atoms: C_4  and  C_5 
REMARK    4  A    between atoms: C_6  and  N_7 
REMARK    5  A    between atoms: N_7  and  C_8 
REMARK    6  A    between atoms: C_9  and  C_10 
REMARK    7  A    between atoms: C_13  and  C_14 
ROOT
HETATM    1  C   UNL     1     -44.320  59.404 -51.585  1.00  0.00     0.114 C 
HETATM    2  C   UNL     1     -44.995  59.962 -52.611  1.00  0.00     0.095 C 
HETATM    3  C   UNL     1     -46.275  60.538 -52.353  1.00  0.00     0.103 C 
HETATM    4  N   UNL     1     -47.320  60.976 -52.100  1.00  0.00    -0.191 NA
ENDROOT
BRANCH   2   5
HETATM    5  C   UNL     1     -44.509  59.967 -53.957  1.00  0.00     0.120 A 
HETATM    6  S   UNL     1     -43.802  61.400 -54.650  1.00  0.00    -0.078 SA
HETATM    7  C   UNL     1     -43.417  60.539 -56.073  1.00  0.00     0.084 A 
HETATM    8  C   UNL     1     -43.798  59.220 -55.950  1.00  0.00     0.075 A 
HETATM    9  N   UNL     1     -44.423  58.911 -54.750  1.00  0.00    -0.239 NA
BRANCH   8  10
HETATM   10  C   UNL     1     -43.585  58.203 -56.975  1.00  0.00    -0.007 A 
HETATM   11  C   UNL     1     -43.701  58.495 -58.344  1.00  0.00     0.017 A 
HETATM   12  C   UNL     1     -43.489  57.500 -59.303  1.00  0.00     0.043 A 
HETATM   13  C   UNL     1     -43.155  56.215 -58.896  1.00  0.00     0.116 A 
HETATM   14  F   UNL     1     -42.953  55.264 -59.817  1.00  0.00    -0.206 F 
HETATM   15  C   UNL     1     -43.026  55.904 -57.549  1.00  0.00     0.043 A 
HETATM   16  C   UNL     1     -43.236  56.898 -56.590  1.00  0.00     0.017 A 
ENDBRANCH   8  10
ENDBRANCH   2   5
BRANCH   1  17
HETATM   17  N   UNL     1     -43.061  58.839 -51.524  1.00  0.00    -0.358 N 
HETATM   18  H   UNL     1     -42.321  59.510 -51.289  1.00  0.00     0.166 HD
BRANCH  17  19
HETATM   19  C   UNL     1     -42.631  57.683 -52.125  1.00  0.00     0.091 A 
HETATM   20  C   UNL     1     -41.513  57.565 -52.953  1.00  0.00     0.080 A 
HETATM   21  C   UNL     1     -41.391  56.224 -53.494  1.00  0.00    -0.026 A 
HETATM   22  C   UNL     1     -42.387  55.394 -53.021  1.00  0.00    -0.008 A 
HETATM   23  C   UNL     1     -40.342  55.714 -54.446  1.00  0.00     0.041 C 
HETATM   24  S   UNL     1     -43.441  56.175 -51.954  1.00  0.00    -0.075 SA
HETATM   25  C   UNL     1     -42.584  53.959 -53.407  1.00  0.00     0.047 C 
HETATM   26  C   UNL     1     -41.320  53.399 -54.071  1.00  0.00     0.005 C 
HETATM   27  C   UNL     1     -40.744  54.381 -55.098  1.00  0.00     0.005 C 
BRANCH  20  28
HETATM   28  C   UNL     1     -40.622  58.706 -53.199  1.00  0.00     0.296 C 
HETATM   29  O   UNL     1     -40.875  59.591 -54.010  1.00  0.00    -0.259 OA
BRANCH  28  30
HETATM   30  O   UNL     1     -39.509  58.693 -52.410  1.00  0.00    -0.318 OA
BRANCH  30  31
HETATM   31  C   UNL     1     -39.660  59.221 -51.084  1.00  0.00     0.174 C 
HETATM   32  C   UNL     1     -38.293  59.478 -50.480  1.00  0.00     0.034 C 
ENDBRANCH  30  31
ENDBRANCH  28  30
ENDBRANCH  20  28
ENDBRANCH  17  19
ENDBRANCH   1  17
TORSDOF 7
ENDMDL
MODEL 10
REMARK VINA RESULT:      -7.8      4.392      8.185
REMARK  7 active torsions:
REMARK  status: ('A' for Active; 'I' for Inactive)
REMARK    1  A    between atoms: C_2  and  O_3 
REMARK    2  A    between atoms: O_3  and  C_4 
REMARK    3  A    between atoms: C_4  and  C_5 
REMARK    4  A    between atoms: C_6  and  N_7 
REMARK    5  A    between atoms: N_7  and  C_8 
REMARK    6  A    between atoms: C_9  and  C_10 
REMARK    7  A    between atoms: C_13  and  C_14 
ROOT
HETATM    1  C   UNL     1     -44.338  56.517 -54.736  1.00  0.00     0.114 C 
HETATM    2  C   UNL     1     -44.278  57.817 -55.091  1.00  0.00     0.095 C 
HETATM    3  C   UNL     1     -44.799  58.203 -56.363  1.00  0.00     0.103 C 
HETATM    4  N   UNL     1     -45.216  58.465 -57.414  1.00  0.00    -0.191 NA
ENDROOT
BRANCH   2   5
HETATM    5  C   UNL     1     -43.676  58.825 -54.272  1.00  0.00     0.120 A 
HETATM    6  S   UNL     1     -42.298  59.731 -54.832  1.00  0.00    -0.078 SA
HETATM    7  C   UNL     1     -42.342  60.695 -53.424  1.00  0.00     0.084 A 
HETATM    8  C   UNL     1     -43.402  60.323 -52.624  1.00  0.00     0.075 A 
HETATM    9  N   UNL     1     -44.144  59.256 -53.112  1.00  0.00    -0.239 NA
BRANCH   8  10
HETATM   10  C   UNL     1     -43.744  60.967 -51.360  1.00  0.00    -0.007 A 
HETATM   11  C   UNL     1     -43.188  62.200 -50.982  1.00  0.00     0.017 A 
HETATM   12  C   UNL     1     -43.538  62.794 -49.765  1.00  0.00     0.043 A 
HETATM   13  C   UNL     1     -44.447  62.159 -48.928  1.00  0.00     0.116 A 
HETATM   14  F   UNL     1     -44.780  62.730 -47.764  1.00  0.00    -0.206 F 
HETATM   15  C   UNL     1     -45.018  60.944 -49.285  1.00  0.00     0.043 A 
HETATM   16  C   UNL     1     -44.670  60.351 -50.501  1.00  0.00     0.017 A 
ENDBRANCH   8  10
ENDBRANCH   2   5
BRANCH   1  17
HETATM   17  N   UNL     1     -43.978  55.876 -53.567  1.00  0.00    -0.358 N 
HETATM   18  H   UNL     1     -44.200  56.411 -52.720  1.00  0.00     0.166 HD
BRANCH  17  19
HETATM   19  C   UNL     1     -43.034  54.894 -53.406  1.00  0.00     0.091 A 
HETATM   20  C   UNL     1     -42.489  54.483 -52.188  1.00  0.00     0.080 A 
HETATM   21  C   UNL     1     -41.451  53.486 -52.378  1.00  0.00    -0.026 A 
HETATM   22  C   UNL     1     -41.294  53.167 -53.712  1.00  0.00    -0.008 A 
HETATM   23  C   UNL     1     -40.611  52.826 -51.318  1.00  0.00     0.041 C 
HETATM   24  S   UNL     1     -42.353  54.018 -54.720  1.00  0.00    -0.075 SA
HETATM   25  C   UNL     1     -40.285  52.208 -54.267  1.00  0.00     0.047 C 
HETATM   26  C   UNL     1     -39.719  51.315 -53.156  1.00  0.00     0.005 C 
HETATM   27  C   UNL     1     -39.373  52.130 -51.904  1.00  0.00     0.005 C 
BRANCH  20  28
HETATM   28  C   UNL     1     -42.960  55.042 -50.914  1.00  0.00     0.296 C 
HETATM   29  O   UNL     1     -44.035  54.738 -50.406  1.00  0.00    -0.259 OA
BRANCH  28  30
HETATM   30  O   UNL     1     -42.066  55.902 -50.347  1.00  0.00    -0.318 OA
BRANCH  30  31
HETATM   31  C   UNL     1     -42.186  57.283 -50.716  1.00  0.00     0.174 C 
HETATM   32  C   UNL     1     -40.997  57.687 -51.567  1.00  0.00     0.034 C 
ENDBRANCH  30  31
ENDBRANCH  28  30
ENDBRANCH  20  28
ENDBRANCH  17  19
ENDBRANCH   1  17
TORSDOF 7
ENDMDL
