MODEL 1
REMARK VINA RESULT:      -8.4      0.000      0.000
REMARK  3 active torsions:
REMARK  status: ('A' for Active; 'I' for Inactive)
REMARK    1  A    between atoms: O_2  and  C_3 
REMARK    2  A    between atoms: C_4  and  N_5 
REMARK       I    between atoms: N_5  and  C_6 
REMARK       I    between atoms: C_6  and  N_7 
REMARK    3  A    between atoms: C_10  and  C_11 
ROOT
HETATM    1  N   UNL     1     -41.001  54.498 -53.745  1.00  0.00    -0.306 N 
HETATM    2  C   UNL     1     -42.242  55.028 -53.484  1.00  0.00     0.323 C 
HETATM    3  N   UNL     1     -42.318  56.409 -53.740  1.00  0.00    -0.334 N 
HETATM    4  C   UNL     1     -41.187  57.274 -53.390  1.00  0.00     0.128 C 
HETATM    5  C   UNL     1     -41.308  58.669 -53.998  1.00  0.00     0.029 C 
HETATM    6  C   UNL     1     -42.648  59.336 -53.671  1.00  0.00     0.024 C 
HETATM    7  C   UNL     1     -43.747  58.384 -54.193  1.00  0.00     0.029 C 
HETATM    8  C   UNL     1     -43.640  57.001 -53.555  1.00  0.00     0.128 C 
HETATM    9  O   UNL     1     -43.209  54.377 -53.096  1.00  0.00    -0.247 OA
HETATM   10  H   UNL     1     -40.475  54.958 -54.476  1.00  0.00     0.171 HD
ENDROOT
BRANCH   1  11
HETATM   11  C   UNL     1     -40.519  53.221 -53.395  1.00  0.00     0.072 A 
HETATM   12  C   UNL     1     -40.169  53.013 -52.047  1.00  0.00     0.095 A 
HETATM   13  C   UNL     1     -39.687  51.772 -51.621  1.00  0.00     0.042 A 
HETATM   14  C   UNL     1     -39.603  50.719 -52.531  1.00  0.00     0.045 A 
HETATM   15  C   UNL     1     -39.985  50.920 -53.854  1.00  0.00     0.118 A 
HETATM   16  C   UNL     1     -40.438  52.159 -54.297  1.00  0.00     0.074 A 
HETATM   17  F   UNL     1     -39.916  49.897 -54.716  1.00  0.00    -0.206 F 
BRANCH  12  18
HETATM   18  O   UNL     1     -40.259  54.097 -51.204  1.00  0.00    -0.354 OA
HETATM   19  C   UNL     1     -40.215  53.739 -49.825  1.00  0.00     0.210 C 
ENDBRANCH  12  18
ENDBRANCH   1  11
BRANCH   6  20
HETATM   20  C   UNL     1     -42.876  59.760 -52.225  1.00  0.00    -0.026 A 
HETATM   21  C   UNL     1     -44.035  60.323 -51.563  1.00  0.00    -0.001 A 
HETATM   22  C   UNL     1     -43.689  60.548 -50.226  1.00  0.00     0.042 A 
HETATM   23  C   UNL     1     -45.350  60.678 -51.946  1.00  0.00     0.014 A 
HETATM   24  C   UNL     1     -44.558  61.117 -49.285  1.00  0.00     0.030 A 
HETATM   25  N   UNL     1     -42.401  60.110 -50.057  1.00  0.00    -0.365 N 
HETATM   26  C   UNL     1     -45.839  61.466 -49.705  1.00  0.00     0.002 A 
HETATM   27  C   UNL     1     -46.235  61.246 -51.018  1.00  0.00     0.001 A 
HETATM   28  H   UNL     1     -41.895  60.142 -49.184  1.00  0.00     0.165 HD
HETATM   29  C   UNL     1     -41.918  59.610 -51.231  1.00  0.00     0.096 A 
ENDBRANCH   6  20
TORSDOF 3
ENDMDL
MODEL 2
REMARK VINA RESULT:      -8.3      3.748      7.936
REMARK  3 active torsions:
REMARK  status: ('A' for Active; 'I' for Inactive)
REMARK    1  A    between atoms: O_2  and  C_3 
REMARK    2  A    between atoms: C_4  and  N_5 
REMARK       I    between atoms: N_5  and  C_6 
REMARK       I    between atoms: C_6  and  N_7 
REMARK    3  A    between atoms: C_10  and  C_11 
ROOT
HETATM    1  N   UNL     1     -42.829  56.241 -54.992  1.00  0.00    -0.306 N 
HETATM    2  C   UNL     1     -43.355  55.261 -54.183  1.00  0.00     0.323 C 
HETATM    3  N   UNL     1     -42.633  55.085 -52.989  1.00  0.00    -0.334 N 
HETATM    4  C   UNL     1     -41.168  55.153 -53.011  1.00  0.00     0.128 C 
HETATM    5  C   UNL     1     -40.566  55.241 -51.611  1.00  0.00     0.029 C 
HETATM    6  C   UNL     1     -41.063  54.122 -50.689  1.00  0.00     0.024 C 
HETATM    7  C   UNL     1     -42.604  54.233 -50.661  1.00  0.00     0.029 C 
HETATM    8  C   UNL     1     -43.200  54.111 -52.061  1.00  0.00     0.128 C 
HETATM    9  O   UNL     1     -44.366  54.615 -54.442  1.00  0.00    -0.247 OA
HETATM   10  H   UNL     1     -42.355  56.994 -54.512  1.00  0.00     0.171 HD
ENDROOT
BRANCH   1  11
HETATM   11  C   UNL     1     -43.160  56.520 -56.332  1.00  0.00     0.072 A 
HETATM   12  C   UNL     1     -43.677  57.800 -56.614  1.00  0.00     0.095 A 
HETATM   13  C   UNL     1     -44.026  58.154 -57.920  1.00  0.00     0.042 A 
HETATM   14  C   UNL     1     -43.809  57.249 -58.959  1.00  0.00     0.045 A 
HETATM   15  C   UNL     1     -43.263  55.999 -58.680  1.00  0.00     0.118 A 
HETATM   16  C   UNL     1     -42.939  55.624 -57.379  1.00  0.00     0.074 A 
HETATM   17  F   UNL     1     -43.042  55.144 -59.687  1.00  0.00    -0.206 F 
BRANCH  12  18
HETATM   18  O   UNL     1     -43.884  58.639 -55.543  1.00  0.00    -0.354 OA
HETATM   19  C   UNL     1     -45.261  58.932 -55.319  1.00  0.00     0.210 C 
ENDBRANCH  12  18
ENDBRANCH   1  11
BRANCH   6  20
HETATM   20  C   UNL     1     -40.582  52.708 -50.993  1.00  0.00    -0.026 A 
HETATM   21  C   UNL     1     -40.274  52.050 -52.247  1.00  0.00    -0.001 A 
HETATM   22  C   UNL     1     -39.896  50.736 -51.950  1.00  0.00     0.042 A 
HETATM   23  C   UNL     1     -40.278  52.416 -53.613  1.00  0.00     0.014 A 
HETATM   24  C   UNL     1     -39.555  49.788 -52.925  1.00  0.00     0.030 A 
HETATM   25  N   UNL     1     -39.926  50.598 -50.587  1.00  0.00    -0.365 N 
HETATM   26  C   UNL     1     -39.586  50.184 -54.261  1.00  0.00     0.002 A 
HETATM   27  C   UNL     1     -39.938  51.483 -54.603  1.00  0.00     0.001 A 
HETATM   28  H   UNL     1     -39.689  49.751 -50.091  1.00  0.00     0.165 HD
HETATM   29  C   UNL     1     -40.301  51.773 -50.005  1.00  0.00     0.096 A 
ENDBRANCH   6  20
TORSDOF 3
ENDMDL
MODEL 3
REMARK VINA RESULT:      -8.2      3.517      7.199
REMARK  3 active torsions:
REMARK  status: ('A' for Active; 'I' for Inactive)
REMARK    1  A    between atoms: O_2  and  C_3 
REMARK    2  A    between atoms: C_4  and  N_5 
REMARK       I    between atoms: N_5  and  C_6 
REMARK       I    between atoms: C_6  and  N_7 
REMARK    3  A    between atoms: C_10  and  C_11 
ROOT
HETATM    1  N   UNL     1     -42.430  57.555 -55.709  1.00  0.00    -0.306 N 
HETATM    2  C   UNL     1     -43.090  56.741 -54.818  1.00  0.00     0.323 C 
HETATM    3  N   UNL     1     -42.643  56.896 -53.494  1.00  0.00    -0.334 N 
HETATM    4  C   UNL     1     -41.212  57.078 -53.228  1.00  0.00     0.128 C 
HETATM    5  C   UNL     1     -40.936  57.526 -51.795  1.00  0.00     0.029 C 
HETATM    6  C   UNL     1     -41.588  56.604 -50.758  1.00  0.00     0.024 C 
HETATM    7  C   UNL     1     -43.099  56.591 -51.076  1.00  0.00     0.029 C 
HETATM    8  C   UNL     1     -43.369  56.110 -52.499  1.00  0.00     0.128 C 
HETATM    9  O   UNL     1     -43.998  55.972 -55.120  1.00  0.00    -0.247 OA
HETATM   10  H   UNL     1     -42.098  58.433 -55.333  1.00  0.00     0.171 HD
ENDROOT
BRANCH   1  11
HETATM   11  C   UNL     1     -42.467  57.500 -57.116  1.00  0.00     0.072 A 
HETATM   12  C   UNL     1     -42.035  58.643 -57.816  1.00  0.00     0.095 A 
HETATM   13  C   UNL     1     -42.038  58.664 -59.214  1.00  0.00     0.042 A 
HETATM   14  C   UNL     1     -42.423  57.523 -59.917  1.00  0.00     0.045 A 
HETATM   15  C   UNL     1     -42.815  56.384 -59.220  1.00  0.00     0.118 A 
HETATM   16  C   UNL     1     -42.844  56.360 -57.829  1.00  0.00     0.074 A 
HETATM   17  F   UNL     1     -43.166  55.288 -59.906  1.00  0.00    -0.206 F 
BRANCH  12  18
HETATM   18  O   UNL     1     -41.685  59.740 -57.063  1.00  0.00    -0.354 OA
HETATM   19  C   UNL     1     -41.606  60.941 -57.828  1.00  0.00     0.210 C 
ENDBRANCH  12  18
ENDBRANCH   1  11
BRANCH   6  20
HETATM   20  C   UNL     1     -41.005  55.203 -50.614  1.00  0.00    -0.026 A 
HETATM   21  C   UNL     1     -40.661  54.202 -51.604  1.00  0.00    -0.001 A 
HETATM   22  C   UNL     1     -40.184  53.079 -50.918  1.00  0.00     0.042 A 
HETATM   23  C   UNL     1     -40.703  54.114 -53.015  1.00  0.00     0.014 A 
HETATM   24  C   UNL     1     -39.782  51.896 -51.553  1.00  0.00     0.030 A 
HETATM   25  N   UNL     1     -40.191  53.381 -49.581  1.00  0.00    -0.365 N 
HETATM   26  C   UNL     1     -39.853  51.843 -52.944  1.00  0.00     0.002 A 
HETATM   27  C   UNL     1     -40.303  52.939 -53.669  1.00  0.00     0.001 A 
HETATM   28  H   UNL     1     -39.888  52.753 -48.850  1.00  0.00     0.165 HD
HETATM   29  C   UNL     1     -40.648  54.652 -49.390  1.00  0.00     0.096 A 
ENDBRANCH   6  20
TORSDOF 3
ENDMDL
MODEL 4
REMARK VINA RESULT:      -8.0      3.001      5.372
REMARK  3 active torsions:
REMARK  status: ('A' for Active; 'I' for Inactive)
REMARK    1  A    between atoms: O_2  and  C_3 
REMARK    2  A    between atoms: C_4  and  N_5 
REMARK       I    between atoms: N_5  and  C_6 
REMARK       I    between atoms: C_6  and  N_7 
REMARK    3  A    between atoms: C_10  and  C_11 
ROOT
HETATM    1  N   UNL     1     -41.746  54.612 -53.358  1.00  0.00    -0.306 N 
HETATM    2  C   UNL     1     -41.382  55.775 -53.994  1.00  0.00     0.323 C 
HETATM    3  N   UNL     1     -42.460  56.656 -54.194  1.00  0.00    -0.334 N 
HETATM    4  C   UNL     1     -43.771  56.121 -54.577  1.00  0.00     0.128 C 
HETATM    5  C   UNL     1     -44.883  57.161 -54.460  1.00  0.00     0.029 C 
HETATM    6  C   UNL     1     -44.559  58.452 -55.219  1.00  0.00     0.024 C 
HETATM    7  C   UNL     1     -43.223  58.972 -54.644  1.00  0.00     0.029 C 
HETATM    8  C   UNL     1     -42.108  57.940 -54.795  1.00  0.00     0.128 C 
HETATM    9  O   UNL     1     -40.236  56.052 -54.336  1.00  0.00    -0.247 OA
HETATM   10  H   UNL     1     -42.525  54.691 -52.719  1.00  0.00     0.171 HD
ENDROOT
BRANCH   1  11
HETATM   11  C   UNL     1     -40.980  53.440 -53.202  1.00  0.00     0.072 A 
HETATM   12  C   UNL     1     -40.428  53.196 -51.929  1.00  0.00     0.095 A 
HETATM   13  C   UNL     1     -39.660  52.053 -51.694  1.00  0.00     0.042 A 
HETATM   14  C   UNL     1     -39.484  51.121 -52.717  1.00  0.00     0.045 A 
HETATM   15  C   UNL     1     -40.062  51.350 -53.962  1.00  0.00     0.118 A 
HETATM   16  C   UNL     1     -40.805  52.499 -54.217  1.00  0.00     0.074 A 
HETATM   17  F   UNL     1     -39.901  50.440 -54.933  1.00  0.00    -0.206 F 
BRANCH  12  18
HETATM   18  O   UNL     1     -40.624  54.163 -50.969  1.00  0.00    -0.354 OA
HETATM   19  C   UNL     1     -40.017  53.841 -49.720  1.00  0.00     0.210 C 
ENDBRANCH  12  18
ENDBRANCH   1  11
BRANCH   6  20
HETATM   20  C   UNL     1     -44.554  58.378 -56.742  1.00  0.00    -0.026 A 
HETATM   21  C   UNL     1     -44.038  57.375 -57.650  1.00  0.00    -0.001 A 
HETATM   22  C   UNL     1     -44.280  57.823 -58.954  1.00  0.00     0.042 A 
HETATM   23  C   UNL     1     -43.383  56.127 -57.519  1.00  0.00     0.014 A 
HETATM   24  C   UNL     1     -43.887  57.120 -60.101  1.00  0.00     0.030 A 
HETATM   25  N   UNL     1     -44.945  59.017 -58.859  1.00  0.00    -0.365 N 
HETATM   26  C   UNL     1     -43.231  55.903 -59.929  1.00  0.00     0.002 A 
HETATM   27  C   UNL     1     -42.985  55.408 -58.656  1.00  0.00     0.001 A 
HETATM   28  H   UNL     1     -45.255  59.565 -59.650  1.00  0.00     0.165 HD
HETATM   29  C   UNL     1     -45.143  59.343 -57.549  1.00  0.00     0.096 A 
ENDBRANCH   6  20
TORSDOF 3
ENDMDL
MODEL 5
REMARK VINA RESULT:      -8.0      3.437      8.754
REMARK  3 active torsions:
REMARK  status: ('A' for Active; 'I' for Inactive)
REMARK    1  A    between atoms: O_2  and  C_3 
REMARK    2  A    between atoms: C_4  and  N_5 
REMARK       I    between atoms: N_5  and  C_6 
REMARK       I    between atoms: C_6  and  N_7 
REMARK    3  A    between atoms: C_10  and  C_11 
ROOT
HETATM    1  N   UNL     1     -44.139  59.010 -50.992  1.00  0.00    -0.306 N 
HETATM    2  C   UNL     1     -44.348  57.652 -50.939  1.00  0.00     0.323 C 
HETATM    3  N   UNL     1     -43.177  56.923 -50.667  1.00  0.00    -0.334 N 
HETATM    4  C   UNL     1     -41.910  57.332 -51.281  1.00  0.00     0.128 C 
HETATM    5  C   UNL     1     -40.704  56.633 -50.657  1.00  0.00     0.029 C 
HETATM    6  C   UNL     1     -40.855  55.108 -50.642  1.00  0.00     0.024 C 
HETATM    7  C   UNL     1     -42.159  54.806 -49.871  1.00  0.00     0.029 C 
HETATM    8  C   UNL     1     -43.364  55.482 -50.520  1.00  0.00     0.128 C 
HETATM    9  O   UNL     1     -45.441  57.111 -51.080  1.00  0.00    -0.247 OA
HETATM   10  H   UNL     1     -43.389  59.358 -50.411  1.00  0.00     0.171 HD
ENDROOT
BRANCH   1  11
HETATM   11  C   UNL     1     -45.027  60.000 -51.454  1.00  0.00     0.072 A 
HETATM   12  C   UNL     1     -45.600  60.851 -50.488  1.00  0.00     0.095 A 
HETATM   13  C   UNL     1     -46.488  61.861 -50.868  1.00  0.00     0.042 A 
HETATM   14  C   UNL     1     -46.766  62.059 -52.220  1.00  0.00     0.045 A 
HETATM   15  C   UNL     1     -46.169  61.239 -53.173  1.00  0.00     0.118 A 
HETATM   16  C   UNL     1     -45.306  60.211 -52.805  1.00  0.00     0.074 A 
HETATM   17  F   UNL     1     -46.430  61.449 -54.470  1.00  0.00    -0.206 F 
BRANCH  12  18
HETATM   18  O   UNL     1     -45.298  60.592 -49.171  1.00  0.00    -0.354 OA
HETATM   19  C   UNL     1     -44.745  61.717 -48.492  1.00  0.00     0.210 C 
ENDBRANCH  12  18
ENDBRANCH   1  11
BRANCH   6  20
HETATM   20  C   UNL     1     -40.790  54.393 -51.987  1.00  0.00    -0.026 A 
HETATM   21  C   UNL     1     -40.378  53.049 -52.338  1.00  0.00    -0.001 A 
HETATM   22  C   UNL     1     -40.493  52.924 -53.727  1.00  0.00     0.042 A 
HETATM   23  C   UNL     1     -39.912  51.914 -51.635  1.00  0.00     0.014 A 
HETATM   24  C   UNL     1     -40.150  51.761 -54.432  1.00  0.00     0.030 A 
HETATM   25  N   UNL     1     -40.988  54.108 -54.207  1.00  0.00    -0.365 N 
HETATM   26  C   UNL     1     -39.680  50.670 -53.704  1.00  0.00     0.002 A 
HETATM   27  C   UNL     1     -39.566  50.741 -52.322  1.00  0.00     0.001 A 
HETATM   28  H   UNL     1     -41.180  54.297 -55.180  1.00  0.00     0.165 HD
HETATM   29  C   UNL     1     -41.199  54.979 -53.178  1.00  0.00     0.096 A 
ENDBRANCH   6  20
TORSDOF 3
ENDMDL
MODEL 6
REMARK VINA RESULT:      -7.9      1.410      1.884
REMARK  3 active torsions:
REMARK  status: ('A' for Active; 'I' for Inactive)
REMARK    1  A    between atoms: O_2  and  C_3 
REMARK    2  A    between atoms: C_4  and  N_5 
REMARK       I    between atoms: N_5  and  C_6 
REMARK       I    between atoms: C_6  and  N_7 
REMARK    3  A    between atoms: C_10  and  C_11 
ROOT
HETATM    1  N   UNL     1     -40.891  55.106 -54.099  1.00  0.00    -0.306 N 
HETATM    2  C   UNL     1     -42.143  55.456 -54.547  1.00  0.00     0.323 C 
HETATM    3  N   UNL     1     -42.274  56.834 -54.798  1.00  0.00    -0.334 N 
HETATM    4  C   UNL     1     -41.646  57.799 -53.890  1.00  0.00     0.128 C 
HETATM    5  C   UNL     1     -41.629  59.214 -54.462  1.00  0.00     0.029 C 
HETATM    6  C   UNL     1     -43.018  59.683 -54.908  1.00  0.00     0.024 C 
HETATM    7  C   UNL     1     -43.515  58.650 -55.943  1.00  0.00     0.029 C 
HETATM    8  C   UNL     1     -43.562  57.242 -55.353  1.00  0.00     0.128 C 
HETATM    9  O   UNL     1     -43.059  54.662 -54.744  1.00  0.00    -0.247 OA
HETATM   10  H   UNL     1     -40.132  55.685 -54.430  1.00  0.00     0.171 HD
ENDROOT
BRANCH   1  11
HETATM   11  C   UNL     1     -40.487  53.873 -53.549  1.00  0.00     0.072 A 
HETATM   12  C   UNL     1     -40.507  53.757 -52.145  1.00  0.00     0.095 A 
HETATM   13  C   UNL     1     -40.125  52.565 -51.525  1.00  0.00     0.042 A 
HETATM   14  C   UNL     1     -39.772  51.466 -52.307  1.00  0.00     0.045 A 
HETATM   15  C   UNL     1     -39.789  51.575 -53.695  1.00  0.00     0.118 A 
HETATM   16  C   UNL     1     -40.140  52.766 -54.324  1.00  0.00     0.074 A 
HETATM   17  F   UNL     1     -39.464  50.508 -54.437  1.00  0.00    -0.206 F 
BRANCH  12  18
HETATM   18  O   UNL     1     -40.849  54.884 -51.431  1.00  0.00    -0.354 OA
HETATM   19  C   UNL     1     -40.435  54.828 -50.068  1.00  0.00     0.210 C 
ENDBRANCH  12  18
ENDBRANCH   1  11
BRANCH   6  20
HETATM   20  C   UNL     1     -44.042  59.955 -53.811  1.00  0.00    -0.026 A 
HETATM   21  C   UNL     1     -43.880  60.339 -52.424  1.00  0.00    -0.001 A 
HETATM   22  C   UNL     1     -45.158  60.432 -51.862  1.00  0.00     0.042 A 
HETATM   23  C   UNL     1     -42.788  60.617 -51.568  1.00  0.00     0.014 A 
HETATM   24  C   UNL     1     -45.393  60.755 -50.518  1.00  0.00     0.030 A 
HETATM   25  N   UNL     1     -46.064  60.162 -52.855  1.00  0.00    -0.365 N 
HETATM   26  C   UNL     1     -44.290  61.007 -49.704  1.00  0.00     0.002 A 
HETATM   27  C   UNL     1     -43.003  60.945 -50.221  1.00  0.00     0.001 A 
HETATM   28  H   UNL     1     -47.066  60.166 -52.732  1.00  0.00     0.165 HD
HETATM   29  C   UNL     1     -45.413  59.908 -54.026  1.00  0.00     0.096 A 
ENDBRANCH   6  20
TORSDOF 3
ENDMDL
MODEL 7
REMARK VINA RESULT:      -7.9      3.481      5.895
REMARK  3 active torsions:
REMARK  status: ('A' for Active; 'I' for Inactive)
REMARK    1  A    between atoms: O_2  and  C_3 
REMARK    2  A    between atoms: C_4  and  N_5 
REMARK       I    between atoms: N_5  and  C_6 
REMARK       I    between atoms: C_6  and  N_7 
REMARK    3  A    between atoms: C_10  and  C_11 
ROOT
HETATM    1  N   UNL     1     -42.595  55.917 -51.851  1.00  0.00    -0.306 N 
HETATM    2  C   UNL     1     -42.147  57.129 -52.319  1.00  0.00     0.323 C 
HETATM    3  N   UNL     1     -43.018  57.714 -53.256  1.00  0.00    -0.334 N 
HETATM    4  C   UNL     1     -43.684  56.870 -54.253  1.00  0.00     0.128 C 
HETATM    5  C   UNL     1     -44.805  57.603 -54.986  1.00  0.00     0.029 C 
HETATM    6  C   UNL     1     -44.337  58.929 -55.594  1.00  0.00     0.024 C 
HETATM    7  C   UNL     1     -43.768  59.767 -54.428  1.00  0.00     0.029 C 
HETATM    8  C   UNL     1     -42.625  59.042 -53.723  1.00  0.00     0.128 C 
HETATM    9  O   UNL     1     -41.113  57.678 -51.951  1.00  0.00    -0.247 OA
HETATM   10  H   UNL     1     -43.599  55.804 -51.823  1.00  0.00     0.171 HD
ENDROOT
BRANCH   1  11
HETATM   11  C   UNL     1     -41.881  54.971 -51.089  1.00  0.00     0.072 A 
HETATM   12  C   UNL     1     -41.305  53.888 -51.782  1.00  0.00     0.095 A 
HETATM   13  C   UNL     1     -40.578  52.911 -51.097  1.00  0.00     0.042 A 
HETATM   14  C   UNL     1     -40.378  53.042 -49.723  1.00  0.00     0.045 A 
HETATM   15  C   UNL     1     -40.917  54.133 -49.049  1.00  0.00     0.118 A 
HETATM   16  C   UNL     1     -41.668  55.097 -49.715  1.00  0.00     0.074 A 
HETATM   17  F   UNL     1     -40.704  54.257 -47.732  1.00  0.00    -0.206 F 
BRANCH  12  18
HETATM   18  O   UNL     1     -41.555  53.809 -53.133  1.00  0.00    -0.354 OA
HETATM   19  C   UNL     1     -40.672  52.921 -53.814  1.00  0.00     0.210 C 
ENDBRANCH  12  18
ENDBRANCH   1  11
BRANCH   6  20
HETATM   20  C   UNL     1     -43.383  58.848 -56.781  1.00  0.00    -0.026 A 
HETATM   21  C   UNL     1     -43.242  57.861 -57.830  1.00  0.00    -0.001 A 
HETATM   22  C   UNL     1     -42.186  58.269 -58.653  1.00  0.00     0.042 A 
HETATM   23  C   UNL     1     -43.888  56.652 -58.180  1.00  0.00     0.014 A 
HETATM   24  C   UNL     1     -41.739  57.537 -59.762  1.00  0.00     0.030 A 
HETATM   25  N   UNL     1     -41.726  59.465 -58.166  1.00  0.00    -0.365 N 
HETATM   26  C   UNL     1     -42.393  56.344 -60.065  1.00  0.00     0.002 A 
HETATM   27  C   UNL     1     -43.457  55.907 -59.288  1.00  0.00     0.001 A 
HETATM   28  H   UNL     1     -40.968  59.995 -58.572  1.00  0.00     0.165 HD
HETATM   29  C   UNL     1     -42.450  59.836 -57.072  1.00  0.00     0.096 A 
ENDBRANCH   6  20
TORSDOF 3
ENDMDL
MODEL 8
REMARK VINA RESULT:      -7.7      2.652      4.542
REMARK  3 active torsions:
REMARK  status: ('A' for Active; 'I' for Inactive)
REMARK    1  A    between atoms: O_2  and  C_3 
REMARK    2  A    between atoms: C_4  and  N_5 
REMARK       I    between atoms: N_5  and  C_6 
REMARK       I    between atoms: C_6  and  N_7 
REMARK    3  A    between atoms: C_10  and  C_11 
ROOT
HETATM    1  N   UNL     1     -42.234  54.948 -52.452  1.00  0.00    -0.306 N 
HETATM    2  C   UNL     1     -41.992  56.289 -52.272  1.00  0.00     0.323 C 
HETATM    3  N   UNL     1     -42.973  57.110 -52.857  1.00  0.00    -0.334 N 
HETATM    4  C   UNL     1     -43.537  56.749 -54.162  1.00  0.00     0.128 C 
HETATM    5  C   UNL     1     -44.780  57.564 -54.507  1.00  0.00     0.029 C 
HETATM    6  C   UNL     1     -44.541  59.074 -54.396  1.00  0.00     0.024 C 
HETATM    7  C   UNL     1     -44.066  59.334 -52.950  1.00  0.00     0.029 C 
HETATM    8  C   UNL     1     -42.802  58.542 -52.623  1.00  0.00     0.128 C 
HETATM    9  O   UNL     1     -41.041  56.746 -51.644  1.00  0.00    -0.247 OA
HETATM   10  H   UNL     1     -43.208  54.686 -52.523  1.00  0.00     0.171 HD
ENDROOT
BRANCH   1  11
HETATM   11  C   UNL     1     -41.359  53.873 -52.198  1.00  0.00     0.072 A 
HETATM   12  C   UNL     1     -41.229  53.452 -50.860  1.00  0.00     0.095 A 
HETATM   13  C   UNL     1     -40.383  52.390 -50.528  1.00  0.00     0.042 A 
HETATM   14  C   UNL     1     -39.704  51.711 -51.539  1.00  0.00     0.045 A 
HETATM   15  C   UNL     1     -39.864  52.108 -52.863  1.00  0.00     0.118 A 
HETATM   16  C   UNL     1     -40.681  53.183 -53.203  1.00  0.00     0.074 A 
HETATM   17  F   UNL     1     -39.220  51.438 -53.828  1.00  0.00    -0.206 F 
BRANCH  12  18
HETATM   18  O   UNL     1     -41.912  54.175 -49.909  1.00  0.00    -0.354 OA
HETATM   19  C   UNL     1     -41.083  54.609 -48.833  1.00  0.00     0.210 C 
ENDBRANCH  12  18
ENDBRANCH   1  11
BRANCH   6  20
HETATM   20  C   UNL     1     -43.627  59.708 -55.438  1.00  0.00    -0.026 A 
HETATM   21  C   UNL     1     -43.304  59.317 -56.794  1.00  0.00    -0.001 A 
HETATM   22  C   UNL     1     -42.386  60.248 -57.294  1.00  0.00     0.042 A 
HETATM   23  C   UNL     1     -43.682  58.268 -57.665  1.00  0.00     0.014 A 
HETATM   24  C   UNL     1     -41.824  60.171 -58.576  1.00  0.00     0.030 A 
HETATM   25  N   UNL     1     -42.184  61.188 -56.318  1.00  0.00    -0.365 N 
HETATM   26  C   UNL     1     -42.210  59.114 -59.398  1.00  0.00     0.002 A 
HETATM   27  C   UNL     1     -43.131  58.176 -58.952  1.00  0.00     0.001 A 
HETATM   28  H   UNL     1     -41.572  61.986 -56.410  1.00  0.00     0.165 HD
HETATM   29  C   UNL     1     -42.940  60.896 -55.221  1.00  0.00     0.096 A 
ENDBRANCH   6  20
TORSDOF 3
ENDMDL
MODEL 9
REMARK VINA RESULT:      -7.5      3.219      5.208
REMARK  3 active torsions:
REMARK  status: ('A' for Active; 'I' for Inactive)
REMARK    1  A    between atoms: O_2  and  C_3 
REMARK    2  A    between atoms: C_4  and  N_5 
REMARK       I    between atoms: N_5  and  C_6 
REMARK       I    between atoms: C_6  and  N_7 
REMARK    3  A    between atoms: C_10  and  C_11 
ROOT
HETATM    1  N   UNL     1     -41.967  55.177 -53.590  1.00  0.00    -0.306 N 
HETATM    2  C   UNL     1     -41.508  56.427 -53.931  1.00  0.00     0.323 C 
HETATM    3  N   UNL     1     -42.527  57.287 -54.377  1.00  0.00    -0.334 N 
HETATM    4  C   UNL     1     -43.596  56.762 -55.233  1.00  0.00     0.128 C 
HETATM    5  C   UNL     1     -44.762  57.736 -55.376  1.00  0.00     0.029 C 
HETATM    6  C   UNL     1     -44.311  59.128 -55.830  1.00  0.00     0.024 C 
HETATM    7  C   UNL     1     -43.281  59.614 -54.787  1.00  0.00     0.029 C 
HETATM    8  C   UNL     1     -42.100  58.652 -54.675  1.00  0.00     0.128 C 
HETATM    9  O   UNL     1     -40.338  56.788 -53.837  1.00  0.00    -0.247 OA
HETATM   10  H   UNL     1     -42.916  55.141 -53.243  1.00  0.00     0.171 HD
ENDROOT
BRANCH   1  11
HETATM   11  C   UNL     1     -41.204  54.023 -53.323  1.00  0.00     0.072 A 
HETATM   12  C   UNL     1     -40.744  53.846 -52.003  1.00  0.00     0.095 A 
HETATM   13  C   UNL     1     -39.985  52.725 -51.659  1.00  0.00     0.042 A 
HETATM   14  C   UNL     1     -39.728  51.748 -52.620  1.00  0.00     0.045 A 
HETATM   15  C   UNL     1     -40.216  51.909 -53.914  1.00  0.00     0.118 A 
HETATM   16  C   UNL     1     -40.948  53.036 -54.276  1.00  0.00     0.074 A 
HETATM   17  F   UNL     1     -39.978  50.956 -54.824  1.00  0.00    -0.206 F 
BRANCH  12  18
HETATM   18  O   UNL     1     -41.017  54.855 -51.108  1.00  0.00    -0.354 OA
HETATM   19  C   UNL     1     -40.378  54.671 -49.846  1.00  0.00     0.210 C 
ENDBRANCH  12  18
ENDBRANCH   1  11
BRANCH   6  20
HETATM   20  C   UNL     1     -43.804  59.259 -57.262  1.00  0.00    -0.026 A 
HETATM   21  C   UNL     1     -42.842  60.162 -57.859  1.00  0.00    -0.001 A 
HETATM   22  C   UNL     1     -42.771  59.859 -59.223  1.00  0.00     0.042 A 
HETATM   23  C   UNL     1     -42.019  61.217 -57.399  1.00  0.00     0.014 A 
HETATM   24  C   UNL     1     -41.960  60.555 -60.130  1.00  0.00     0.030 A 
HETATM   25  N   UNL     1     -43.609  58.800 -59.452  1.00  0.00    -0.365 N 
HETATM   26  C   UNL     1     -41.175  61.597 -59.640  1.00  0.00     0.002 A 
HETATM   27  C   UNL     1     -41.199  61.923 -58.291  1.00  0.00     0.001 A 
HETATM   28  H   UNL     1     -43.749  58.364 -60.353  1.00  0.00     0.165 HD
HETATM   29  C   UNL     1     -44.205  58.413 -58.288  1.00  0.00     0.096 A 
ENDBRANCH   6  20
TORSDOF 3
ENDMDL
MODEL 10
REMARK VINA RESULT:      -7.5     17.125     19.298
REMARK  3 active torsions:
REMARK  status: ('A' for Active; 'I' for Inactive)
REMARK    1  A    between atoms: O_2  and  C_3 
REMARK    2  A    between atoms: C_4  and  N_5 
REMARK       I    between atoms: N_5  and  C_6 
REMARK       I    between atoms: C_6  and  N_7 
REMARK    3  A    between atoms: C_10  and  C_11 
ROOT
HETATM    1  N   UNL     1     -36.670  39.318 -60.785  1.00  0.00    -0.306 N 
HETATM    2  C   UNL     1     -37.049  38.914 -59.527  1.00  0.00     0.323 C 
HETATM    3  N   UNL     1     -37.333  39.988 -58.664  1.00  0.00    -0.334 N 
HETATM    4  C   UNL     1     -36.495  41.191 -58.705  1.00  0.00     0.128 C 
HETATM    5  C   UNL     1     -37.110  42.358 -57.935  1.00  0.00     0.029 C 
HETATM    6  C   UNL     1     -37.481  41.980 -56.497  1.00  0.00     0.024 C 
HETATM    7  C   UNL     1     -38.452  40.783 -56.599  1.00  0.00     0.029 C 
HETATM    8  C   UNL     1     -37.818  39.608 -57.340  1.00  0.00     0.128 C 
HETATM    9  O   UNL     1     -37.164  37.743 -59.177  1.00  0.00    -0.247 OA
HETATM   10  H   UNL     1     -37.065  40.194 -61.099  1.00  0.00     0.171 HD
ENDROOT
BRANCH   1  11
HETATM   11  C   UNL     1     -36.110  38.530 -61.810  1.00  0.00     0.072 A 
HETATM   12  C   UNL     1     -36.908  38.290 -62.946  1.00  0.00     0.095 A 
HETATM   13  C   UNL     1     -36.421  37.521 -64.006  1.00  0.00     0.042 A 
HETATM   14  C   UNL     1     -35.116  37.034 -63.959  1.00  0.00     0.045 A 
HETATM   15  C   UNL     1     -34.319  37.305 -62.851  1.00  0.00     0.118 A 
HETATM   16  C   UNL     1     -34.802  38.045 -61.775  1.00  0.00     0.074 A 
HETATM   17  F   UNL     1     -33.060  36.846 -62.824  1.00  0.00    -0.206 F 
BRANCH  12  18
HETATM   18  O   UNL     1     -38.192  38.784 -62.921  1.00  0.00    -0.354 OA
HETATM   19  C   UNL     1     -39.184  37.761 -62.891  1.00  0.00     0.210 C 
ENDBRANCH  12  18
ENDBRANCH   1  11
BRANCH   6  20
HETATM   20  C   UNL     1     -36.331  41.724 -55.530  1.00  0.00    -0.026 A 
HETATM   21  C   UNL     1     -36.322  41.358 -54.128  1.00  0.00    -0.001 A 
HETATM   22  C   UNL     1     -34.985  41.275 -53.724  1.00  0.00     0.042 A 
HETATM   23  C   UNL     1     -37.301  41.091 -53.143  1.00  0.00     0.014 A 
HETATM   24  C   UNL     1     -34.588  40.971 -52.415  1.00  0.00     0.030 A 
HETATM   25  N   UNL     1     -34.208  41.533 -54.823  1.00  0.00    -0.365 N 
HETATM   26  C   UNL     1     -35.583  40.729 -51.469  1.00  0.00     0.002 A 
HETATM   27  C   UNL     1     -36.923  40.783 -51.827  1.00  0.00     0.001 A 
HETATM   28  H   UNL     1     -33.197  41.531 -54.824  1.00  0.00     0.165 HD
HETATM   29  C   UNL     1     -34.996  41.770 -55.910  1.00  0.00     0.096 A 
ENDBRANCH   6  20
TORSDOF 3
ENDMDL
