MODEL 1
REMARK VINA RESULT:      -7.7      0.000      0.000
REMARK  7 active torsions:
REMARK  status: ('A' for Active; 'I' for Inactive)
REMARK    1  A    between atoms: C_2  and  C_3 
REMARK    2  A    between atoms: C_7  and  C_8 
REMARK       I    between atoms: C_8  and  N_9 
REMARK    3  A    between atoms: N_9  and  C_10 
REMARK    4  A    between atoms: C_10  and  C_11 
REMARK    5  A    between atoms: C_13  and  N_14 
REMARK       I    between atoms: N_14  and  C_15 
REMARK    6  A    between atoms: C_15  and  C_16 
REMARK    7  A    between atoms: C_20  and  C_21 
ROOT
HETATM    1  C   UNL     1     -40.984  54.038 -52.553  1.00  0.00    -0.035 A 
HETATM    2  C   UNL     1     -41.645  55.234 -52.242  1.00  0.00     0.059 A 
HETATM    3  C   UNL     1     -41.445  55.827 -50.996  1.00  0.00     0.130 A 
HETATM    4  N   UNL     1     -40.661  55.265 -50.062  1.00  0.00    -0.243 NA
HETATM    5  C   UNL     1     -40.055  54.098 -50.358  1.00  0.00     0.119 A 
HETATM    6  C   UNL     1     -40.178  53.453 -51.575  1.00  0.00     0.028 A 
ENDROOT
BRANCH   1   7
HETATM    7  C   UNL     1     -41.133  53.410 -53.909  1.00  0.00     0.161 C 
BRANCH   7   8
HETATM    8  N   UNL     1     -41.361  54.397 -54.935  1.00  0.00    -0.351 N 
HETATM    9  C   UNL     1     -42.538  54.464 -55.638  1.00  0.00     0.270 C 
HETATM   10  O   UNL     1     -43.456  53.667 -55.471  1.00  0.00    -0.266 OA
HETATM   11  H   UNL     1     -40.607  55.023 -55.171  1.00  0.00     0.163 HD
BRANCH   9  12
HETATM   12  C   UNL     1     -42.628  55.552 -56.575  1.00  0.00     0.119 A 
HETATM   13  N   UNL     1     -42.128  56.792 -56.284  1.00  0.00    -0.273 N 
HETATM   14  N   UNL     1     -42.261  57.687 -57.276  1.00  0.00    -0.178 NA
HETATM   15  H   UNL     1     -41.673  57.078 -55.422  1.00  0.00     0.189 HD
HETATM   16  C   UNL     1     -42.878  57.012 -58.254  1.00  0.00     0.064 A 
HETATM   17  C   UNL     1     -43.131  55.671 -57.856  1.00  0.00     0.066 A 
BRANCH  16  18
HETATM   18  C   UNL     1     -43.208  57.663 -59.589  1.00  0.00    -0.005 C 
HETATM   19  C   UNL     1     -44.009  58.971 -59.421  1.00  0.00     0.021 C 
HETATM   20  C   UNL     1     -44.050  56.700 -60.452  1.00  0.00     0.021 C 
HETATM   21  C   UNL     1     -41.904  57.996 -60.343  1.00  0.00     0.021 C 
ENDBRANCH  16  18
ENDBRANCH   9  12
ENDBRANCH   7   8
ENDBRANCH   1   7
BRANCH   3  22
HETATM   22  N   UNL     1     -42.071  57.059 -50.763  1.00  0.00    -0.306 N 
HETATM   23  C   UNL     1     -41.552  58.293 -51.089  1.00  0.00     0.275 C 
HETATM   24  O   UNL     1     -40.459  58.512 -51.597  1.00  0.00    -0.266 OA
HETATM   25  H   UNL     1     -43.001  57.024 -50.381  1.00  0.00     0.170 HD
BRANCH  23  26
HETATM   26  C   UNL     1     -42.447  59.397 -50.813  1.00  0.00     0.120 A 
HETATM   27  N   UNL     1     -43.798  59.198 -50.724  1.00  0.00    -0.273 N 
HETATM   28  H   UNL     1     -44.287  58.315 -50.841  1.00  0.00     0.189 HD
HETATM   29  N   UNL     1     -44.498  60.302 -50.428  1.00  0.00    -0.178 NA
HETATM   30  C   UNL     1     -43.578  61.273 -50.358  1.00  0.00     0.064 A 
HETATM   31  C   UNL     1     -42.276  60.749 -50.585  1.00  0.00     0.066 A 
BRANCH  30  32
HETATM   32  C   UNL     1     -43.992  62.700 -50.025  1.00  0.00    -0.005 C 
HETATM   33  C   UNL     1     -45.100  63.154 -50.995  1.00  0.00     0.021 C 
HETATM   34  C   UNL     1     -44.530  62.811 -48.584  1.00  0.00     0.021 C 
HETATM   35  C   UNL     1     -42.795  63.667 -50.150  1.00  0.00     0.021 C 
ENDBRANCH  30  32
ENDBRANCH  23  26
ENDBRANCH   3  22
TORSDOF 7
ENDMDL
MODEL 2
REMARK VINA RESULT:      -7.6      1.624      7.348
REMARK  7 active torsions:
REMARK  status: ('A' for Active; 'I' for Inactive)
REMARK    1  A    between atoms: C_2  and  C_3 
REMARK    2  A    between atoms: C_7  and  C_8 
REMARK       I    between atoms: C_8  and  N_9 
REMARK    3  A    between atoms: N_9  and  C_10 
REMARK    4  A    between atoms: C_10  and  C_11 
REMARK    5  A    between atoms: C_13  and  N_14 
REMARK       I    between atoms: N_14  and  C_15 
REMARK    6  A    between atoms: C_15  and  C_16 
REMARK    7  A    between atoms: C_20  and  C_21 
ROOT
HETATM    1  C   UNL     1     -40.410  53.640 -51.929  1.00  0.00    -0.035 A 
HETATM    2  C   UNL     1     -40.849  54.302 -53.084  1.00  0.00     0.059 A 
HETATM    3  C   UNL     1     -40.833  53.635 -54.307  1.00  0.00     0.130 A 
HETATM    4  N   UNL     1     -40.371  52.379 -54.423  1.00  0.00    -0.243 NA
HETATM    5  C   UNL     1     -39.922  51.761 -53.313  1.00  0.00     0.119 A 
HETATM    6  C   UNL     1     -39.924  52.338 -52.057  1.00  0.00     0.028 A 
ENDROOT
BRANCH   1   7
HETATM    7  C   UNL     1     -40.475  54.313 -50.587  1.00  0.00     0.161 C 
BRANCH   7   8
HETATM    8  N   UNL     1     -40.800  55.713 -50.705  1.00  0.00    -0.351 N 
HETATM    9  C   UNL     1     -42.090  56.175 -50.617  1.00  0.00     0.270 C 
HETATM   10  O   UNL     1     -43.053  55.429 -50.475  1.00  0.00    -0.266 OA
HETATM   11  H   UNL     1     -40.054  56.360 -50.906  1.00  0.00     0.163 HD
BRANCH   9  12
HETATM   12  C   UNL     1     -42.230  57.606 -50.684  1.00  0.00     0.119 A 
HETATM   13  N   UNL     1     -41.329  58.444 -50.086  1.00  0.00    -0.273 N 
HETATM   14  N   UNL     1     -41.584  59.748 -50.269  1.00  0.00    -0.178 NA
HETATM   15  H   UNL     1     -40.511  58.174 -49.549  1.00  0.00     0.189 HD
HETATM   16  C   UNL     1     -42.699  59.770 -51.009  1.00  0.00     0.064 A 
HETATM   17  C   UNL     1     -43.142  58.449 -51.288  1.00  0.00     0.066 A 
BRANCH  16  18
HETATM   18  C   UNL     1     -43.331  61.077 -51.465  1.00  0.00    -0.005 C 
HETATM   19  C   UNL     1     -44.873  61.034 -51.409  1.00  0.00     0.021 C 
HETATM   20  C   UNL     1     -42.918  61.384 -52.920  1.00  0.00     0.021 C 
HETATM   21  C   UNL     1     -42.853  62.231 -50.559  1.00  0.00     0.021 C 
ENDBRANCH  16  18
ENDBRANCH   9  12
ENDBRANCH   7   8
ENDBRANCH   1   7
BRANCH   3  22
HETATM   22  N   UNL     1     -41.349  54.316 -55.418  1.00  0.00    -0.306 N 
HETATM   23  C   UNL     1     -42.674  54.643 -55.609  1.00  0.00     0.275 C 
HETATM   24  O   UNL     1     -43.607  54.364 -54.865  1.00  0.00    -0.266 OA
HETATM   25  H   UNL     1     -40.681  54.641 -56.095  1.00  0.00     0.170 HD
BRANCH  23  26
HETATM   26  C   UNL     1     -42.920  55.423 -56.803  1.00  0.00     0.120 A 
HETATM   27  N   UNL     1     -43.624  54.894 -57.851  1.00  0.00    -0.273 N 
HETATM   28  H   UNL     1     -44.018  53.959 -57.903  1.00  0.00     0.189 HD
HETATM   29  N   UNL     1     -43.807  55.741 -58.874  1.00  0.00    -0.178 NA
HETATM   30  C   UNL     1     -43.165  56.856 -58.503  1.00  0.00     0.064 A 
HETATM   31  C   UNL     1     -42.601  56.704 -57.207  1.00  0.00     0.066 A 
BRANCH  30  32
HETATM   32  C   UNL     1     -43.153  58.074 -59.416  1.00  0.00    -0.005 C 
HETATM   33  C   UNL     1     -44.403  58.055 -60.318  1.00  0.00     0.021 C 
HETATM   34  C   UNL     1     -43.158  59.388 -58.606  1.00  0.00     0.021 C 
HETATM   35  C   UNL     1     -41.895  58.085 -60.310  1.00  0.00     0.021 C 
ENDBRANCH  30  32
ENDBRANCH  23  26
ENDBRANCH   3  22
TORSDOF 7
ENDMDL
MODEL 3
REMARK VINA RESULT:      -7.4      1.238      7.446
REMARK  7 active torsions:
REMARK  status: ('A' for Active; 'I' for Inactive)
REMARK    1  A    between atoms: C_2  and  C_3 
REMARK    2  A    between atoms: C_7  and  C_8 
REMARK       I    between atoms: C_8  and  N_9 
REMARK    3  A    between atoms: N_9  and  C_10 
REMARK    4  A    between atoms: C_10  and  C_11 
REMARK    5  A    between atoms: C_13  and  N_14 
REMARK       I    between atoms: N_14  and  C_15 
REMARK    6  A    between atoms: C_15  and  C_16 
REMARK    7  A    between atoms: C_20  and  C_21 
ROOT
HETATM    1  C   UNL     1     -40.832  54.747 -51.034  1.00  0.00    -0.035 A 
HETATM    2  C   UNL     1     -41.145  55.249 -52.305  1.00  0.00     0.059 A 
HETATM    3  C   UNL     1     -41.067  54.409 -53.414  1.00  0.00     0.130 A 
HETATM    4  N   UNL     1     -40.664  53.132 -53.309  1.00  0.00    -0.243 NA
HETATM    5  C   UNL     1     -40.334  52.667 -52.087  1.00  0.00     0.119 A 
HETATM    6  C   UNL     1     -40.405  53.423 -50.932  1.00  0.00     0.028 A 
ENDROOT
BRANCH   1   7
HETATM    7  C   UNL     1     -40.967  55.613 -49.813  1.00  0.00     0.161 C 
BRANCH   7   8
HETATM    8  N   UNL     1     -41.746  56.796 -50.078  1.00  0.00    -0.351 N 
HETATM    9  C   UNL     1     -41.171  57.978 -50.476  1.00  0.00     0.270 C 
HETATM   10  O   UNL     1     -39.957  58.118 -50.593  1.00  0.00    -0.266 OA
HETATM   11  H   UNL     1     -42.740  56.760 -49.916  1.00  0.00     0.163 HD
BRANCH   9  12
HETATM   12  C   UNL     1     -42.097  59.039 -50.767  1.00  0.00     0.119 A 
HETATM   13  N   UNL     1     -43.428  58.795 -50.969  1.00  0.00    -0.273 N 
HETATM   14  N   UNL     1     -44.163  59.894 -51.197  1.00  0.00    -0.178 NA
HETATM   15  H   UNL     1     -43.890  57.890 -50.950  1.00  0.00     0.189 HD
HETATM   16  C   UNL     1     -43.281  60.900 -51.149  1.00  0.00     0.064 A 
HETATM   17  C   UNL     1     -41.973  60.410 -50.887  1.00  0.00     0.066 A 
BRANCH  16  18
HETATM   18  C   UNL     1     -43.709  62.348 -51.341  1.00  0.00    -0.005 C 
HETATM   19  C   UNL     1     -45.220  62.549 -51.099  1.00  0.00     0.021 C 
HETATM   20  C   UNL     1     -43.395  62.806 -52.781  1.00  0.00     0.021 C 
HETATM   21  C   UNL     1     -42.943  63.253 -50.353  1.00  0.00     0.021 C 
ENDBRANCH  16  18
ENDBRANCH   9  12
ENDBRANCH   7   8
ENDBRANCH   1   7
BRANCH   3  22
HETATM   22  N   UNL     1     -41.460  54.939 -54.651  1.00  0.00    -0.306 N 
HETATM   23  C   UNL     1     -42.762  55.119 -55.065  1.00  0.00     0.275 C 
HETATM   24  O   UNL     1     -43.773  54.817 -54.442  1.00  0.00    -0.266 OA
HETATM   25  H   UNL     1     -40.724  55.267 -55.252  1.00  0.00     0.170 HD
BRANCH  23  26
HETATM   26  C   UNL     1     -42.883  55.765 -56.355  1.00  0.00     0.120 A 
HETATM   27  N   UNL     1     -43.451  55.112 -57.414  1.00  0.00    -0.273 N 
HETATM   28  H   UNL     1     -43.819  54.165 -57.413  1.00  0.00     0.189 HD
HETATM   29  N   UNL     1     -43.531  55.845 -58.534  1.00  0.00    -0.178 NA
HETATM   30  C   UNL     1     -42.957  57.011 -58.212  1.00  0.00     0.064 A 
HETATM   31  C   UNL     1     -42.543  57.009 -56.851  1.00  0.00     0.066 A 
BRANCH  30  32
HETATM   32  C   UNL     1     -42.863  58.130 -59.239  1.00  0.00    -0.005 C 
HETATM   33  C   UNL     1     -41.860  57.735 -60.340  1.00  0.00     0.021 C 
HETATM   34  C   UNL     1     -44.229  58.406 -59.901  1.00  0.00     0.021 C 
HETATM   35  C   UNL     1     -42.391  59.446 -58.584  1.00  0.00     0.021 C 
ENDBRANCH  30  32
ENDBRANCH  23  26
ENDBRANCH   3  22
TORSDOF 7
ENDMDL
MODEL 4
REMARK VINA RESULT:      -7.2      2.847      7.226
REMARK  7 active torsions:
REMARK  status: ('A' for Active; 'I' for Inactive)
REMARK    1  A    between atoms: C_2  and  C_3 
REMARK    2  A    between atoms: C_7  and  C_8 
REMARK       I    between atoms: C_8  and  N_9 
REMARK    3  A    between atoms: N_9  and  C_10 
REMARK    4  A    between atoms: C_10  and  C_11 
REMARK    5  A    between atoms: C_13  and  N_14 
REMARK       I    between atoms: N_14  and  C_15 
REMARK    6  A    between atoms: C_15  and  C_16 
REMARK    7  A    between atoms: C_20  and  C_21 
ROOT
HETATM    1  C   UNL     1     -43.556  58.943 -52.000  1.00  0.00    -0.035 A 
HETATM    2  C   UNL     1     -43.094  57.642 -52.242  1.00  0.00     0.059 A 
HETATM    3  C   UNL     1     -41.892  57.222 -51.676  1.00  0.00     0.130 A 
HETATM    4  N   UNL     1     -41.136  58.044 -50.930  1.00  0.00    -0.243 NA
HETATM    5  C   UNL     1     -41.572  59.304 -50.729  1.00  0.00     0.119 A 
HETATM    6  C   UNL     1     -42.763  59.795 -51.232  1.00  0.00     0.028 A 
ENDROOT
BRANCH   1   7
HETATM    7  C   UNL     1     -44.879  59.401 -52.546  1.00  0.00     0.161 C 
BRANCH   7   8
HETATM    8  N   UNL     1     -45.142  58.847 -53.851  1.00  0.00    -0.351 N 
HETATM    9  C   UNL     1     -44.897  59.546 -55.007  1.00  0.00     0.270 C 
HETATM   10  O   UNL     1     -44.479  60.700 -55.007  1.00  0.00    -0.266 OA
HETATM   11  H   UNL     1     -45.566  57.934 -53.905  1.00  0.00     0.163 HD
BRANCH   9  12
HETATM   12  C   UNL     1     -45.147  58.821 -56.223  1.00  0.00     0.119 A 
HETATM   13  N   UNL     1     -46.411  58.684 -56.730  1.00  0.00    -0.273 N 
HETATM   14  N   UNL     1     -46.471  58.008 -57.888  1.00  0.00    -0.178 NA
HETATM   15  H   UNL     1     -47.270  59.047 -56.328  1.00  0.00     0.189 HD
HETATM   16  C   UNL     1     -45.199  57.681 -58.149  1.00  0.00     0.064 A 
HETATM   17  C   UNL     1     -44.336  58.166 -57.130  1.00  0.00     0.066 A 
BRANCH  16  18
HETATM   18  C   UNL     1     -44.814  56.910 -59.404  1.00  0.00    -0.005 C 
HETATM   19  C   UNL     1     -43.929  55.685 -59.090  1.00  0.00     0.021 C 
HETATM   20  C   UNL     1     -44.029  57.826 -60.366  1.00  0.00     0.021 C 
HETATM   21  C   UNL     1     -46.086  56.410 -60.119  1.00  0.00     0.021 C 
ENDBRANCH  16  18
ENDBRANCH   9  12
ENDBRANCH   7   8
ENDBRANCH   1   7
BRANCH   3  22
HETATM   22  N   UNL     1     -41.511  55.891 -51.889  1.00  0.00    -0.306 N 
HETATM   23  C   UNL     1     -40.964  55.393 -53.052  1.00  0.00     0.275 C 
HETATM   24  O   UNL     1     -40.758  56.017 -54.085  1.00  0.00    -0.266 OA
HETATM   25  H   UNL     1     -41.591  55.270 -51.102  1.00  0.00     0.170 HD
BRANCH  23  26
HETATM   26  C   UNL     1     -40.584  53.998 -52.971  1.00  0.00     0.120 A 
HETATM   27  N   UNL     1     -40.219  53.440 -51.776  1.00  0.00    -0.273 N 
HETATM   28  H   UNL     1     -40.172  53.914 -50.878  1.00  0.00     0.189 HD
HETATM   29  N   UNL     1     -39.929  52.133 -51.844  1.00  0.00    -0.178 NA
HETATM   30  C   UNL     1     -40.070  51.827 -53.140  1.00  0.00     0.064 A 
HETATM   31  C   UNL     1     -40.487  52.966 -53.883  1.00  0.00     0.066 A 
BRANCH  30  32
HETATM   32  C   UNL     1     -39.831  50.404 -53.624  1.00  0.00    -0.005 C 
HETATM   33  C   UNL     1     -39.665  49.469 -52.409  1.00  0.00     0.021 C 
HETATM   34  C   UNL     1     -41.010  49.890 -54.476  1.00  0.00     0.021 C 
HETATM   35  C   UNL     1     -38.558  50.319 -54.494  1.00  0.00     0.021 C 
ENDBRANCH  30  32
ENDBRANCH  23  26
ENDBRANCH   3  22
TORSDOF 7
ENDMDL
MODEL 5
REMARK VINA RESULT:      -7.1     17.569     20.040
REMARK  7 active torsions:
REMARK  status: ('A' for Active; 'I' for Inactive)
REMARK    1  A    between atoms: C_2  and  C_3 
REMARK    2  A    between atoms: C_7  and  C_8 
REMARK       I    between atoms: C_8  and  N_9 
REMARK    3  A    between atoms: N_9  and  C_10 
REMARK    4  A    between atoms: C_10  and  C_11 
REMARK    5  A    between atoms: C_13  and  N_14 
REMARK       I    between atoms: N_14  and  C_15 
REMARK    6  A    between atoms: C_15  and  C_16 
REMARK    7  A    between atoms: C_20  and  C_21 
ROOT
HETATM    1  C   UNL     1     -34.580  38.993 -49.921  1.00  0.00    -0.035 A 
HETATM    2  C   UNL     1     -35.048  39.312 -51.203  1.00  0.00     0.059 A 
HETATM    3  C   UNL     1     -34.324  40.198 -52.000  1.00  0.00     0.130 A 
HETATM    4  N   UNL     1     -33.202  40.790 -51.559  1.00  0.00    -0.243 NA
HETATM    5  C   UNL     1     -32.777  40.502 -50.313  1.00  0.00     0.119 A 
HETATM    6  C   UNL     1     -33.419  39.619 -49.466  1.00  0.00     0.028 A 
ENDROOT
BRANCH   1   7
HETATM    7  C   UNL     1     -35.306  37.994 -49.066  1.00  0.00     0.161 C 
BRANCH   7   8
HETATM    8  N   UNL     1     -36.722  37.983 -49.338  1.00  0.00    -0.351 N 
HETATM    9  C   UNL     1     -37.657  38.235 -48.365  1.00  0.00     0.270 C 
HETATM   10  O   UNL     1     -37.355  38.444 -47.194  1.00  0.00    -0.266 OA
HETATM   11  H   UNL     1     -37.028  37.733 -50.266  1.00  0.00     0.163 HD
BRANCH   9  12
HETATM   12  C   UNL     1     -39.021  38.256 -48.821  1.00  0.00     0.119 A 
HETATM   13  N   UNL     1     -40.043  38.667 -48.009  1.00  0.00    -0.273 N 
HETATM   14  N   UNL     1     -41.250  38.660 -48.595  1.00  0.00    -0.178 NA
HETATM   15  H   UNL     1     -39.967  38.977 -47.045  1.00  0.00     0.189 HD
HETATM   16  C   UNL     1     -41.015  38.220 -49.838  1.00  0.00     0.064 A 
HETATM   17  C   UNL     1     -39.632  37.950 -50.022  1.00  0.00     0.066 A 
BRANCH  16  18
HETATM   18  C   UNL     1     -42.133  38.077 -50.860  1.00  0.00    -0.005 C 
HETATM   19  C   UNL     1     -42.003  36.785 -51.695  1.00  0.00     0.021 C 
HETATM   20  C   UNL     1     -42.114  39.273 -51.834  1.00  0.00     0.021 C 
HETATM   21  C   UNL     1     -43.497  38.044 -50.139  1.00  0.00     0.021 C 
ENDBRANCH  16  18
ENDBRANCH   9  12
ENDBRANCH   7   8
ENDBRANCH   1   7
BRANCH   3  22
HETATM   22  N   UNL     1     -34.795  40.426 -53.299  1.00  0.00    -0.306 N 
HETATM   23  C   UNL     1     -35.466  41.554 -53.719  1.00  0.00     0.275 C 
HETATM   24  O   UNL     1     -35.786  42.511 -53.024  1.00  0.00    -0.266 OA
HETATM   25  H   UNL     1     -34.566  39.730 -53.988  1.00  0.00     0.170 HD
BRANCH  23  26
HETATM   26  C   UNL     1     -35.764  41.567 -55.135  1.00  0.00     0.120 A 
HETATM   27  N   UNL     1     -35.023  42.327 -55.999  1.00  0.00    -0.273 N 
HETATM   28  H   UNL     1     -34.242  42.928 -55.756  1.00  0.00     0.189 HD
HETATM   29  N   UNL     1     -35.388  42.212 -57.284  1.00  0.00    -0.178 NA
HETATM   30  C   UNL     1     -36.435  41.377 -57.261  1.00  0.00     0.064 A 
HETATM   31  C   UNL     1     -36.701  40.941 -55.934  1.00  0.00     0.066 A 
BRANCH  30  32
HETATM   32  C   UNL     1     -37.133  40.985 -58.556  1.00  0.00    -0.005 C 
HETATM   33  C   UNL     1     -37.241  42.218 -59.476  1.00  0.00     0.021 C 
HETATM   34  C   UNL     1     -36.356  39.884 -59.307  1.00  0.00     0.021 C 
HETATM   35  C   UNL     1     -38.552  40.445 -58.279  1.00  0.00     0.021 C 
ENDBRANCH  30  32
ENDBRANCH  23  26
ENDBRANCH   3  22
TORSDOF 7
ENDMDL
MODEL 6
REMARK VINA RESULT:      -7.1      2.689      7.840
REMARK  7 active torsions:
REMARK  status: ('A' for Active; 'I' for Inactive)
REMARK    1  A    between atoms: C_2  and  C_3 
REMARK    2  A    between atoms: C_7  and  C_8 
REMARK       I    between atoms: C_8  and  N_9 
REMARK    3  A    between atoms: N_9  and  C_10 
REMARK    4  A    between atoms: C_10  and  C_11 
REMARK    5  A    between atoms: C_13  and  N_14 
REMARK       I    between atoms: N_14  and  C_15 
REMARK    6  A    between atoms: C_15  and  C_16 
REMARK    7  A    between atoms: C_20  and  C_21 
ROOT
HETATM    1  C   UNL     1     -43.689  61.106 -51.326  1.00  0.00    -0.035 A 
HETATM    2  C   UNL     1     -43.505  60.869 -52.696  1.00  0.00     0.059 A 
HETATM    3  C   UNL     1     -43.166  61.927 -53.538  1.00  0.00     0.130 A 
HETATM    4  N   UNL     1     -43.046  63.184 -53.081  1.00  0.00    -0.243 NA
HETATM    5  C   UNL     1     -43.256  63.408 -51.769  1.00  0.00     0.119 A 
HETATM    6  C   UNL     1     -43.572  62.416 -50.860  1.00  0.00     0.028 A 
ENDROOT
BRANCH   1   7
HETATM    7  C   UNL     1     -43.993  59.974 -50.386  1.00  0.00     0.161 C 
BRANCH   7   8
HETATM    8  N   UNL     1     -43.488  58.717 -50.878  1.00  0.00    -0.351 N 
HETATM    9  C   UNL     1     -44.310  57.650 -51.143  1.00  0.00     0.270 C 
HETATM   10  O   UNL     1     -45.520  57.680 -50.941  1.00  0.00    -0.266 OA
HETATM   11  H   UNL     1     -42.491  58.611 -50.982  1.00  0.00     0.163 HD
BRANCH   9  12
HETATM   12  C   UNL     1     -43.653  56.496 -51.696  1.00  0.00     0.119 A 
HETATM   13  N   UNL     1     -43.920  55.232 -51.245  1.00  0.00    -0.273 N 
HETATM   14  N   UNL     1     -43.249  54.264 -51.887  1.00  0.00    -0.178 NA
HETATM   15  H   UNL     1     -44.567  54.975 -50.505  1.00  0.00     0.189 HD
HETATM   16  C   UNL     1     -42.506  54.915 -52.790  1.00  0.00     0.064 A 
HETATM   17  C   UNL     1     -42.724  56.316 -52.703  1.00  0.00     0.066 A 
BRANCH  16  18
HETATM   18  C   UNL     1     -41.593  54.175 -53.757  1.00  0.00    -0.005 C 
HETATM   19  C   UNL     1     -40.871  52.986 -53.088  1.00  0.00     0.021 C 
HETATM   20  C   UNL     1     -40.515  55.134 -54.304  1.00  0.00     0.021 C 
HETATM   21  C   UNL     1     -42.419  53.628 -54.939  1.00  0.00     0.021 C 
ENDBRANCH  16  18
ENDBRANCH   9  12
ENDBRANCH   7   8
ENDBRANCH   1   7
BRANCH   3  22
HETATM   22  N   UNL     1     -42.922  61.624 -54.884  1.00  0.00    -0.306 N 
HETATM   23  C   UNL     1     -42.143  60.583 -55.340  1.00  0.00     0.275 C 
HETATM   24  O   UNL     1     -41.518  59.786 -54.651  1.00  0.00    -0.266 OA
HETATM   25  H   UNL     1     -43.409  62.182 -55.564  1.00  0.00     0.170 HD
BRANCH  23  26
HETATM   26  C   UNL     1     -42.130  60.448 -56.781  1.00  0.00     0.120 A 
HETATM   27  N   UNL     1     -41.529  61.394 -57.567  1.00  0.00    -0.273 N 
HETATM   28  H   UNL     1     -41.066  62.239 -57.247  1.00  0.00     0.189 HD
HETATM   29  N   UNL     1     -41.561  61.119 -58.879  1.00  0.00    -0.178 NA
HETATM   30  C   UNL     1     -42.242  59.970 -58.964  1.00  0.00     0.064 A 
HETATM   31  C   UNL     1     -42.612  59.508 -57.671  1.00  0.00     0.066 A 
BRANCH  30  32
HETATM   32  C   UNL     1     -42.484  59.318 -60.318  1.00  0.00    -0.005 C 
HETATM   33  C   UNL     1     -41.864  57.907 -60.328  1.00  0.00     0.021 C 
HETATM   34  C   UNL     1     -43.991  59.190 -60.623  1.00  0.00     0.021 C 
HETATM   35  C   UNL     1     -41.849  60.149 -61.454  1.00  0.00     0.021 C 
ENDBRANCH  30  32
ENDBRANCH  23  26
ENDBRANCH   3  22
TORSDOF 7
ENDMDL
MODEL 7
REMARK VINA RESULT:      -7.0     17.696     21.819
REMARK  7 active torsions:
REMARK  status: ('A' for Active; 'I' for Inactive)
REMARK    1  A    between atoms: C_2  and  C_3 
REMARK    2  A    between atoms: C_7  and  C_8 
REMARK       I    between atoms: C_8  and  N_9 
REMARK    3  A    between atoms: N_9  and  C_10 
REMARK    4  A    between atoms: C_10  and  C_11 
REMARK    5  A    between atoms: C_13  and  N_14 
REMARK       I    between atoms: N_14  and  C_15 
REMARK    6  A    between atoms: C_15  and  C_16 
REMARK    7  A    between atoms: C_20  and  C_21 
ROOT
HETATM    1  C   UNL     1     -35.250  39.844 -51.332  1.00  0.00    -0.035 A 
HETATM    2  C   UNL     1     -35.735  39.632 -52.630  1.00  0.00     0.059 A 
HETATM    3  C   UNL     1     -35.776  40.695 -53.531  1.00  0.00     0.130 A 
HETATM    4  N   UNL     1     -35.396  41.935 -53.181  1.00  0.00    -0.243 NA
HETATM    5  C   UNL     1     -34.961  42.136 -51.921  1.00  0.00     0.119 A 
HETATM    6  C   UNL     1     -34.866  41.136 -50.971  1.00  0.00     0.028 A 
ENDROOT
BRANCH   1   7
HETATM    7  C   UNL     1     -35.137  38.704 -50.360  1.00  0.00     0.161 C 
BRANCH   7   8
HETATM    8  N   UNL     1     -34.196  38.989 -49.306  1.00  0.00    -0.351 N 
HETATM    9  C   UNL     1     -32.913  38.500 -49.316  1.00  0.00     0.270 C 
HETATM   10  O   UNL     1     -32.495  37.757 -50.199  1.00  0.00    -0.266 OA
HETATM   11  H   UNL     1     -34.514  39.526 -48.514  1.00  0.00     0.163 HD
BRANCH   9  12
HETATM   12  C   UNL     1     -32.084  38.939 -48.225  1.00  0.00     0.119 A 
HETATM   13  N   UNL     1     -31.284  40.044 -48.331  1.00  0.00    -0.273 N 
HETATM   14  N   UNL     1     -30.600  40.339 -47.215  1.00  0.00    -0.178 NA
HETATM   15  H   UNL     1     -31.179  40.643 -49.145  1.00  0.00     0.189 HD
HETATM   16  C   UNL     1     -30.957  39.387 -46.344  1.00  0.00     0.064 A 
HETATM   17  C   UNL     1     -31.882  38.485 -46.936  1.00  0.00     0.066 A 
BRANCH  16  18
HETATM   18  C   UNL     1     -30.414  39.360 -44.922  1.00  0.00    -0.005 C 
HETATM   19  C   UNL     1     -29.909  40.744 -44.462  1.00  0.00     0.021 C 
HETATM   20  C   UNL     1     -29.235  38.370 -44.826  1.00  0.00     0.021 C 
HETATM   21  C   UNL     1     -31.524  38.909 -43.949  1.00  0.00     0.021 C 
ENDBRANCH  16  18
ENDBRANCH   9  12
ENDBRANCH   7   8
ENDBRANCH   1   7
BRANCH   3  22
HETATM   22  N   UNL     1     -36.200  40.414 -54.837  1.00  0.00    -0.306 N 
HETATM   23  C   UNL     1     -37.453  40.683 -55.344  1.00  0.00     0.275 C 
HETATM   24  O   UNL     1     -38.396  41.172 -54.734  1.00  0.00    -0.266 OA
HETATM   25  H   UNL     1     -35.507  40.042 -55.463  1.00  0.00     0.170 HD
BRANCH  23  26
HETATM   26  C   UNL     1     -37.596  40.368 -56.750  1.00  0.00     0.120 A 
HETATM   27  N   UNL     1     -37.475  41.344 -57.701  1.00  0.00    -0.273 N 
HETATM   28  H   UNL     1     -37.290  42.329 -57.536  1.00  0.00     0.189 HD
HETATM   29  N   UNL     1     -37.594  40.901 -58.961  1.00  0.00    -0.178 NA
HETATM   30  C   UNL     1     -37.845  39.592 -58.833  1.00  0.00     0.064 A 
HETATM   31  C   UNL     1     -37.847  39.212 -57.463  1.00  0.00     0.066 A 
BRANCH  30  32
HETATM   32  C   UNL     1     -38.036  38.723 -60.068  1.00  0.00    -0.005 C 
HETATM   33  C   UNL     1     -39.521  38.328 -60.195  1.00  0.00     0.021 C 
HETATM   34  C   UNL     1     -37.618  39.467 -61.354  1.00  0.00     0.021 C 
HETATM   35  C   UNL     1     -37.185  37.437 -59.979  1.00  0.00     0.021 C 
ENDBRANCH  30  32
ENDBRANCH  23  26
ENDBRANCH   3  22
TORSDOF 7
ENDMDL
MODEL 8
REMARK VINA RESULT:      -7.0      1.566      2.062
REMARK  7 active torsions:
REMARK  status: ('A' for Active; 'I' for Inactive)
REMARK    1  A    between atoms: C_2  and  C_3 
REMARK    2  A    between atoms: C_7  and  C_8 
REMARK       I    between atoms: C_8  and  N_9 
REMARK    3  A    between atoms: N_9  and  C_10 
REMARK    4  A    between atoms: C_10  and  C_11 
REMARK    5  A    between atoms: C_13  and  N_14 
REMARK       I    between atoms: N_14  and  C_15 
REMARK    6  A    between atoms: C_15  and  C_16 
REMARK    7  A    between atoms: C_20  and  C_21 
ROOT
HETATM    1  C   UNL     1     -40.880  54.752 -53.362  1.00  0.00    -0.035 A 
HETATM    2  C   UNL     1     -41.370  56.047 -53.144  1.00  0.00     0.059 A 
HETATM    3  C   UNL     1     -41.551  56.504 -51.839  1.00  0.00     0.130 A 
HETATM    4  N   UNL     1     -41.304  55.723 -50.775  1.00  0.00    -0.243 NA
HETATM    5  C   UNL     1     -40.863  54.467 -50.995  1.00  0.00     0.119 A 
HETATM    6  C   UNL     1     -40.634  53.942 -52.253  1.00  0.00     0.028 A 
ENDROOT
BRANCH   1   7
HETATM    7  C   UNL     1     -40.618  54.257 -54.756  1.00  0.00     0.161 C 
BRANCH   7   8
HETATM    8  N   UNL     1     -41.206  55.118 -55.751  1.00  0.00    -0.351 N 
HETATM    9  C   UNL     1     -42.488  54.940 -56.209  1.00  0.00     0.270 C 
HETATM   10  O   UNL     1     -43.203  54.015 -55.833  1.00  0.00    -0.266 OA
HETATM   11  H   UNL     1     -40.632  55.842 -56.155  1.00  0.00     0.163 HD
BRANCH   9  12
HETATM   12  C   UNL     1     -42.943  55.930 -57.148  1.00  0.00     0.119 A 
HETATM   13  N   UNL     1     -43.919  55.652 -58.067  1.00  0.00    -0.273 N 
HETATM   14  N   UNL     1     -44.253  56.691 -58.847  1.00  0.00    -0.178 NA
HETATM   15  H   UNL     1     -44.400  54.767 -58.194  1.00  0.00     0.189 HD
HETATM   16  C   UNL     1     -43.463  57.689 -58.431  1.00  0.00     0.064 A 
HETATM   17  C   UNL     1     -42.622  57.255 -57.371  1.00  0.00     0.066 A 
BRANCH  16  18
HETATM   18  C   UNL     1     -43.534  59.077 -59.051  1.00  0.00    -0.005 C 
HETATM   19  C   UNL     1     -44.150  59.055 -60.466  1.00  0.00     0.021 C 
HETATM   20  C   UNL     1     -42.118  59.680 -59.160  1.00  0.00     0.021 C 
HETATM   21  C   UNL     1     -44.401  59.998 -58.167  1.00  0.00     0.021 C 
ENDBRANCH  16  18
ENDBRANCH   9  12
ENDBRANCH   7   8
ENDBRANCH   1   7
BRANCH   3  22
HETATM   22  N   UNL     1     -41.973  57.830 -51.675  1.00  0.00    -0.306 N 
HETATM   23  C   UNL     1     -43.271  58.232 -51.446  1.00  0.00     0.275 C 
HETATM   24  O   UNL     1     -44.257  57.508 -51.386  1.00  0.00    -0.266 OA
HETATM   25  H   UNL     1     -41.253  58.532 -51.664  1.00  0.00     0.170 HD
BRANCH  23  26
HETATM   26  C   UNL     1     -43.414  59.656 -51.229  1.00  0.00     0.120 A 
HETATM   27  N   UNL     1     -43.457  60.170 -49.961  1.00  0.00    -0.273 N 
HETATM   28  H   UNL     1     -43.403  59.643 -49.094  1.00  0.00     0.189 HD
HETATM   29  N   UNL     1     -43.555  61.506 -49.912  1.00  0.00    -0.178 NA
HETATM   30  C   UNL     1     -43.619  61.884 -51.195  1.00  0.00     0.064 A 
HETATM   31  C   UNL     1     -43.526  60.756 -52.057  1.00  0.00     0.066 A 
BRANCH  30  32
HETATM   32  C   UNL     1     -43.728  63.358 -51.557  1.00  0.00    -0.005 C 
HETATM   33  C   UNL     1     -42.972  64.202 -50.512  1.00  0.00     0.021 C 
HETATM   34  C   UNL     1     -43.122  63.646 -52.946  1.00  0.00     0.021 C 
HETATM   35  C   UNL     1     -45.203  63.813 -51.591  1.00  0.00     0.021 C 
ENDBRANCH  30  32
ENDBRANCH  23  26
ENDBRANCH   3  22
TORSDOF 7
ENDMDL
MODEL 9
REMARK VINA RESULT:      -6.9      2.873      9.840
REMARK  7 active torsions:
REMARK  status: ('A' for Active; 'I' for Inactive)
REMARK    1  A    between atoms: C_2  and  C_3 
REMARK    2  A    between atoms: C_7  and  C_8 
REMARK       I    between atoms: C_8  and  N_9 
REMARK    3  A    between atoms: N_9  and  C_10 
REMARK    4  A    between atoms: C_10  and  C_11 
REMARK    5  A    between atoms: C_13  and  N_14 
REMARK       I    between atoms: N_14  and  C_15 
REMARK    6  A    between atoms: C_15  and  C_16 
REMARK    7  A    between atoms: C_20  and  C_21 
ROOT
HETATM    1  C   UNL     1     -42.860  59.684 -53.993  1.00  0.00    -0.035 A 
HETATM    2  C   UNL     1     -42.338  58.438 -53.620  1.00  0.00     0.059 A 
HETATM    3  C   UNL     1     -42.388  57.374 -54.519  1.00  0.00     0.130 A 
HETATM    4  N   UNL     1     -42.959  57.495 -55.728  1.00  0.00    -0.243 NA
HETATM    5  C   UNL     1     -43.487  58.689 -56.066  1.00  0.00     0.119 A 
HETATM    6  C   UNL     1     -43.460  59.802 -55.247  1.00  0.00     0.028 A 
ENDROOT
BRANCH   1   7
HETATM    7  C   UNL     1     -42.764  60.864 -53.067  1.00  0.00     0.161 C 
BRANCH   7   8
HETATM    8  N   UNL     1     -43.396  60.604 -51.798  1.00  0.00    -0.351 N 
HETATM    9  C   UNL     1     -44.288  61.480 -51.231  1.00  0.00     0.270 C 
HETATM   10  O   UNL     1     -44.575  62.557 -51.743  1.00  0.00    -0.266 OA
HETATM   11  H   UNL     1     -43.131  59.771 -51.295  1.00  0.00     0.163 HD
BRANCH   9  12
HETATM   12  C   UNL     1     -44.880  61.034 -49.998  1.00  0.00     0.119 A 
HETATM   13  N   UNL     1     -45.473  59.805 -49.890  1.00  0.00    -0.273 N 
HETATM   14  N   UNL     1     -45.947  59.527 -48.666  1.00  0.00    -0.178 NA
HETATM   15  H   UNL     1     -45.569  59.110 -50.624  1.00  0.00     0.189 HD
HETATM   16  C   UNL     1     -45.662  60.617 -47.942  1.00  0.00     0.064 A 
HETATM   17  C   UNL     1     -44.998  61.589 -48.739  1.00  0.00     0.066 A 
BRANCH  16  18
HETATM   18  C   UNL     1     -46.018  60.712 -46.466  1.00  0.00    -0.005 C 
HETATM   19  C   UNL     1     -47.015  61.856 -46.176  1.00  0.00     0.021 C 
HETATM   20  C   UNL     1     -44.747  60.970 -45.631  1.00  0.00     0.021 C 
HETATM   21  C   UNL     1     -46.661  59.390 -45.999  1.00  0.00     0.021 C 
ENDBRANCH  16  18
ENDBRANCH   9  12
ENDBRANCH   7   8
ENDBRANCH   1   7
BRANCH   3  22
HETATM   22  N   UNL     1     -41.787  56.171 -54.125  1.00  0.00    -0.306 N 
HETATM   23  C   UNL     1     -42.302  55.286 -53.203  1.00  0.00     0.275 C 
HETATM   24  O   UNL     1     -43.337  55.422 -52.561  1.00  0.00    -0.266 OA
HETATM   25  H   UNL     1     -40.942  55.913 -54.605  1.00  0.00     0.170 HD
BRANCH  23  26
HETATM   26  C   UNL     1     -41.518  54.079 -53.047  1.00  0.00     0.120 A 
HETATM   27  N   UNL     1     -40.863  53.817 -51.874  1.00  0.00    -0.273 N 
HETATM   28  H   UNL     1     -40.852  54.404 -51.045  1.00  0.00     0.189 HD
HETATM   29  N   UNL     1     -40.208  52.647 -51.859  1.00  0.00    -0.178 NA
HETATM   30  C   UNL     1     -40.405  52.138 -53.082  1.00  0.00     0.064 A 
HETATM   31  C   UNL     1     -41.228  52.999 -53.858  1.00  0.00     0.066 A 
BRANCH  30  32
HETATM   32  C   UNL     1     -39.813  50.786 -53.455  1.00  0.00    -0.005 C 
HETATM   33  C   UNL     1     -38.427  50.991 -54.098  1.00  0.00     0.021 C 
HETATM   34  C   UNL     1     -39.647  49.880 -52.217  1.00  0.00     0.021 C 
HETATM   35  C   UNL     1     -40.721  50.041 -54.457  1.00  0.00     0.021 C 
ENDBRANCH  30  32
ENDBRANCH  23  26
ENDBRANCH   3  22
TORSDOF 7
ENDMDL
MODEL 10
REMARK VINA RESULT:      -6.9      1.898      2.247
REMARK  7 active torsions:
REMARK  status: ('A' for Active; 'I' for Inactive)
REMARK    1  A    between atoms: C_2  and  C_3 
REMARK    2  A    between atoms: C_7  and  C_8 
REMARK       I    between atoms: C_8  and  N_9 
REMARK    3  A    between atoms: N_9  and  C_10 
REMARK    4  A    between atoms: C_10  and  C_11 
REMARK    5  A    between atoms: C_13  and  N_14 
REMARK       I    between atoms: N_14  and  C_15 
REMARK    6  A    between atoms: C_15  and  C_16 
REMARK    7  A    between atoms: C_20  and  C_21 
ROOT
HETATM    1  C   UNL     1     -41.891  54.482 -52.040  1.00  0.00    -0.035 A 
HETATM    2  C   UNL     1     -42.571  55.707 -51.992  1.00  0.00     0.059 A 
HETATM    3  C   UNL     1     -42.445  56.519 -50.867  1.00  0.00     0.130 A 
HETATM    4  N   UNL     1     -41.716  56.146 -49.802  1.00  0.00    -0.243 NA
HETATM    5  C   UNL     1     -41.091  54.952 -49.845  1.00  0.00     0.119 A 
HETATM    6  C   UNL     1     -41.143  54.095 -50.928  1.00  0.00     0.028 A 
ENDROOT
BRANCH   1   7
HETATM    7  C   UNL     1     -41.960  53.615 -53.266  1.00  0.00     0.161 C 
BRANCH   7   8
HETATM    8  N   UNL     1     -42.459  54.339 -54.408  1.00  0.00    -0.351 N 
HETATM    9  C   UNL     1     -41.624  54.946 -55.313  1.00  0.00     0.270 C 
HETATM   10  O   UNL     1     -40.403  54.949 -55.189  1.00  0.00    -0.266 OA
HETATM   11  H   UNL     1     -43.457  54.439 -54.510  1.00  0.00     0.163 HD
BRANCH   9  12
HETATM   12  C   UNL     1     -42.284  55.564 -56.432  1.00  0.00     0.119 A 
HETATM   13  N   UNL     1     -42.083  56.880 -56.747  1.00  0.00    -0.273 N 
HETATM   14  N   UNL     1     -42.745  57.294 -57.838  1.00  0.00    -0.178 NA
HETATM   15  H   UNL     1     -41.490  57.540 -56.252  1.00  0.00     0.189 HD
HETATM   16  C   UNL     1     -43.414  56.211 -58.253  1.00  0.00     0.064 A 
HETATM   17  C   UNL     1     -43.158  55.105 -57.399  1.00  0.00     0.066 A 
BRANCH  16  18
HETATM   18  C   UNL     1     -44.292  56.241 -59.496  1.00  0.00    -0.005 C 
HETATM   19  C   UNL     1     -45.688  56.834 -59.212  1.00  0.00     0.021 C 
HETATM   20  C   UNL     1     -44.487  54.811 -60.040  1.00  0.00     0.021 C 
HETATM   21  C   UNL     1     -43.621  57.101 -60.587  1.00  0.00     0.021 C 
ENDBRANCH  16  18
ENDBRANCH   9  12
ENDBRANCH   7   8
ENDBRANCH   1   7
BRANCH   3  22
HETATM   22  N   UNL     1     -43.085  57.765 -50.898  1.00  0.00    -0.306 N 
HETATM   23  C   UNL     1     -44.446  57.965 -50.827  1.00  0.00     0.275 C 
HETATM   24  O   UNL     1     -45.308  57.096 -50.761  1.00  0.00    -0.266 OA
HETATM   25  H   UNL     1     -42.489  58.575 -50.913  1.00  0.00     0.170 HD
BRANCH  23  26
HETATM   26  C   UNL     1     -44.834  59.360 -50.795  1.00  0.00     0.120 A 
HETATM   27  N   UNL     1     -44.394  60.186 -49.797  1.00  0.00    -0.273 N 
HETATM   28  H   UNL     1     -43.795  59.926 -49.019  1.00  0.00     0.189 HD
HETATM   29  N   UNL     1     -44.801  61.458 -49.916  1.00  0.00    -0.178 NA
HETATM   30  C   UNL     1     -45.571  61.461 -51.012  1.00  0.00     0.064 A 
HETATM   31  C   UNL     1     -45.613  60.168 -51.601  1.00  0.00     0.066 A 
BRANCH  30  32
HETATM   32  C   UNL     1     -46.221  62.752 -51.489  1.00  0.00    -0.005 C 
HETATM   33  C   UNL     1     -47.317  63.176 -50.491  1.00  0.00     0.021 C 
HETATM   34  C   UNL     1     -45.192  63.897 -51.598  1.00  0.00     0.021 C 
HETATM   35  C   UNL     1     -46.861  62.568 -52.882  1.00  0.00     0.021 C 
ENDBRANCH  30  32
ENDBRANCH  23  26
ENDBRANCH   3  22
TORSDOF 7
ENDMDL
