MODEL 1
REMARK VINA RESULT:      -9.6      0.000      0.000
REMARK  7 active torsions:
REMARK  status: ('A' for Active; 'I' for Inactive)
REMARK    1  A    between atoms: C_4  and  N_5 
REMARK       I    between atoms: N_5  and  C_6 
REMARK       I    between atoms: C_6  and  N_7 
REMARK    2  A    between atoms: N_7  and  N_8 
REMARK       I    between atoms: N_8  and  C_9 
REMARK    3  A    between atoms: C_9  and  C_10 
REMARK    4  A    between atoms: C_10  and  N_11 
REMARK    5  A    between atoms: C_10  and  C_19 
REMARK       I    between atoms: N_11  and  C_12 
REMARK    6  A    between atoms: C_12  and  C_13 
REMARK    7  A    between atoms: C_19  and  C_20 
ROOT
HETATM    1  C   UNL     1     -42.104  55.304 -53.596  1.00  0.00     0.183 C 
ENDROOT
BRANCH   1   2
HETATM    2  C   UNL     1     -43.009  55.489 -54.834  1.00  0.00     0.259 C 
HETATM    3  N   UNL     1     -42.459  55.109 -56.043  1.00  0.00    -0.264 N 
HETATM    4  H   UNL     1     -41.663  54.460 -56.029  1.00  0.00     0.190 HD
HETATM    5  O   UNL     1     -44.194  55.811 -54.724  1.00  0.00    -0.269 OA
BRANCH   3   6
HETATM    6  N   UNL     1     -43.311  55.022 -57.153  1.00  0.00    -0.249 N 
HETATM    7  C   UNL     1     -43.383  56.012 -58.113  1.00  0.00     0.339 C 
HETATM    8  N   UNL     1     -42.444  57.002 -57.945  1.00  0.00    -0.308 N 
HETATM    9  O   UNL     1     -44.234  55.940 -58.993  1.00  0.00    -0.245 OA
HETATM   10  H   UNL     1     -41.938  56.932 -57.075  1.00  0.00     0.170 HD
HETATM   11  H   UNL     1     -44.098  54.379 -57.097  1.00  0.00     0.192 HD
BRANCH   8  12
HETATM   12  C   UNL     1     -42.210  58.131 -58.750  1.00  0.00     0.036 A 
HETATM   13  C   UNL     1     -42.088  58.081 -60.139  1.00  0.00     0.029 A 
HETATM   14  C   UNL     1     -41.856  59.248 -60.873  1.00  0.00     0.002 A 
HETATM   15  C   UNL     1     -41.746  60.475 -60.224  1.00  0.00     0.000 A 
HETATM   16  C   UNL     1     -41.860  60.536 -58.837  1.00  0.00     0.002 A 
HETATM   17  C   UNL     1     -42.087  59.368 -58.103  1.00  0.00     0.029 A 
ENDBRANCH   8  12
ENDBRANCH   3   6
ENDBRANCH   1   2
BRANCH   1  18
HETATM   18  N   UNL     1     -41.846  56.537 -52.835  1.00  0.00    -0.343 N 
HETATM   19  C   UNL     1     -42.573  56.965 -51.749  1.00  0.00     0.259 C 
HETATM   20  O   UNL     1     -43.419  56.232 -51.235  1.00  0.00    -0.267 OA
HETATM   21  H   UNL     1     -41.271  57.238 -53.289  1.00  0.00     0.163 HD
BRANCH  19  22
HETATM   22  C   UNL     1     -42.252  58.281 -51.220  1.00  0.00     0.072 A 
HETATM   23  S   UNL     1     -43.347  59.596 -51.295  1.00  0.00    -0.097 SA
HETATM   24  C   UNL     1     -42.228  60.663 -50.567  1.00  0.00     0.050 A 
HETATM   25  C   UNL     1     -41.044  60.034 -50.255  1.00  0.00     0.009 A 
HETATM   26  C   UNL     1     -41.060  58.659 -50.629  1.00  0.00     0.025 A 
ENDBRANCH  19  22
ENDBRANCH   1  18
BRANCH   1  27
HETATM   27  C   UNL     1     -40.841  54.527 -54.007  1.00  0.00     0.076 C 
BRANCH  27  28
HETATM   28  C   UNL     1     -40.430  53.501 -52.993  1.00  0.00    -0.028 A 
HETATM   29  C   UNL     1     -40.156  52.114 -53.225  1.00  0.00    -0.002 A 
HETATM   30  C   UNL     1     -39.821  51.543 -51.997  1.00  0.00     0.042 A 
HETATM   31  C   UNL     1     -40.169  51.285 -54.366  1.00  0.00     0.014 A 
HETATM   32  C   UNL     1     -39.489  50.190 -51.853  1.00  0.00     0.030 A 
HETATM   33  N   UNL     1     -39.902  52.537 -51.051  1.00  0.00    -0.365 N 
HETATM   34  C   UNL     1     -39.499  49.395 -53.002  1.00  0.00     0.002 A 
HETATM   35  C   UNL     1     -39.835  49.931 -54.242  1.00  0.00     0.001 A 
HETATM   36  H   UNL     1     -39.727  52.405 -50.064  1.00  0.00     0.165 HD
HETATM   37  C   UNL     1     -40.264  53.719 -51.638  1.00  0.00     0.096 A 
ENDBRANCH  27  28
ENDBRANCH   1  27
TORSDOF 7
ENDMDL
MODEL 2
REMARK VINA RESULT:      -9.2      2.365      2.930
REMARK  7 active torsions:
REMARK  status: ('A' for Active; 'I' for Inactive)
REMARK    1  A    between atoms: C_4  and  N_5 
REMARK       I    between atoms: N_5  and  C_6 
REMARK       I    between atoms: C_6  and  N_7 
REMARK    2  A    between atoms: N_7  and  N_8 
REMARK       I    between atoms: N_8  and  C_9 
REMARK    3  A    between atoms: C_9  and  C_10 
REMARK    4  A    between atoms: C_10  and  N_11 
REMARK    5  A    between atoms: C_10  and  C_19 
REMARK       I    between atoms: N_11  and  C_12 
REMARK    6  A    between atoms: C_12  and  C_13 
REMARK    7  A    between atoms: C_19  and  C_20 
ROOT
HETATM    1  C   UNL     1     -43.315  55.915 -54.072  1.00  0.00     0.183 C 
ENDROOT
BRANCH   1   2
HETATM    2  C   UNL     1     -42.583  55.752 -55.422  1.00  0.00     0.259 C 
HETATM    3  N   UNL     1     -43.393  55.684 -56.540  1.00  0.00    -0.264 N 
HETATM    4  H   UNL     1     -44.349  56.052 -56.467  1.00  0.00     0.190 HD
HETATM    5  O   UNL     1     -41.356  55.831 -55.505  1.00  0.00    -0.269 OA
BRANCH   3   6
HETATM    6  N   UNL     1     -42.784  55.784 -57.798  1.00  0.00    -0.249 N 
HETATM    7  C   UNL     1     -43.480  56.152 -58.933  1.00  0.00     0.339 C 
HETATM    8  N   UNL     1     -44.772  56.543 -58.675  1.00  0.00    -0.308 N 
HETATM    9  O   UNL     1     -42.924  56.103 -60.026  1.00  0.00    -0.245 OA
HETATM   10  H   UNL     1     -45.061  56.372 -57.725  1.00  0.00     0.170 HD
HETATM   11  H   UNL     1     -41.903  55.293 -57.938  1.00  0.00     0.192 HD
BRANCH   8  12
HETATM   12  C   UNL     1     -45.741  57.011 -59.581  1.00  0.00     0.036 A 
HETATM   13  C   UNL     1     -45.989  58.363 -59.821  1.00  0.00     0.029 A 
HETATM   14  C   UNL     1     -46.970  58.751 -60.739  1.00  0.00     0.002 A 
HETATM   15  C   UNL     1     -47.709  57.791 -61.425  1.00  0.00     0.000 A 
HETATM   16  C   UNL     1     -47.473  56.438 -61.188  1.00  0.00     0.002 A 
HETATM   17  C   UNL     1     -46.496  56.051 -60.267  1.00  0.00     0.029 A 
ENDBRANCH   8  12
ENDBRANCH   3   6
ENDBRANCH   1   2
BRANCH   1  18
HETATM   18  N   UNL     1     -42.661  56.836 -53.127  1.00  0.00    -0.343 N 
HETATM   19  C   UNL     1     -43.314  57.627 -52.211  1.00  0.00     0.259 C 
HETATM   20  O   UNL     1     -44.521  57.489 -52.014  1.00  0.00    -0.267 OA
HETATM   21  H   UNL     1     -41.704  57.097 -53.338  1.00  0.00     0.163 HD
BRANCH  19  22
HETATM   22  C   UNL     1     -42.501  58.575 -51.465  1.00  0.00     0.072 A 
HETATM   23  S   UNL     1     -40.968  58.165 -50.820  1.00  0.00    -0.097 SA
HETATM   24  C   UNL     1     -40.772  59.710 -50.115  1.00  0.00     0.050 A 
HETATM   25  C   UNL     1     -41.843  60.535 -50.375  1.00  0.00     0.009 A 
HETATM   26  C   UNL     1     -42.839  59.881 -51.156  1.00  0.00     0.025 A 
ENDBRANCH  19  22
ENDBRANCH   1  18
BRANCH   1  27
HETATM   27  C   UNL     1     -43.629  54.524 -53.497  1.00  0.00     0.076 C 
BRANCH  27  28
HETATM   28  C   UNL     1     -42.532  53.989 -52.625  1.00  0.00    -0.028 A 
HETATM   29  C   UNL     1     -41.470  53.108 -53.010  1.00  0.00    -0.002 A 
HETATM   30  C   UNL     1     -40.693  52.871 -51.875  1.00  0.00     0.042 A 
HETATM   31  C   UNL     1     -41.100  52.480 -54.216  1.00  0.00     0.014 A 
HETATM   32  C   UNL     1     -39.560  52.047 -51.889  1.00  0.00     0.030 A 
HETATM   33  N   UNL     1     -41.266  53.567 -50.838  1.00  0.00    -0.365 N 
HETATM   34  C   UNL     1     -39.210  51.447 -53.101  1.00  0.00     0.002 A 
HETATM   35  C   UNL     1     -39.967  51.657 -54.250  1.00  0.00     0.001 A 
HETATM   36  H   UNL     1     -40.922  53.565 -49.887  1.00  0.00     0.165 HD
HETATM   37  C   UNL     1     -42.370  54.246 -51.277  1.00  0.00     0.096 A 
ENDBRANCH  27  28
ENDBRANCH   1  27
TORSDOF 7
ENDMDL
MODEL 3
REMARK VINA RESULT:      -9.0      1.977      2.294
REMARK  7 active torsions:
REMARK  status: ('A' for Active; 'I' for Inactive)
REMARK    1  A    between atoms: C_4  and  N_5 
REMARK       I    between atoms: N_5  and  C_6 
REMARK       I    between atoms: C_6  and  N_7 
REMARK    2  A    between atoms: N_7  and  N_8 
REMARK       I    between atoms: N_8  and  C_9 
REMARK    3  A    between atoms: C_9  and  C_10 
REMARK    4  A    between atoms: C_10  and  N_11 
REMARK    5  A    between atoms: C_10  and  C_19 
REMARK       I    between atoms: N_11  and  C_12 
REMARK    6  A    between atoms: C_12  and  C_13 
REMARK    7  A    between atoms: C_19  and  C_20 
ROOT
HETATM    1  C   UNL     1     -42.322  55.042 -53.761  1.00  0.00     0.183 C 
ENDROOT
BRANCH   1   2
HETATM    2  C   UNL     1     -42.756  54.821 -55.227  1.00  0.00     0.259 C 
HETATM    3  N   UNL     1     -42.310  55.763 -56.134  1.00  0.00    -0.264 N 
HETATM    4  H   UNL     1     -41.499  56.336 -55.876  1.00  0.00     0.190 HD
HETATM    5  O   UNL     1     -43.332  53.790 -55.581  1.00  0.00    -0.269 OA
BRANCH   3   6
HETATM    6  N   UNL     1     -42.462  55.482 -57.499  1.00  0.00    -0.249 N 
HETATM    7  C   UNL     1     -43.383  56.136 -58.294  1.00  0.00     0.339 C 
HETATM    8  N   UNL     1     -44.018  57.172 -57.650  1.00  0.00    -0.308 N 
HETATM    9  O   UNL     1     -43.558  55.764 -59.449  1.00  0.00    -0.245 OA
HETATM   10  H   UNL     1     -43.821  57.211 -56.662  1.00  0.00     0.170 HD
HETATM   11  H   UNL     1     -42.114  54.588 -57.840  1.00  0.00     0.192 HD
BRANCH   8  12
HETATM   12  C   UNL     1     -44.976  58.064 -58.164  1.00  0.00     0.036 A 
HETATM   13  C   UNL     1     -46.284  57.698 -58.483  1.00  0.00     0.029 A 
HETATM   14  C   UNL     1     -47.181  58.643 -58.989  1.00  0.00     0.002 A 
HETATM   15  C   UNL     1     -46.778  59.962 -59.181  1.00  0.00     0.000 A 
HETATM   16  C   UNL     1     -45.472  60.337 -58.872  1.00  0.00     0.002 A 
HETATM   17  C   UNL     1     -44.575  59.391 -58.370  1.00  0.00     0.029 A 
ENDBRANCH   8  12
ENDBRANCH   3   6
ENDBRANCH   1   2
BRANCH   1  18
HETATM   18  N   UNL     1     -42.828  56.283 -53.152  1.00  0.00    -0.343 N 
HETATM   19  C   UNL     1     -43.306  56.399 -51.868  1.00  0.00     0.259 C 
HETATM   20  O   UNL     1     -43.187  55.469 -51.071  1.00  0.00    -0.267 OA
HETATM   21  H   UNL     1     -43.082  57.030 -53.790  1.00  0.00     0.163 HD
BRANCH  19  22
HETATM   22  C   UNL     1     -43.893  57.677 -51.499  1.00  0.00     0.072 A 
HETATM   23  S   UNL     1     -42.983  59.128 -51.444  1.00  0.00    -0.097 SA
HETATM   24  C   UNL     1     -44.327  60.036 -50.907  1.00  0.00     0.050 A 
HETATM   25  C   UNL     1     -45.458  59.260 -50.784  1.00  0.00     0.009 A 
HETATM   26  C   UNL     1     -45.207  57.900 -51.129  1.00  0.00     0.025 A 
ENDBRANCH  19  22
ENDBRANCH   1  18
BRANCH   1  27
HETATM   27  C   UNL     1     -40.801  54.847 -53.650  1.00  0.00     0.076 C 
BRANCH  27  28
HETATM   28  C   UNL     1     -40.421  53.718 -52.738  1.00  0.00    -0.028 A 
HETATM   29  C   UNL     1     -40.194  52.350 -53.100  1.00  0.00    -0.002 A 
HETATM   30  C   UNL     1     -39.873  51.657 -51.931  1.00  0.00     0.042 A 
HETATM   31  C   UNL     1     -40.240  51.631 -54.312  1.00  0.00     0.014 A 
HETATM   32  C   UNL     1     -39.587  50.287 -51.916  1.00  0.00     0.030 A 
HETATM   33  N   UNL     1     -39.917  52.562 -50.898  1.00  0.00    -0.365 N 
HETATM   34  C   UNL     1     -39.628  49.602 -53.133  1.00  0.00     0.002 A 
HETATM   35  C   UNL     1     -39.951  50.261 -54.316  1.00  0.00     0.001 A 
HETATM   36  H   UNL     1     -39.744  52.334 -49.929  1.00  0.00     0.165 HD
HETATM   37  C   UNL     1     -40.242  53.804 -51.371  1.00  0.00     0.096 A 
ENDBRANCH  27  28
ENDBRANCH   1  27
TORSDOF 7
ENDMDL
MODEL 4
REMARK VINA RESULT:      -8.6      2.389      6.257
REMARK  7 active torsions:
REMARK  status: ('A' for Active; 'I' for Inactive)
REMARK    1  A    between atoms: C_4  and  N_5 
REMARK       I    between atoms: N_5  and  C_6 
REMARK       I    between atoms: C_6  and  N_7 
REMARK    2  A    between atoms: N_7  and  N_8 
REMARK       I    between atoms: N_8  and  C_9 
REMARK    3  A    between atoms: C_9  and  C_10 
REMARK    4  A    between atoms: C_10  and  N_11 
REMARK    5  A    between atoms: C_10  and  C_19 
REMARK       I    between atoms: N_11  and  C_12 
REMARK    6  A    between atoms: C_12  and  C_13 
REMARK    7  A    between atoms: C_19  and  C_20 
ROOT
HETATM    1  C   UNL     1     -41.305  55.323 -53.525  1.00  0.00     0.183 C 
ENDROOT
BRANCH   1   2
HETATM    2  C   UNL     1     -42.456  55.363 -54.555  1.00  0.00     0.259 C 
HETATM    3  N   UNL     1     -42.081  55.583 -55.867  1.00  0.00    -0.264 N 
HETATM    4  H   UNL     1     -41.108  55.390 -56.130  1.00  0.00     0.190 HD
HETATM    5  O   UNL     1     -43.611  55.068 -54.243  1.00  0.00    -0.269 OA
BRANCH   3   6
HETATM    6  N   UNL     1     -43.045  55.385 -56.866  1.00  0.00    -0.249 N 
HETATM    7  C   UNL     1     -43.220  56.267 -57.914  1.00  0.00     0.339 C 
HETATM    8  N   UNL     1     -42.271  57.261 -57.952  1.00  0.00    -0.308 N 
HETATM    9  O   UNL     1     -44.158  56.108 -58.688  1.00  0.00    -0.245 OA
HETATM   10  H   UNL     1     -41.677  57.280 -57.137  1.00  0.00     0.170 HD
HETATM   11  H   UNL     1     -43.819  54.758 -56.658  1.00  0.00     0.192 HD
BRANCH   8  12
HETATM   12  C   UNL     1     -42.126  58.295 -58.894  1.00  0.00     0.036 A 
HETATM   13  C   UNL     1     -41.947  58.079 -60.261  1.00  0.00     0.029 A 
HETATM   14  C   UNL     1     -41.811  59.160 -61.138  1.00  0.00     0.002 A 
HETATM   15  C   UNL     1     -41.854  60.465 -60.654  1.00  0.00     0.000 A 
HETATM   16  C   UNL     1     -42.025  60.692 -59.291  1.00  0.00     0.002 A 
HETATM   17  C   UNL     1     -42.156  59.611 -58.415  1.00  0.00     0.029 A 
ENDBRANCH   8  12
ENDBRANCH   3   6
ENDBRANCH   1   2
BRANCH   1  18
HETATM   18  N   UNL     1     -40.848  53.970 -53.169  1.00  0.00    -0.343 N 
HETATM   19  C   UNL     1     -40.224  53.093 -54.025  1.00  0.00     0.259 C 
HETATM   20  O   UNL     1     -39.859  53.462 -55.141  1.00  0.00    -0.267 OA
HETATM   21  H   UNL     1     -41.244  53.564 -52.328  1.00  0.00     0.163 HD
BRANCH  19  22
HETATM   22  C   UNL     1     -39.977  51.750 -53.524  1.00  0.00     0.072 A 
HETATM   23  S   UNL     1     -39.609  51.434 -51.881  1.00  0.00    -0.097 SA
HETATM   24  C   UNL     1     -39.427  49.759 -52.169  1.00  0.00     0.050 A 
HETATM   25  C   UNL     1     -39.656  49.435 -53.487  1.00  0.00     0.009 A 
HETATM   26  C   UNL     1     -39.976  50.584 -54.268  1.00  0.00     0.025 A 
ENDBRANCH  19  22
ENDBRANCH   1  18
BRANCH   1  27
HETATM   27  C   UNL     1     -41.670  56.214 -52.326  1.00  0.00     0.076 C 
BRANCH  27  28
HETATM   28  C   UNL     1     -41.835  57.658 -52.698  1.00  0.00    -0.028 A 
HETATM   29  C   UNL     1     -43.014  58.460 -52.559  1.00  0.00    -0.002 A 
HETATM   30  C   UNL     1     -42.711  59.734 -53.041  1.00  0.00     0.042 A 
HETATM   31  C   UNL     1     -44.317  58.221 -52.076  1.00  0.00     0.014 A 
HETATM   32  C   UNL     1     -43.640  60.782 -53.054  1.00  0.00     0.030 A 
HETATM   33  N   UNL     1     -41.406  59.706 -53.469  1.00  0.00    -0.365 N 
HETATM   34  C   UNL     1     -44.920  60.520 -52.558  1.00  0.00     0.002 A 
HETATM   35  C   UNL     1     -45.257  59.258 -52.077  1.00  0.00     0.001 A 
HETATM   36  H   UNL     1     -40.922  60.491 -53.884  1.00  0.00     0.165 HD
HETATM   37  C   UNL     1     -40.868  58.465 -53.266  1.00  0.00     0.096 A 
ENDBRANCH  27  28
ENDBRANCH   1  27
TORSDOF 7
ENDMDL
MODEL 5
REMARK VINA RESULT:      -8.6      1.782      2.134
REMARK  7 active torsions:
REMARK  status: ('A' for Active; 'I' for Inactive)
REMARK    1  A    between atoms: C_4  and  N_5 
REMARK       I    between atoms: N_5  and  C_6 
REMARK       I    between atoms: C_6  and  N_7 
REMARK    2  A    between atoms: N_7  and  N_8 
REMARK       I    between atoms: N_8  and  C_9 
REMARK    3  A    between atoms: C_9  and  C_10 
REMARK    4  A    between atoms: C_10  and  N_11 
REMARK    5  A    between atoms: C_10  and  C_19 
REMARK       I    between atoms: N_11  and  C_12 
REMARK    6  A    between atoms: C_12  and  C_13 
REMARK    7  A    between atoms: C_19  and  C_20 
ROOT
HETATM    1  C   UNL     1     -43.037  56.237 -52.751  1.00  0.00     0.183 C 
ENDROOT
BRANCH   1   2
HETATM    2  C   UNL     1     -43.443  55.589 -54.094  1.00  0.00     0.259 C 
HETATM    3  N   UNL     1     -43.070  56.280 -55.231  1.00  0.00    -0.264 N 
HETATM    4  H   UNL     1     -42.309  56.964 -55.153  1.00  0.00     0.190 HD
HETATM    5  O   UNL     1     -43.932  54.459 -54.144  1.00  0.00    -0.269 OA
BRANCH   3   6
HETATM    6  N   UNL     1     -43.191  55.626 -56.465  1.00  0.00    -0.249 N 
HETATM    7  C   UNL     1     -43.047  56.283 -57.671  1.00  0.00     0.339 C 
HETATM    8  N   UNL     1     -42.636  57.588 -57.534  1.00  0.00    -0.308 N 
HETATM    9  O   UNL     1     -43.286  55.688 -58.716  1.00  0.00    -0.245 OA
HETATM   10  H   UNL     1     -42.636  57.910 -56.578  1.00  0.00     0.170 HD
HETATM   11  H   UNL     1     -43.686  54.736 -56.482  1.00  0.00     0.192 HD
BRANCH   8  12
HETATM   12  C   UNL     1     -42.357  58.527 -58.543  1.00  0.00     0.036 A 
HETATM   13  C   UNL     1     -42.461  58.253 -59.907  1.00  0.00     0.029 A 
HETATM   14  C   UNL     1     -42.167  59.240 -60.853  1.00  0.00     0.002 A 
HETATM   15  C   UNL     1     -41.767  60.509 -60.441  1.00  0.00     0.000 A 
HETATM   16  C   UNL     1     -41.654  60.791 -59.082  1.00  0.00     0.002 A 
HETATM   17  C   UNL     1     -41.943  59.802 -58.138  1.00  0.00     0.029 A 
ENDBRANCH   8  12
ENDBRANCH   3   6
ENDBRANCH   1   2
BRANCH   1  18
HETATM   18  N   UNL     1     -43.655  57.547 -52.490  1.00  0.00    -0.343 N 
HETATM   19  C   UNL     1     -44.605  57.799 -51.529  1.00  0.00     0.259 C 
HETATM   20  O   UNL     1     -44.892  56.940 -50.695  1.00  0.00    -0.267 OA
HETATM   21  H   UNL     1     -43.570  58.242 -53.224  1.00  0.00     0.163 HD
BRANCH  19  22
HETATM   22  C   UNL     1     -45.196  59.127 -51.522  1.00  0.00     0.072 A 
HETATM   23  S   UNL     1     -45.462  60.009 -50.077  1.00  0.00    -0.097 SA
HETATM   24  C   UNL     1     -46.180  61.311 -50.919  1.00  0.00     0.050 A 
HETATM   25  C   UNL     1     -46.206  61.095 -52.278  1.00  0.00     0.009 A 
HETATM   26  C   UNL     1     -45.636  59.836 -52.625  1.00  0.00     0.025 A 
ENDBRANCH  19  22
ENDBRANCH   1  18
BRANCH   1  27
HETATM   27  C   UNL     1     -41.504  56.212 -52.623  1.00  0.00     0.076 C 
BRANCH  27  28
HETATM   28  C   UNL     1     -40.991  54.955 -51.985  1.00  0.00    -0.028 A 
HETATM   29  C   UNL     1     -40.579  53.753 -52.646  1.00  0.00    -0.002 A 
HETATM   30  C   UNL     1     -40.187  52.847 -51.659  1.00  0.00     0.042 A 
HETATM   31  C   UNL     1     -40.510  53.344 -53.993  1.00  0.00     0.014 A 
HETATM   32  C   UNL     1     -39.720  51.560 -51.952  1.00  0.00     0.030 A 
HETATM   33  N   UNL     1     -40.366  53.467 -50.445  1.00  0.00    -0.365 N 
HETATM   34  C   UNL     1     -39.651  51.185 -53.296  1.00  0.00     0.002 A 
HETATM   35  C   UNL     1     -40.042  52.062 -54.305  1.00  0.00     0.001 A 
HETATM   36  H   UNL     1     -40.178  53.037 -49.549  1.00  0.00     0.165 HD
HETATM   37  C   UNL     1     -40.846  54.735 -50.628  1.00  0.00     0.096 A 
ENDBRANCH  27  28
ENDBRANCH   1  27
TORSDOF 7
ENDMDL
MODEL 6
REMARK VINA RESULT:      -8.6      3.004      7.179
REMARK  7 active torsions:
REMARK  status: ('A' for Active; 'I' for Inactive)
REMARK    1  A    between atoms: C_4  and  N_5 
REMARK       I    between atoms: N_5  and  C_6 
REMARK       I    between atoms: C_6  and  N_7 
REMARK    2  A    between atoms: N_7  and  N_8 
REMARK       I    between atoms: N_8  and  C_9 
REMARK    3  A    between atoms: C_9  and  C_10 
REMARK    4  A    between atoms: C_10  and  N_11 
REMARK    5  A    between atoms: C_10  and  C_19 
REMARK       I    between atoms: N_11  and  C_12 
REMARK    6  A    between atoms: C_12  and  C_13 
REMARK    7  A    between atoms: C_19  and  C_20 
ROOT
HETATM    1  C   UNL     1     -43.938  58.517 -51.968  1.00  0.00     0.183 C 
ENDROOT
BRANCH   1   2
HETATM    2  C   UNL     1     -43.665  57.285 -51.077  1.00  0.00     0.259 C 
HETATM    3  N   UNL     1     -42.347  57.087 -50.713  1.00  0.00    -0.264 N 
HETATM    4  H   UNL     1     -41.706  57.887 -50.765  1.00  0.00     0.190 HD
HETATM    5  O   UNL     1     -44.585  56.617 -50.601  1.00  0.00    -0.269 OA
BRANCH   3   6
HETATM    6  N   UNL     1     -42.078  56.141 -49.714  1.00  0.00    -0.249 N 
HETATM    7  C   UNL     1     -41.559  54.892 -49.994  1.00  0.00     0.339 C 
HETATM    8  N   UNL     1     -41.205  54.734 -51.313  1.00  0.00    -0.308 N 
HETATM    9  O   UNL     1     -41.460  54.063 -49.096  1.00  0.00    -0.245 OA
HETATM   10  H   UNL     1     -41.504  55.496 -51.903  1.00  0.00     0.170 HD
HETATM   11  H   UNL     1     -42.546  56.253 -48.817  1.00  0.00     0.192 HD
BRANCH   8  12
HETATM   12  C   UNL     1     -40.619  53.617 -51.933  1.00  0.00     0.036 A 
HETATM   13  C   UNL     1     -39.956  52.604 -51.238  1.00  0.00     0.029 A 
HETATM   14  C   UNL     1     -39.399  51.521 -51.925  1.00  0.00     0.002 A 
HETATM   15  C   UNL     1     -39.500  51.442 -53.312  1.00  0.00     0.000 A 
HETATM   16  C   UNL     1     -40.154  52.451 -54.015  1.00  0.00     0.002 A 
HETATM   17  C   UNL     1     -40.707  53.535 -53.329  1.00  0.00     0.029 A 
ENDBRANCH   8  12
ENDBRANCH   3   6
ENDBRANCH   1   2
BRANCH   1  18
HETATM   18  N   UNL     1     -44.191  59.765 -51.230  1.00  0.00    -0.343 N 
HETATM   19  C   UNL     1     -43.238  60.499 -50.564  1.00  0.00     0.259 C 
HETATM   20  O   UNL     1     -42.043  60.226 -50.683  1.00  0.00    -0.267 OA
HETATM   21  H   UNL     1     -45.155  59.956 -50.978  1.00  0.00     0.163 HD
BRANCH  19  22
HETATM   22  C   UNL     1     -43.710  61.626 -49.775  1.00  0.00     0.072 A 
HETATM   23  S   UNL     1     -43.280  63.245 -50.134  1.00  0.00    -0.097 SA
HETATM   24  C   UNL     1     -44.145  63.848 -48.789  1.00  0.00     0.050 A 
HETATM   25  C   UNL     1     -44.766  62.843 -48.083  1.00  0.00     0.009 A 
HETATM   26  C   UNL     1     -44.517  61.562 -48.654  1.00  0.00     0.025 A 
ENDBRANCH  19  22
ENDBRANCH   1  18
BRANCH   1  27
HETATM   27  C   UNL     1     -45.012  58.158 -53.009  1.00  0.00     0.076 C 
BRANCH  27  28
HETATM   28  C   UNL     1     -44.461  58.036 -54.399  1.00  0.00    -0.028 A 
HETATM   29  C   UNL     1     -43.928  56.860 -55.021  1.00  0.00    -0.002 A 
HETATM   30  C   UNL     1     -43.528  57.215 -56.310  1.00  0.00     0.042 A 
HETATM   31  C   UNL     1     -43.739  55.526 -54.606  1.00  0.00     0.014 A 
HETATM   32  C   UNL     1     -42.958  56.302 -57.206  1.00  0.00     0.030 A 
HETATM   33  N   UNL     1     -43.792  58.555 -56.463  1.00  0.00    -0.365 N 
HETATM   34  C   UNL     1     -42.794  54.984 -56.772  1.00  0.00     0.002 A 
HETATM   35  C   UNL     1     -43.176  54.599 -55.490  1.00  0.00     0.001 A 
HETATM   36  H   UNL     1     -43.587  59.087 -57.298  1.00  0.00     0.165 HD
HETATM   37  C   UNL     1     -44.356  59.059 -55.323  1.00  0.00     0.096 A 
ENDBRANCH  27  28
ENDBRANCH   1  27
TORSDOF 7
ENDMDL
MODEL 7
REMARK VINA RESULT:      -8.5      2.693      4.999
REMARK  7 active torsions:
REMARK  status: ('A' for Active; 'I' for Inactive)
REMARK    1  A    between atoms: C_4  and  N_5 
REMARK       I    between atoms: N_5  and  C_6 
REMARK       I    between atoms: C_6  and  N_7 
REMARK    2  A    between atoms: N_7  and  N_8 
REMARK       I    between atoms: N_8  and  C_9 
REMARK    3  A    between atoms: C_9  and  C_10 
REMARK    4  A    between atoms: C_10  and  N_11 
REMARK    5  A    between atoms: C_10  and  C_19 
REMARK       I    between atoms: N_11  and  C_12 
REMARK    6  A    between atoms: C_12  and  C_13 
REMARK    7  A    between atoms: C_19  and  C_20 
ROOT
HETATM    1  C   UNL     1     -43.018  55.864 -54.623  1.00  0.00     0.183 C 
ENDROOT
BRANCH   1   2
HETATM    2  C   UNL     1     -43.319  57.245 -54.002  1.00  0.00     0.259 C 
HETATM    3  N   UNL     1     -42.282  58.159 -54.037  1.00  0.00    -0.264 N 
HETATM    4  H   UNL     1     -41.529  58.008 -54.718  1.00  0.00     0.190 HD
HETATM    5  O   UNL     1     -44.456  57.556 -53.639  1.00  0.00    -0.269 OA
BRANCH   3   6
HETATM    6  N   UNL     1     -42.572  59.492 -53.717  1.00  0.00    -0.249 N 
HETATM    7  C   UNL     1     -42.574  60.500 -54.662  1.00  0.00     0.339 C 
HETATM    8  N   UNL     1     -42.408  60.039 -55.947  1.00  0.00    -0.308 N 
HETATM    9  O   UNL     1     -42.713  61.664 -54.305  1.00  0.00    -0.245 OA
HETATM   10  H   UNL     1     -42.173  59.060 -55.996  1.00  0.00     0.170 HD
HETATM   11  H   UNL     1     -42.482  59.776 -52.744  1.00  0.00     0.192 HD
BRANCH   8  12
HETATM   12  C   UNL     1     -42.397  60.776 -57.145  1.00  0.00     0.036 A 
HETATM   13  C   UNL     1     -41.235  61.089 -57.852  1.00  0.00     0.029 A 
HETATM   14  C   UNL     1     -41.305  61.826 -59.038  1.00  0.00     0.002 A 
HETATM   15  C   UNL     1     -42.536  62.256 -59.527  1.00  0.00     0.000 A 
HETATM   16  C   UNL     1     -43.701  61.955 -58.825  1.00  0.00     0.002 A 
HETATM   17  C   UNL     1     -43.631  61.222 -57.637  1.00  0.00     0.029 A 
ENDBRANCH   8  12
ENDBRANCH   3   6
ENDBRANCH   1   2
BRANCH   1  18
HETATM   18  N   UNL     1     -43.490  55.697 -56.008  1.00  0.00    -0.343 N 
HETATM   19  C   UNL     1     -43.086  56.458 -57.080  1.00  0.00     0.259 C 
HETATM   20  O   UNL     1     -42.153  57.253 -56.965  1.00  0.00    -0.267 OA
HETATM   21  H   UNL     1     -44.347  55.170 -56.134  1.00  0.00     0.163 HD
BRANCH  19  22
HETATM   22  C   UNL     1     -43.774  56.232 -58.341  1.00  0.00     0.072 A 
HETATM   23  S   UNL     1     -44.793  57.408 -59.058  1.00  0.00    -0.097 SA
HETATM   24  C   UNL     1     -45.191  56.374 -60.359  1.00  0.00     0.050 A 
HETATM   25  C   UNL     1     -44.551  55.159 -60.267  1.00  0.00     0.009 A 
HETATM   26  C   UNL     1     -43.731  55.079 -59.104  1.00  0.00     0.025 A 
ENDBRANCH  19  22
ENDBRANCH   1  18
BRANCH   1  27
HETATM   27  C   UNL     1     -43.478  54.763 -53.652  1.00  0.00     0.076 C 
BRANCH  27  28
HETATM   28  C   UNL     1     -42.365  54.235 -52.797  1.00  0.00    -0.028 A 
HETATM   29  C   UNL     1     -41.420  53.212 -53.137  1.00  0.00    -0.002 A 
HETATM   30  C   UNL     1     -40.576  53.042 -52.039  1.00  0.00     0.042 A 
HETATM   31  C   UNL     1     -41.209  52.406 -54.274  1.00  0.00     0.014 A 
HETATM   32  C   UNL     1     -39.526  52.115 -52.025  1.00  0.00     0.030 A 
HETATM   33  N   UNL     1     -40.997  53.914 -51.064  1.00  0.00    -0.365 N 
HETATM   34  C   UNL     1     -39.332  51.338 -53.169  1.00  0.00     0.002 A 
HETATM   35  C   UNL     1     -40.161  51.478 -54.280  1.00  0.00     0.001 A 
HETATM   36  H   UNL     1     -40.577  53.996 -50.148  1.00  0.00     0.165 HD
HETATM   37  C   UNL     1     -42.069  54.639 -51.508  1.00  0.00     0.096 A 
ENDBRANCH  27  28
ENDBRANCH   1  27
TORSDOF 7
ENDMDL
MODEL 8
REMARK VINA RESULT:      -8.4      3.203      3.777
REMARK  7 active torsions:
REMARK  status: ('A' for Active; 'I' for Inactive)
REMARK    1  A    between atoms: C_4  and  N_5 
REMARK       I    between atoms: N_5  and  C_6 
REMARK       I    between atoms: C_6  and  N_7 
REMARK    2  A    between atoms: N_7  and  N_8 
REMARK       I    between atoms: N_8  and  C_9 
REMARK    3  A    between atoms: C_9  and  C_10 
REMARK    4  A    between atoms: C_10  and  N_11 
REMARK    5  A    between atoms: C_10  and  C_19 
REMARK       I    between atoms: N_11  and  C_12 
REMARK    6  A    between atoms: C_12  and  C_13 
REMARK    7  A    between atoms: C_19  and  C_20 
ROOT
HETATM    1  C   UNL     1     -43.004  55.994 -54.853  1.00  0.00     0.183 C 
ENDROOT
BRANCH   1   2
HETATM    2  C   UNL     1     -43.374  55.111 -56.065  1.00  0.00     0.259 C 
HETATM    3  N   UNL     1     -43.574  55.781 -57.257  1.00  0.00    -0.264 N 
HETATM    4  H   UNL     1     -43.172  56.720 -57.357  1.00  0.00     0.190 HD
HETATM    5  O   UNL     1     -43.343  53.881 -56.000  1.00  0.00    -0.269 OA
BRANCH   3   6
HETATM    6  N   UNL     1     -43.666  55.018 -58.430  1.00  0.00    -0.249 N 
HETATM    7  C   UNL     1     -44.566  55.308 -59.436  1.00  0.00     0.339 C 
HETATM    8  N   UNL     1     -45.245  56.488 -59.234  1.00  0.00    -0.308 N 
HETATM    9  O   UNL     1     -44.688  54.536 -60.381  1.00  0.00    -0.245 OA
HETATM   10  H   UNL     1     -45.088  56.890 -58.323  1.00  0.00     0.170 HD
HETATM   11  H   UNL     1     -43.288  54.073 -58.411  1.00  0.00     0.192 HD
BRANCH   8  12
HETATM   12  C   UNL     1     -46.197  57.101 -60.067  1.00  0.00     0.036 A 
HETATM   13  C   UNL     1     -46.309  58.483 -60.231  1.00  0.00     0.029 A 
HETATM   14  C   UNL     1     -47.283  59.019 -61.079  1.00  0.00     0.002 A 
HETATM   15  C   UNL     1     -48.152  58.179 -61.770  1.00  0.00     0.000 A 
HETATM   16  C   UNL     1     -48.053  56.799 -61.608  1.00  0.00     0.002 A 
HETATM   17  C   UNL     1     -47.083  56.263 -60.757  1.00  0.00     0.029 A 
ENDBRANCH   8  12
ENDBRANCH   3   6
ENDBRANCH   1   2
BRANCH   1  18
HETATM   18  N   UNL     1     -43.541  57.364 -54.905  1.00  0.00    -0.343 N 
HETATM   19  C   UNL     1     -44.444  57.896 -54.015  1.00  0.00     0.259 C 
HETATM   20  O   UNL     1     -44.748  57.283 -52.992  1.00  0.00    -0.267 OA
HETATM   21  H   UNL     1     -43.443  57.856 -55.787  1.00  0.00     0.163 HD
BRANCH  19  22
HETATM   22  C   UNL     1     -44.962  59.221 -54.318  1.00  0.00     0.072 A 
HETATM   23  S   UNL     1     -44.925  59.884 -55.897  1.00  0.00    -0.097 SA
HETATM   24  C   UNL     1     -45.615  61.357 -55.371  1.00  0.00     0.050 A 
HETATM   25  C   UNL     1     -45.887  61.347 -54.022  1.00  0.00     0.009 A 
HETATM   26  C   UNL     1     -45.512  60.113 -53.416  1.00  0.00     0.025 A 
ENDBRANCH  19  22
ENDBRANCH   1  18
BRANCH   1  27
HETATM   27  C   UNL     1     -41.488  55.908 -54.610  1.00  0.00     0.076 C 
BRANCH  27  28
HETATM   28  C   UNL     1     -41.137  55.140 -53.370  1.00  0.00    -0.028 A 
HETATM   29  C   UNL     1     -40.584  53.820 -53.295  1.00  0.00    -0.002 A 
HETATM   30  C   UNL     1     -40.431  53.509 -51.943  1.00  0.00     0.042 A 
HETATM   31  C   UNL     1     -40.208  52.854 -54.250  1.00  0.00     0.014 A 
HETATM   32  C   UNL     1     -39.911  52.286 -51.499  1.00  0.00     0.030 A 
HETATM   33  N   UNL     1     -40.884  54.588 -51.223  1.00  0.00    -0.365 N 
HETATM   34  C   UNL     1     -39.535  51.352 -52.468  1.00  0.00     0.002 A 
HETATM   35  C   UNL     1     -39.682  51.628 -53.825  1.00  0.00     0.001 A 
HETATM   36  H   UNL     1     -40.908  54.635 -50.214  1.00  0.00     0.165 HD
HETATM   37  C   UNL     1     -41.308  55.576 -52.070  1.00  0.00     0.096 A 
ENDBRANCH  27  28
ENDBRANCH   1  27
TORSDOF 7
ENDMDL
MODEL 9
REMARK VINA RESULT:      -8.4      2.956      5.914
REMARK  7 active torsions:
REMARK  status: ('A' for Active; 'I' for Inactive)
REMARK    1  A    between atoms: C_4  and  N_5 
REMARK       I    between atoms: N_5  and  C_6 
REMARK       I    between atoms: C_6  and  N_7 
REMARK    2  A    between atoms: N_7  and  N_8 
REMARK       I    between atoms: N_8  and  C_9 
REMARK    3  A    between atoms: C_9  and  C_10 
REMARK    4  A    between atoms: C_10  and  N_11 
REMARK    5  A    between atoms: C_10  and  C_19 
REMARK       I    between atoms: N_11  and  C_12 
REMARK    6  A    between atoms: C_12  and  C_13 
REMARK    7  A    between atoms: C_19  and  C_20 
ROOT
HETATM    1  C   UNL     1     -41.080  56.145 -54.002  1.00  0.00     0.183 C 
ENDROOT
BRANCH   1   2
HETATM    2  C   UNL     1     -41.109  57.474 -53.216  1.00  0.00     0.259 C 
HETATM    3  N   UNL     1     -42.112  57.592 -52.272  1.00  0.00    -0.264 N 
HETATM    4  H   UNL     1     -42.553  56.732 -51.925  1.00  0.00     0.190 HD
HETATM    5  O   UNL     1     -40.206  58.306 -53.321  1.00  0.00    -0.269 OA
BRANCH   3   6
HETATM    6  N   UNL     1     -42.039  58.660 -51.367  1.00  0.00    -0.249 N 
HETATM    7  C   UNL     1     -42.896  59.741 -51.422  1.00  0.00     0.339 C 
HETATM    8  N   UNL     1     -43.903  59.589 -52.347  1.00  0.00    -0.308 N 
HETATM    9  O   UNL     1     -42.707  60.702 -50.684  1.00  0.00    -0.245 OA
HETATM   10  H   UNL     1     -43.784  58.782 -52.940  1.00  0.00     0.170 HD
HETATM   11  H   UNL     1     -41.165  58.792 -50.861  1.00  0.00     0.192 HD
BRANCH   8  12
HETATM   12  C   UNL     1     -44.961  60.468 -52.638  1.00  0.00     0.036 A 
HETATM   13  C   UNL     1     -46.204  60.421 -52.005  1.00  0.00     0.029 A 
HETATM   14  C   UNL     1     -47.209  61.331 -52.349  1.00  0.00     0.002 A 
HETATM   15  C   UNL     1     -46.979  62.295 -53.327  1.00  0.00     0.000 A 
HETATM   16  C   UNL     1     -45.744  62.347 -53.969  1.00  0.00     0.002 A 
HETATM   17  C   UNL     1     -44.741  61.434 -53.628  1.00  0.00     0.029 A 
ENDBRANCH   8  12
ENDBRANCH   3   6
ENDBRANCH   1   2
BRANCH   1  18
HETATM   18  N   UNL     1     -41.371  56.275 -55.439  1.00  0.00    -0.343 N 
HETATM   19  C   UNL     1     -42.540  56.766 -55.971  1.00  0.00     0.259 C 
HETATM   20  O   UNL     1     -43.385  57.290 -55.244  1.00  0.00    -0.267 OA
HETATM   21  H   UNL     1     -40.787  55.736 -56.070  1.00  0.00     0.163 HD
BRANCH  19  22
HETATM   22  C   UNL     1     -42.691  56.682 -57.414  1.00  0.00     0.072 A 
HETATM   23  S   UNL     1     -42.288  57.979 -58.459  1.00  0.00    -0.097 SA
HETATM   24  C   UNL     1     -42.792  57.114 -59.844  1.00  0.00     0.050 A 
HETATM   25  C   UNL     1     -43.245  55.853 -59.529  1.00  0.00     0.009 A 
HETATM   26  C   UNL     1     -43.184  55.604 -58.127  1.00  0.00     0.025 A 
ENDBRANCH  19  22
ENDBRANCH   1  18
BRANCH   1  27
HETATM   27  C   UNL     1     -41.941  55.104 -53.265  1.00  0.00     0.076 C 
BRANCH  27  28
HETATM   28  C   UNL     1     -41.123  54.084 -52.529  1.00  0.00    -0.028 A 
HETATM   29  C   UNL     1     -40.678  52.813 -53.018  1.00  0.00    -0.002 A 
HETATM   30  C   UNL     1     -39.958  52.200 -51.991  1.00  0.00     0.042 A 
HETATM   31  C   UNL     1     -40.827  52.119 -54.236  1.00  0.00     0.014 A 
HETATM   32  C   UNL     1     -39.372  50.935 -52.125  1.00  0.00     0.030 A 
HETATM   33  N   UNL     1     -39.976  53.056 -50.916  1.00  0.00    -0.365 N 
HETATM   34  C   UNL     1     -39.525  50.276 -53.347  1.00  0.00     0.002 A 
HETATM   35  C   UNL     1     -40.243  50.856 -54.389  1.00  0.00     0.001 A 
HETATM   36  H   UNL     1     -39.545  52.862 -50.022  1.00  0.00     0.165 HD
HETATM   37  C   UNL     1     -40.670  54.193 -51.228  1.00  0.00     0.096 A 
ENDBRANCH  27  28
ENDBRANCH   1  27
TORSDOF 7
ENDMDL
MODEL 10
REMARK VINA RESULT:      -8.3     16.195     19.082
REMARK  7 active torsions:
REMARK  status: ('A' for Active; 'I' for Inactive)
REMARK    1  A    between atoms: C_4  and  N_5 
REMARK       I    between atoms: N_5  and  C_6 
REMARK       I    between atoms: C_6  and  N_7 
REMARK    2  A    between atoms: N_7  and  N_8 
REMARK       I    between atoms: N_8  and  C_9 
REMARK    3  A    between atoms: C_9  and  C_10 
REMARK    4  A    between atoms: C_10  and  N_11 
REMARK    5  A    between atoms: C_10  and  C_19 
REMARK       I    between atoms: N_11  and  C_12 
REMARK    6  A    between atoms: C_12  and  C_13 
REMARK    7  A    between atoms: C_19  and  C_20 
ROOT
HETATM    1  C   UNL     1     -32.562  39.304 -50.137  1.00  0.00     0.183 C 
ENDROOT
BRANCH   1   2
HETATM    2  C   UNL     1     -33.901  40.059 -50.283  1.00  0.00     0.259 C 
HETATM    3  N   UNL     1     -33.829  41.300 -50.887  1.00  0.00    -0.264 N 
HETATM    4  H   UNL     1     -33.009  41.508 -51.468  1.00  0.00     0.190 HD
HETATM    5  O   UNL     1     -34.978  39.520 -50.016  1.00  0.00    -0.269 OA
BRANCH   3   6
HETATM    6  N   UNL     1     -35.030  41.915 -51.266  1.00  0.00    -0.249 N 
HETATM    7  C   UNL     1     -35.476  41.931 -52.573  1.00  0.00     0.339 C 
HETATM    8  N   UNL     1     -34.707  41.167 -53.419  1.00  0.00    -0.308 N 
HETATM    9  O   UNL     1     -36.469  42.589 -52.866  1.00  0.00    -0.245 OA
HETATM   10  H   UNL     1     -33.859  40.826 -52.992  1.00  0.00     0.170 HD
HETATM   11  H   UNL     1     -35.423  42.614 -50.638  1.00  0.00     0.192 HD
BRANCH   8  12
HETATM   12  C   UNL     1     -34.891  40.929 -54.792  1.00  0.00     0.036 A 
HETATM   13  C   UNL     1     -34.587  41.859 -55.788  1.00  0.00     0.029 A 
HETATM   14  C   UNL     1     -34.798  41.549 -57.135  1.00  0.00     0.002 A 
HETATM   15  C   UNL     1     -35.312  40.307 -57.498  1.00  0.00     0.000 A 
HETATM   16  C   UNL     1     -35.624  39.374 -56.511  1.00  0.00     0.002 A 
HETATM   17  C   UNL     1     -35.418  39.686 -55.165  1.00  0.00     0.029 A 
ENDBRANCH   8  12
ENDBRANCH   3   6
ENDBRANCH   1   2
BRANCH   1  18
HETATM   18  N   UNL     1     -31.841  39.571 -48.881  1.00  0.00    -0.343 N 
HETATM   19  C   UNL     1     -31.806  38.731 -47.793  1.00  0.00     0.259 C 
HETATM   20  O   UNL     1     -32.266  37.592 -47.868  1.00  0.00    -0.267 OA
HETATM   21  H   UNL     1     -31.574  40.535 -48.708  1.00  0.00     0.163 HD
BRANCH  19  22
HETATM   22  C   UNL     1     -31.158  39.237 -46.594  1.00  0.00     0.072 A 
HETATM   23  S   UNL     1     -31.471  38.595 -45.037  1.00  0.00    -0.097 SA
HETATM   24  C   UNL     1     -30.426  39.718 -44.284  1.00  0.00     0.050 A 
HETATM   25  C   UNL     1     -29.832  40.561 -45.196  1.00  0.00     0.009 A 
HETATM   26  C   UNL     1     -30.252  40.281 -46.528  1.00  0.00     0.025 A 
ENDBRANCH  19  22
ENDBRANCH   1  18
BRANCH   1  27
HETATM   27  C   UNL     1     -31.726  39.508 -51.412  1.00  0.00     0.076 C 
BRANCH  27  28
HETATM   28  C   UNL     1     -32.082  38.543 -52.504  1.00  0.00    -0.028 A 
HETATM   29  C   UNL     1     -31.976  38.755 -53.917  1.00  0.00    -0.002 A 
HETATM   30  C   UNL     1     -32.425  37.594 -54.548  1.00  0.00     0.042 A 
HETATM   31  C   UNL     1     -31.547  39.830 -54.722  1.00  0.00     0.014 A 
HETATM   32  C   UNL     1     -32.457  37.451 -55.941  1.00  0.00     0.030 A 
HETATM   33  N   UNL     1     -32.803  36.716 -53.562  1.00  0.00    -0.365 N 
HETATM   34  C   UNL     1     -32.016  38.528 -56.714  1.00  0.00     0.002 A 
HETATM   35  C   UNL     1     -31.568  39.703 -56.116  1.00  0.00     0.001 A 
HETATM   36  H   UNL     1     -33.187  35.796 -53.730  1.00  0.00     0.165 HD
HETATM   37  C   UNL     1     -32.599  37.273 -52.329  1.00  0.00     0.096 A 
ENDBRANCH  27  28
ENDBRANCH   1  27
TORSDOF 7
ENDMDL
