MODEL 1
REMARK VINA RESULT:      -8.7      0.000      0.000
REMARK  6 active torsions:
REMARK  status: ('A' for Active; 'I' for Inactive)
REMARK    1  A    between atoms: C_3  and  C_4 
REMARK       I    between atoms: C_4  and  N_5 
REMARK    2  A    between atoms: N_5  and  C_6 
REMARK    3  A    between atoms: C_6  and  C_7 
REMARK    4  A    between atoms: C_6  and  C_22 
REMARK       I    between atoms: C_7  and  N_8 
REMARK    5  A    between atoms: N_8  and  C_9 
REMARK    6  A    between atoms: C_11  and  C_12 
ROOT
HETATM    1  C   UNL     1     -42.473  55.121 -56.264  1.00  0.00     0.245 C 
HETATM    2  N   UNL     1     -41.321  55.259 -55.514  1.00  0.00    -0.325 N 
HETATM    3  O   UNL     1     -43.338  54.272 -56.051  1.00  0.00    -0.271 OA
HETATM    4  H   UNL     1     -40.672  55.981 -55.824  1.00  0.00     0.169 HD
ENDROOT
BRANCH   1   5
HETATM    5  C   UNL     1     -42.689  56.273 -57.303  1.00  0.00     0.180 C 
BRANCH   5   6
HETATM    6  N   UNL     1     -43.938  56.222 -58.095  1.00  0.00    -0.343 N 
HETATM    7  C   UNL     1     -43.958  56.415 -59.456  1.00  0.00     0.252 C 
HETATM    8  O   UNL     1     -43.008  56.183 -60.191  1.00  0.00    -0.268 OA
HETATM    9  H   UNL     1     -44.799  56.428 -57.602  1.00  0.00     0.163 HD
BRANCH   7  10
HETATM   10  C   UNL     1     -45.233  56.907 -60.015  1.00  0.00     0.037 A 
HETATM   11  C   UNL     1     -45.472  58.283 -60.187  1.00  0.00    -0.046 A 
HETATM   12  C   UNL     1     -44.468  59.333 -59.804  1.00  0.00     0.049 C 
HETATM   13  C   UNL     1     -46.703  58.680 -60.729  1.00  0.00     0.007 A 
HETATM   14  C   UNL     1     -47.651  57.731 -61.119  1.00  0.00     0.001 A 
HETATM   15  C   UNL     1     -47.386  56.371 -60.970  1.00  0.00     0.001 A 
HETATM   16  C   UNL     1     -46.175  55.954 -60.419  1.00  0.00     0.017 A 
ENDBRANCH   7  10
ENDBRANCH   5   6
BRANCH   5  17
HETATM   17  C   UNL     1     -42.536  57.702 -56.707  1.00  0.00     0.009 C 
HETATM   18  C   UNL     1     -41.813  58.678 -57.641  1.00  0.00     0.012 C 
HETATM   19  C   UNL     1     -43.861  58.295 -56.221  1.00  0.00     0.012 C 
ENDBRANCH   5  17
ENDBRANCH   1   5
BRANCH   2  20
HETATM   20  C   UNL     1     -40.975  54.608 -54.314  1.00  0.00     0.035 A 
HETATM   21  C   UNL     1     -40.502  53.294 -54.249  1.00  0.00     0.042 A 
HETATM   22  C   UNL     1     -40.272  52.667 -53.012  1.00  0.00    -0.021 A 
HETATM   23  C   UNL     1     -40.476  53.403 -51.836  1.00  0.00     0.012 A 
HETATM   24  C   UNL     1     -40.933  54.720 -51.894  1.00  0.00     0.003 A 
HETATM   25  C   UNL     1     -41.198  55.312 -53.127  1.00  0.00     0.029 A 
BRANCH  22  26
HETATM   26  C   UNL     1     -39.886  51.264 -52.934  1.00  0.00     0.010 A 
HETATM   27  C   UNL     1     -39.701  50.298 -53.955  1.00  0.00     0.152 A 
HETATM   28  N   UNL     1     -39.310  49.109 -53.487  1.00  0.00    -0.187 NA
HETATM   29  N   UNL     1     -39.234  49.309 -52.162  1.00  0.00    -0.289 N 
HETATM   30  H   UNL     1     -38.938  48.535 -51.576  1.00  0.00     0.188 HD
HETATM   31  C   UNL     1     -39.571  50.574 -51.781  1.00  0.00     0.123 A 
ENDBRANCH  22  26
ENDBRANCH   2  20
TORSDOF 6
ENDMDL
MODEL 2
REMARK VINA RESULT:      -8.4      1.757      2.446
REMARK  6 active torsions:
REMARK  status: ('A' for Active; 'I' for Inactive)
REMARK    1  A    between atoms: C_3  and  C_4 
REMARK       I    between atoms: C_4  and  N_5 
REMARK    2  A    between atoms: N_5  and  C_6 
REMARK    3  A    between atoms: C_6  and  C_7 
REMARK    4  A    between atoms: C_6  and  C_22 
REMARK       I    between atoms: C_7  and  N_8 
REMARK    5  A    between atoms: N_8  and  C_9 
REMARK    6  A    between atoms: C_11  and  C_12 
ROOT
HETATM    1  C   UNL     1     -41.610  57.210 -53.991  1.00  0.00     0.245 C 
HETATM    2  N   UNL     1     -42.065  55.975 -53.569  1.00  0.00    -0.325 N 
HETATM    3  O   UNL     1     -40.534  57.700 -53.653  1.00  0.00    -0.271 OA
HETATM    4  H   UNL     1     -42.992  55.706 -53.897  1.00  0.00     0.169 HD
ENDROOT
BRANCH   1   5
HETATM    5  C   UNL     1     -42.498  57.861 -55.105  1.00  0.00     0.180 C 
BRANCH   5   6
HETATM    6  N   UNL     1     -42.954  56.967 -56.192  1.00  0.00    -0.343 N 
HETATM    7  C   UNL     1     -42.828  57.296 -57.521  1.00  0.00     0.252 C 
HETATM    8  O   UNL     1     -41.970  58.052 -57.958  1.00  0.00    -0.268 OA
HETATM    9  H   UNL     1     -43.689  56.309 -55.963  1.00  0.00     0.163 HD
BRANCH   7  10
HETATM   10  C   UNL     1     -43.792  56.652 -58.435  1.00  0.00     0.037 A 
HETATM   11  C   UNL     1     -44.977  57.302 -58.824  1.00  0.00    -0.046 A 
HETATM   12  C   UNL     1     -45.348  58.672 -58.329  1.00  0.00     0.049 C 
HETATM   13  C   UNL     1     -45.845  56.633 -59.699  1.00  0.00     0.007 A 
HETATM   14  C   UNL     1     -45.522  55.370 -60.198  1.00  0.00     0.001 A 
HETATM   15  C   UNL     1     -44.328  54.752 -59.827  1.00  0.00     0.001 A 
HETATM   16  C   UNL     1     -43.459  55.392 -58.946  1.00  0.00     0.017 A 
ENDBRANCH   7  10
ENDBRANCH   5   6
BRANCH   5  17
HETATM   17  C   UNL     1     -43.724  58.647 -54.560  1.00  0.00     0.009 C 
HETATM   18  C   UNL     1     -43.865  60.050 -55.159  1.00  0.00     0.012 C 
HETATM   19  C   UNL     1     -45.037  57.870 -54.681  1.00  0.00     0.012 C 
ENDBRANCH   5  17
ENDBRANCH   1   5
BRANCH   2  20
HETATM   20  C   UNL     1     -41.374  54.991 -52.836  1.00  0.00     0.035 A 
HETATM   21  C   UNL     1     -40.956  53.770 -53.373  1.00  0.00     0.042 A 
HETATM   22  C   UNL     1     -40.361  52.787 -52.563  1.00  0.00    -0.021 A 
HETATM   23  C   UNL     1     -40.145  53.073 -51.208  1.00  0.00     0.012 A 
HETATM   24  C   UNL     1     -40.545  54.296 -50.668  1.00  0.00     0.003 A 
HETATM   25  C   UNL     1     -41.172  55.242 -51.476  1.00  0.00     0.029 A 
BRANCH  22  26
HETATM   26  C   UNL     1     -40.025  51.471 -53.092  1.00  0.00     0.010 A 
HETATM   27  C   UNL     1     -39.578  50.298 -52.435  1.00  0.00     0.152 A 
HETATM   28  N   UNL     1     -39.404  49.266 -53.267  1.00  0.00    -0.187 NA
HETATM   29  N   UNL     1     -39.746  49.771 -54.462  1.00  0.00    -0.289 N 
HETATM   30  H   UNL     1     -39.706  49.161 -55.271  1.00  0.00     0.188 HD
HETATM   31  C   UNL     1     -40.119  51.082 -54.412  1.00  0.00     0.123 A 
ENDBRANCH  22  26
ENDBRANCH   2  20
TORSDOF 6
ENDMDL
MODEL 3
REMARK VINA RESULT:      -8.4      1.967      2.700
REMARK  6 active torsions:
REMARK  status: ('A' for Active; 'I' for Inactive)
REMARK    1  A    between atoms: C_3  and  C_4 
REMARK       I    between atoms: C_4  and  N_5 
REMARK    2  A    between atoms: N_5  and  C_6 
REMARK    3  A    between atoms: C_6  and  C_7 
REMARK    4  A    between atoms: C_6  and  C_22 
REMARK       I    between atoms: C_7  and  N_8 
REMARK    5  A    between atoms: N_8  and  C_9 
REMARK    6  A    between atoms: C_11  and  C_12 
ROOT
HETATM    1  C   UNL     1     -42.560  54.806 -55.982  1.00  0.00     0.245 C 
HETATM    2  N   UNL     1     -41.369  54.841 -55.283  1.00  0.00    -0.325 N 
HETATM    3  O   UNL     1     -43.410  53.927 -55.853  1.00  0.00    -0.271 OA
HETATM    4  H   UNL     1     -40.738  55.608 -55.515  1.00  0.00     0.169 HD
ENDROOT
BRANCH   1   5
HETATM    5  C   UNL     1     -42.834  56.099 -56.824  1.00  0.00     0.180 C 
BRANCH   5   6
HETATM    6  N   UNL     1     -44.017  56.069 -57.712  1.00  0.00    -0.343 N 
HETATM    7  C   UNL     1     -43.926  56.271 -59.070  1.00  0.00     0.252 C 
HETATM    8  O   UNL     1     -42.923  56.030 -59.728  1.00  0.00    -0.268 OA
HETATM    9  H   UNL     1     -44.911  56.284 -57.288  1.00  0.00     0.163 HD
BRANCH   7  10
HETATM   10  C   UNL     1     -45.146  56.783 -59.724  1.00  0.00     0.037 A 
HETATM   11  C   UNL     1     -45.376  58.164 -59.860  1.00  0.00    -0.046 A 
HETATM   12  C   UNL     1     -44.419  59.200 -59.340  1.00  0.00     0.049 C 
HETATM   13  C   UNL     1     -46.554  58.581 -60.497  1.00  0.00     0.007 A 
HETATM   14  C   UNL     1     -47.455  57.648 -61.014  1.00  0.00     0.001 A 
HETATM   15  C   UNL     1     -47.196  56.283 -60.898  1.00  0.00     0.001 A 
HETATM   16  C   UNL     1     -46.040  55.846 -60.254  1.00  0.00     0.017 A 
ENDBRANCH   7  10
ENDBRANCH   5   6
BRANCH   5  17
HETATM   17  C   UNL     1     -42.876  57.406 -55.982  1.00  0.00     0.009 C 
HETATM   18  C   UNL     1     -42.150  58.582 -56.645  1.00  0.00     0.012 C 
HETATM   19  C   UNL     1     -44.294  57.807 -55.567  1.00  0.00     0.012 C 
ENDBRANCH   5  17
ENDBRANCH   1   5
BRANCH   2  20
HETATM   20  C   UNL     1     -40.957  54.022 -54.215  1.00  0.00     0.035 A 
HETATM   21  C   UNL     1     -41.137  54.349 -52.867  1.00  0.00     0.042 A 
HETATM   22  C   UNL     1     -40.612  53.537 -51.847  1.00  0.00    -0.021 A 
HETATM   23  C   UNL     1     -39.944  52.358 -52.203  1.00  0.00     0.012 A 
HETATM   24  C   UNL     1     -39.774  52.015 -53.545  1.00  0.00     0.003 A 
HETATM   25  C   UNL     1     -40.262  52.854 -54.544  1.00  0.00     0.029 A 
BRANCH  22  26
HETATM   26  C   UNL     1     -40.700  53.930 -50.446  1.00  0.00     0.010 A 
HETATM   27  C   UNL     1     -41.161  55.130 -49.849  1.00  0.00     0.152 A 
HETATM   28  N   UNL     1     -41.114  55.102 -48.514  1.00  0.00    -0.187 NA
HETATM   29  N   UNL     1     -40.630  53.880 -48.247  1.00  0.00    -0.289 N 
HETATM   30  H   UNL     1     -40.512  53.612 -47.276  1.00  0.00     0.188 HD
HETATM   31  C   UNL     1     -40.362  53.144 -49.363  1.00  0.00     0.123 A 
ENDBRANCH  22  26
ENDBRANCH   2  20
TORSDOF 6
ENDMDL
MODEL 4
REMARK VINA RESULT:      -8.3      2.878      8.440
REMARK  6 active torsions:
REMARK  status: ('A' for Active; 'I' for Inactive)
REMARK    1  A    between atoms: C_3  and  C_4 
REMARK       I    between atoms: C_4  and  N_5 
REMARK    2  A    between atoms: N_5  and  C_6 
REMARK    3  A    between atoms: C_6  and  C_7 
REMARK    4  A    between atoms: C_6  and  C_22 
REMARK       I    between atoms: C_7  and  N_8 
REMARK    5  A    between atoms: N_8  and  C_9 
REMARK    6  A    between atoms: C_11  and  C_12 
ROOT
HETATM    1  C   UNL     1     -42.803  57.859 -54.112  1.00  0.00     0.245 C 
HETATM    2  N   UNL     1     -42.110  57.529 -55.261  1.00  0.00    -0.325 N 
HETATM    3  O   UNL     1     -43.849  58.506 -54.099  1.00  0.00    -0.271 OA
HETATM    4  H   UNL     1     -41.237  57.021 -55.124  1.00  0.00     0.169 HD
ENDROOT
BRANCH   1   5
HETATM    5  C   UNL     1     -42.246  57.167 -52.821  1.00  0.00     0.180 C 
BRANCH   5   6
HETATM    6  N   UNL     1     -41.475  55.921 -53.020  1.00  0.00    -0.343 N 
HETATM    7  C   UNL     1     -42.060  54.677 -52.991  1.00  0.00     0.252 C 
HETATM    8  O   UNL     1     -43.234  54.470 -53.266  1.00  0.00    -0.268 OA
HETATM    9  H   UNL     1     -40.487  55.955 -52.797  1.00  0.00     0.163 HD
BRANCH   7  10
HETATM   10  C   UNL     1     -41.169  53.558 -52.625  1.00  0.00     0.037 A 
HETATM   11  C   UNL     1     -40.411  52.881 -53.598  1.00  0.00    -0.046 A 
HETATM   12  C   UNL     1     -40.468  53.233 -55.058  1.00  0.00     0.049 C 
HETATM   13  C   UNL     1     -39.580  51.831 -53.180  1.00  0.00     0.007 A 
HETATM   14  C   UNL     1     -39.483  51.493 -51.828  1.00  0.00     0.001 A 
HETATM   15  C   UNL     1     -40.218  52.194 -50.873  1.00  0.00     0.001 A 
HETATM   16  C   UNL     1     -41.062  53.231 -51.269  1.00  0.00     0.017 A 
ENDBRANCH   7  10
ENDBRANCH   5   6
BRANCH   5  17
HETATM   17  C   UNL     1     -41.431  58.115 -51.895  1.00  0.00     0.009 C 
HETATM   18  C   UNL     1     -40.984  57.453 -50.587  1.00  0.00     0.012 C 
HETATM   19  C   UNL     1     -40.244  58.772 -52.604  1.00  0.00     0.012 C 
ENDBRANCH   5  17
ENDBRANCH   1   5
BRANCH   2  20
HETATM   20  C   UNL     1     -42.503  57.706 -56.601  1.00  0.00     0.035 A 
HETATM   21  C   UNL     1     -43.188  56.740 -57.345  1.00  0.00     0.042 A 
HETATM   22  C   UNL     1     -43.462  56.936 -58.710  1.00  0.00    -0.021 A 
HETATM   23  C   UNL     1     -43.081  58.147 -59.305  1.00  0.00     0.012 A 
HETATM   24  C   UNL     1     -42.413  59.122 -58.565  1.00  0.00     0.003 A 
HETATM   25  C   UNL     1     -42.110  58.893 -57.225  1.00  0.00     0.029 A 
BRANCH  22  26
HETATM   26  C   UNL     1     -44.074  55.889 -59.518  1.00  0.00     0.010 A 
HETATM   27  C   UNL     1     -44.733  55.954 -60.771  1.00  0.00     0.152 A 
HETATM   28  N   UNL     1     -45.138  54.760 -61.212  1.00  0.00    -0.187 NA
HETATM   29  N   UNL     1     -44.733  53.920 -60.247  1.00  0.00    -0.289 N 
HETATM   30  H   UNL     1     -44.920  52.929 -60.363  1.00  0.00     0.188 HD
HETATM   31  C   UNL     1     -44.099  54.543 -59.213  1.00  0.00     0.123 A 
ENDBRANCH  22  26
ENDBRANCH   2  20
TORSDOF 6
ENDMDL
MODEL 5
REMARK VINA RESULT:      -8.1      1.875      3.676
REMARK  6 active torsions:
REMARK  status: ('A' for Active; 'I' for Inactive)
REMARK    1  A    between atoms: C_3  and  C_4 
REMARK       I    between atoms: C_4  and  N_5 
REMARK    2  A    between atoms: N_5  and  C_6 
REMARK    3  A    between atoms: C_6  and  C_7 
REMARK    4  A    between atoms: C_6  and  C_22 
REMARK       I    between atoms: C_7  and  N_8 
REMARK    5  A    between atoms: N_8  and  C_9 
REMARK    6  A    between atoms: C_11  and  C_12 
ROOT
HETATM    1  C   UNL     1     -42.841  55.404 -56.954  1.00  0.00     0.245 C 
HETATM    2  N   UNL     1     -41.749  55.762 -56.186  1.00  0.00    -0.325 N 
HETATM    3  O   UNL     1     -43.533  54.408 -56.746  1.00  0.00    -0.271 OA
HETATM    4  H   UNL     1     -41.242  56.592 -56.492  1.00  0.00     0.169 HD
ENDROOT
BRANCH   1   5
HETATM    5  C   UNL     1     -43.252  56.487 -58.008  1.00  0.00     0.180 C 
BRANCH   5   6
HETATM    6  N   UNL     1     -42.484  57.752 -57.988  1.00  0.00    -0.343 N 
HETATM    7  C   UNL     1     -43.090  58.985 -58.032  1.00  0.00     0.252 C 
HETATM    8  O   UNL     1     -44.226  59.200 -57.632  1.00  0.00    -0.268 OA
HETATM    9  H   UNL     1     -41.529  57.711 -58.327  1.00  0.00     0.163 HD
BRANCH   7  10
HETATM   10  C   UNL     1     -42.269  60.083 -58.578  1.00  0.00     0.037 A 
HETATM   11  C   UNL     1     -42.340  60.442 -59.937  1.00  0.00    -0.046 A 
HETATM   12  C   UNL     1     -43.230  59.732 -60.916  1.00  0.00     0.049 C 
HETATM   13  C   UNL     1     -41.535  61.500 -60.387  1.00  0.00     0.007 A 
HETATM   14  C   UNL     1     -40.714  62.199 -59.500  1.00  0.00     0.001 A 
HETATM   15  C   UNL     1     -40.678  61.850 -58.150  1.00  0.00     0.001 A 
HETATM   16  C   UNL     1     -41.457  60.793 -57.685  1.00  0.00     0.017 A 
ENDBRANCH   7  10
ENDBRANCH   5   6
BRANCH   5  17
HETATM   17  C   UNL     1     -43.307  55.961 -59.470  1.00  0.00     0.009 C 
HETATM   18  C   UNL     1     -44.616  56.298 -60.191  1.00  0.00     0.012 C 
HETATM   19  C   UNL     1     -42.099  56.388 -60.308  1.00  0.00     0.012 C 
ENDBRANCH   5  17
ENDBRANCH   1   5
BRANCH   2  20
HETATM   20  C   UNL     1     -41.308  55.197 -54.974  1.00  0.00     0.035 A 
HETATM   21  C   UNL     1     -40.860  53.879 -54.847  1.00  0.00     0.042 A 
HETATM   22  C   UNL     1     -40.530  53.343 -53.590  1.00  0.00    -0.021 A 
HETATM   23  C   UNL     1     -40.609  54.174 -52.463  1.00  0.00     0.012 A 
HETATM   24  C   UNL     1     -41.040  55.495 -52.584  1.00  0.00     0.003 A 
HETATM   25  C   UNL     1     -41.404  55.997 -53.832  1.00  0.00     0.029 A 
BRANCH  22  26
HETATM   26  C   UNL     1     -40.170  51.939 -53.435  1.00  0.00     0.010 A 
HETATM   27  C   UNL     1     -40.233  50.862 -54.354  1.00  0.00     0.152 A 
HETATM   28  N   UNL     1     -39.778  49.713 -53.846  1.00  0.00    -0.187 NA
HETATM   29  N   UNL     1     -39.412  50.049 -52.600  1.00  0.00    -0.289 N 
HETATM   30  H   UNL     1     -39.015  49.330 -52.005  1.00  0.00     0.188 HD
HETATM   31  C   UNL     1     -39.630  51.363 -52.304  1.00  0.00     0.123 A 
ENDBRANCH  22  26
ENDBRANCH   2  20
TORSDOF 6
ENDMDL
MODEL 6
REMARK VINA RESULT:      -7.8      5.498      7.715
REMARK  6 active torsions:
REMARK  status: ('A' for Active; 'I' for Inactive)
REMARK    1  A    between atoms: C_3  and  C_4 
REMARK       I    between atoms: C_4  and  N_5 
REMARK    2  A    between atoms: N_5  and  C_6 
REMARK    3  A    between atoms: C_6  and  C_7 
REMARK    4  A    between atoms: C_6  and  C_22 
REMARK       I    between atoms: C_7  and  N_8 
REMARK    5  A    between atoms: N_8  and  C_9 
REMARK    6  A    between atoms: C_11  and  C_12 
ROOT
HETATM    1  C   UNL     1     -42.306  57.921 -51.374  1.00  0.00     0.245 C 
HETATM    2  N   UNL     1     -42.492  56.804 -50.583  1.00  0.00    -0.325 N 
HETATM    3  O   UNL     1     -41.270  58.163 -51.993  1.00  0.00    -0.271 OA
HETATM    4  H   UNL     1     -43.386  56.747 -50.097  1.00  0.00     0.169 HD
ENDROOT
BRANCH   1   5
HETATM    5  C   UNL     1     -43.606  58.771 -51.580  1.00  0.00     0.180 C 
BRANCH   5   6
HETATM    6  N   UNL     1     -43.966  59.700 -50.487  1.00  0.00    -0.343 N 
HETATM    7  C   UNL     1     -45.247  59.801 -49.996  1.00  0.00     0.252 C 
HETATM    8  O   UNL     1     -46.066  58.893 -50.036  1.00  0.00    -0.268 OA
HETATM    9  H   UNL     1     -43.377  60.516 -50.369  1.00  0.00     0.163 HD
BRANCH   7  10
HETATM   10  C   UNL     1     -45.593  61.093 -49.371  1.00  0.00     0.037 A 
HETATM   11  C   UNL     1     -46.285  62.088 -50.085  1.00  0.00    -0.046 A 
HETATM   12  C   UNL     1     -46.698  61.915 -51.520  1.00  0.00     0.049 C 
HETATM   13  C   UNL     1     -46.586  63.289 -49.427  1.00  0.00     0.007 A 
HETATM   14  C   UNL     1     -46.239  63.476 -48.087  1.00  0.00     0.001 A 
HETATM   15  C   UNL     1     -45.582  62.467 -47.384  1.00  0.00     0.001 A 
HETATM   16  C   UNL     1     -45.258  61.272 -48.023  1.00  0.00     0.017 A 
ENDBRANCH   7  10
ENDBRANCH   5   6
BRANCH   5  17
HETATM   17  C   UNL     1     -43.649  59.546 -52.928  1.00  0.00     0.009 C 
HETATM   18  C   UNL     1     -44.980  59.400 -53.673  1.00  0.00     0.012 C 
HETATM   19  C   UNL     1     -43.267  61.021 -52.784  1.00  0.00     0.012 C 
ENDBRANCH   5  17
ENDBRANCH   1   5
BRANCH   2  20
HETATM   20  C   UNL     1     -41.655  55.680 -50.445  1.00  0.00     0.035 A 
HETATM   21  C   UNL     1     -41.310  54.831 -51.500  1.00  0.00     0.042 A 
HETATM   22  C   UNL     1     -40.555  53.667 -51.278  1.00  0.00    -0.021 A 
HETATM   23  C   UNL     1     -40.104  53.396 -49.978  1.00  0.00     0.012 A 
HETATM   24  C   UNL     1     -40.430  54.247 -48.922  1.00  0.00     0.003 A 
HETATM   25  C   UNL     1     -41.217  55.373 -49.153  1.00  0.00     0.029 A 
BRANCH  22  26
HETATM   26  C   UNL     1     -40.287  52.720 -52.353  1.00  0.00     0.010 A 
HETATM   27  C   UNL     1     -40.735  52.698 -53.698  1.00  0.00     0.152 A 
HETATM   28  N   UNL     1     -40.243  51.671 -54.396  1.00  0.00    -0.187 NA
HETATM   29  N   UNL     1     -39.470  51.032 -53.505  1.00  0.00    -0.289 N 
HETATM   30  H   UNL     1     -38.967  50.206 -53.810  1.00  0.00     0.188 HD
HETATM   31  C   UNL     1     -39.466  51.615 -52.272  1.00  0.00     0.123 A 
ENDBRANCH  22  26
ENDBRANCH   2  20
TORSDOF 6
ENDMDL
MODEL 7
REMARK VINA RESULT:      -7.7      2.844      9.244
REMARK  6 active torsions:
REMARK  status: ('A' for Active; 'I' for Inactive)
REMARK    1  A    between atoms: C_3  and  C_4 
REMARK       I    between atoms: C_4  and  N_5 
REMARK    2  A    between atoms: N_5  and  C_6 
REMARK    3  A    between atoms: C_6  and  C_7 
REMARK    4  A    between atoms: C_6  and  C_22 
REMARK       I    between atoms: C_7  and  N_8 
REMARK    5  A    between atoms: N_8  and  C_9 
REMARK    6  A    between atoms: C_11  and  C_12 
ROOT
HETATM    1  C   UNL     1     -42.739  57.602 -55.299  1.00  0.00     0.245 C 
HETATM    2  N   UNL     1     -42.230  56.858 -56.347  1.00  0.00    -0.325 N 
HETATM    3  O   UNL     1     -43.536  58.529 -55.435  1.00  0.00    -0.271 OA
HETATM    4  H   UNL     1     -41.549  56.143 -56.095  1.00  0.00     0.169 HD
ENDROOT
BRANCH   1   5
HETATM    5  C   UNL     1     -42.365  57.037 -53.886  1.00  0.00     0.180 C 
BRANCH   5   6
HETATM    6  N   UNL     1     -41.521  55.822 -53.864  1.00  0.00    -0.343 N 
HETATM    7  C   UNL     1     -42.046  54.561 -53.699  1.00  0.00     0.252 C 
HETATM    8  O   UNL     1     -43.186  54.251 -54.016  1.00  0.00    -0.268 OA
HETATM    9  H   UNL     1     -40.555  55.943 -53.586  1.00  0.00     0.163 HD
BRANCH   7  10
HETATM   10  C   UNL     1     -41.128  53.556 -53.128  1.00  0.00     0.037 A 
HETATM   11  C   UNL     1     -41.007  53.385 -51.737  1.00  0.00    -0.046 A 
HETATM   12  C   UNL     1     -41.778  54.215 -50.749  1.00  0.00     0.049 C 
HETATM   13  C   UNL     1     -40.120  52.407 -51.263  1.00  0.00     0.007 A 
HETATM   14  C   UNL     1     -39.405  51.601 -52.151  1.00  0.00     0.001 A 
HETATM   15  C   UNL     1     -39.561  51.762 -53.528  1.00  0.00     0.001 A 
HETATM   16  C   UNL     1     -40.424  52.739 -54.020  1.00  0.00     0.017 A 
ENDBRANCH   7  10
ENDBRANCH   5   6
BRANCH   5  17
HETATM   17  C   UNL     1     -41.746  58.092 -52.925  1.00  0.00     0.009 C 
HETATM   18  C   UNL     1     -41.952  57.761 -51.443  1.00  0.00     0.012 C 
HETATM   19  C   UNL     1     -40.271  58.377 -53.218  1.00  0.00     0.012 C 
ENDBRANCH   5  17
ENDBRANCH   1   5
BRANCH   2  20
HETATM   20  C   UNL     1     -42.608  56.883 -57.703  1.00  0.00     0.035 A 
HETATM   21  C   UNL     1     -42.496  58.011 -58.522  1.00  0.00     0.042 A 
HETATM   22  C   UNL     1     -42.987  58.002 -59.839  1.00  0.00    -0.021 A 
HETATM   23  C   UNL     1     -43.548  56.819 -60.340  1.00  0.00     0.012 A 
HETATM   24  C   UNL     1     -43.648  55.684 -59.534  1.00  0.00     0.003 A 
HETATM   25  C   UNL     1     -43.197  55.724 -58.216  1.00  0.00     0.029 A 
BRANCH  22  26
HETATM   26  C   UNL     1     -42.974  59.206 -60.661  1.00  0.00     0.010 A 
HETATM   27  C   UNL     1     -44.038  60.019 -61.124  1.00  0.00     0.152 A 
HETATM   28  N   UNL     1     -43.621  61.070 -61.837  1.00  0.00    -0.187 NA
HETATM   29  N   UNL     1     -42.286  60.941 -61.827  1.00  0.00    -0.289 N 
HETATM   30  H   UNL     1     -41.731  61.643 -62.304  1.00  0.00     0.188 HD
HETATM   31  C   UNL     1     -41.850  59.843 -61.144  1.00  0.00     0.123 A 
ENDBRANCH  22  26
ENDBRANCH   2  20
TORSDOF 6
ENDMDL
MODEL 8
REMARK VINA RESULT:      -7.5      2.944      4.668
REMARK  6 active torsions:
REMARK  status: ('A' for Active; 'I' for Inactive)
REMARK    1  A    between atoms: C_3  and  C_4 
REMARK       I    between atoms: C_4  and  N_5 
REMARK    2  A    between atoms: N_5  and  C_6 
REMARK    3  A    between atoms: C_6  and  C_7 
REMARK    4  A    between atoms: C_6  and  C_22 
REMARK       I    between atoms: C_7  and  N_8 
REMARK    5  A    between atoms: N_8  and  C_9 
REMARK    6  A    between atoms: C_11  and  C_12 
ROOT
HETATM    1  C   UNL     1     -41.840  57.479 -51.309  1.00  0.00     0.245 C 
HETATM    2  N   UNL     1     -42.172  56.141 -51.232  1.00  0.00    -0.325 N 
HETATM    3  O   UNL     1     -40.914  57.997 -50.685  1.00  0.00    -0.271 OA
HETATM    4  H   UNL     1     -42.986  55.852 -51.774  1.00  0.00     0.169 HD
ENDROOT
BRANCH   1   5
HETATM    5  C   UNL     1     -42.623  58.260 -52.419  1.00  0.00     0.180 C 
BRANCH   5   6
HETATM    6  N   UNL     1     -42.937  57.511 -53.655  1.00  0.00    -0.343 N 
HETATM    7  C   UNL     1     -41.960  57.001 -54.478  1.00  0.00     0.252 C 
HETATM    8  O   UNL     1     -40.840  56.691 -54.095  1.00  0.00    -0.268 OA
HETATM    9  H   UNL     1     -43.832  57.703 -54.090  1.00  0.00     0.163 HD
BRANCH   7  10
HETATM   10  C   UNL     1     -42.347  56.812 -55.890  1.00  0.00     0.037 A 
HETATM   11  C   UNL     1     -42.806  55.569 -56.361  1.00  0.00    -0.046 A 
HETATM   12  C   UNL     1     -42.915  54.359 -55.477  1.00  0.00     0.049 C 
HETATM   13  C   UNL     1     -43.162  55.462 -57.714  1.00  0.00     0.007 A 
HETATM   14  C   UNL     1     -43.096  56.571 -58.559  1.00  0.00     0.001 A 
HETATM   15  C   UNL     1     -42.669  57.804 -58.069  1.00  0.00     0.001 A 
HETATM   16  C   UNL     1     -42.295  57.929 -56.732  1.00  0.00     0.017 A 
ENDBRANCH   7  10
ENDBRANCH   5   6
BRANCH   5  17
HETATM   17  C   UNL     1     -43.921  58.951 -51.912  1.00  0.00     0.009 C 
HETATM   18  C   UNL     1     -43.656  60.172 -51.025  1.00  0.00     0.012 C 
HETATM   19  C   UNL     1     -44.895  59.300 -53.040  1.00  0.00     0.012 C 
ENDBRANCH   5  17
ENDBRANCH   1   5
BRANCH   2  20
HETATM   20  C   UNL     1     -41.472  55.100 -50.591  1.00  0.00     0.035 A 
HETATM   21  C   UNL     1     -41.043  53.937 -51.237  1.00  0.00     0.042 A 
HETATM   22  C   UNL     1     -40.440  52.889 -50.520  1.00  0.00    -0.021 A 
HETATM   23  C   UNL     1     -40.226  53.053 -49.144  1.00  0.00     0.012 A 
HETATM   24  C   UNL     1     -40.636  54.217 -48.495  1.00  0.00     0.003 A 
HETATM   25  C   UNL     1     -41.273  55.227 -49.213  1.00  0.00     0.029 A 
BRANCH  22  26
HETATM   26  C   UNL     1     -40.092  51.630 -51.167  1.00  0.00     0.010 A 
HETATM   27  C   UNL     1     -39.777  51.341 -52.518  1.00  0.00     0.152 A 
HETATM   28  N   UNL     1     -39.478  50.055 -52.722  1.00  0.00    -0.187 NA
HETATM   29  N   UNL     1     -39.590  49.514 -51.500  1.00  0.00    -0.289 N 
HETATM   30  H   UNL     1     -39.395  48.524 -51.393  1.00  0.00     0.188 HD
HETATM   31  C   UNL     1     -39.959  50.409 -50.539  1.00  0.00     0.123 A 
ENDBRANCH  22  26
ENDBRANCH   2  20
TORSDOF 6
ENDMDL
MODEL 9
REMARK VINA RESULT:      -7.5      1.639      2.132
REMARK  6 active torsions:
REMARK  status: ('A' for Active; 'I' for Inactive)
REMARK    1  A    between atoms: C_3  and  C_4 
REMARK       I    between atoms: C_4  and  N_5 
REMARK    2  A    between atoms: N_5  and  C_6 
REMARK    3  A    between atoms: C_6  and  C_7 
REMARK    4  A    between atoms: C_6  and  C_22 
REMARK       I    between atoms: C_7  and  N_8 
REMARK    5  A    between atoms: N_8  and  C_9 
REMARK    6  A    between atoms: C_11  and  C_12 
ROOT
HETATM    1  C   UNL     1     -42.845  55.463 -57.112  1.00  0.00     0.245 C 
HETATM    2  N   UNL     1     -41.777  55.835 -56.318  1.00  0.00    -0.325 N 
HETATM    3  O   UNL     1     -43.554  54.480 -56.897  1.00  0.00    -0.271 OA
HETATM    4  H   UNL     1     -41.252  56.650 -56.633  1.00  0.00     0.169 HD
ENDROOT
BRANCH   1   5
HETATM    5  C   UNL     1     -43.209  56.516 -58.213  1.00  0.00     0.180 C 
BRANCH   5   6
HETATM    6  N   UNL     1     -44.419  57.333 -57.971  1.00  0.00    -0.343 N 
HETATM    7  C   UNL     1     -45.485  57.349 -58.839  1.00  0.00     0.252 C 
HETATM    8  O   UNL     1     -45.769  56.422 -59.586  1.00  0.00    -0.268 OA
HETATM    9  H   UNL     1     -44.306  58.153 -57.386  1.00  0.00     0.163 HD
BRANCH   7  10
HETATM   10  C   UNL     1     -46.316  58.568 -58.809  1.00  0.00     0.037 A 
HETATM   11  C   UNL     1     -46.075  59.639 -59.690  1.00  0.00    -0.046 A 
HETATM   12  C   UNL     1     -44.958  59.623 -60.695  1.00  0.00     0.049 C 
HETATM   13  C   UNL     1     -46.908  60.764 -59.610  1.00  0.00     0.007 A 
HETATM   14  C   UNL     1     -47.970  60.804 -58.705  1.00  0.00     0.001 A 
HETATM   15  C   UNL     1     -48.215  59.722 -57.860  1.00  0.00     0.001 A 
HETATM   16  C   UNL     1     -47.390  58.600 -57.911  1.00  0.00     0.017 A 
ENDBRANCH   7  10
ENDBRANCH   5   6
BRANCH   5  17
HETATM   17  C   UNL     1     -42.037  57.464 -58.595  1.00  0.00     0.009 C 
HETATM   18  C   UNL     1     -41.759  57.514 -60.101  1.00  0.00     0.012 C 
HETATM   19  C   UNL     1     -42.196  58.876 -58.025  1.00  0.00     0.012 C 
ENDBRANCH   5  17
ENDBRANCH   1   5
BRANCH   2  20
HETATM   20  C   UNL     1     -41.384  55.304 -55.075  1.00  0.00     0.035 A 
HETATM   21  C   UNL     1     -40.884  54.010 -54.903  1.00  0.00     0.042 A 
HETATM   22  C   UNL     1     -40.605  53.504 -53.621  1.00  0.00    -0.021 A 
HETATM   23  C   UNL     1     -40.789  54.343 -52.513  1.00  0.00     0.012 A 
HETATM   24  C   UNL     1     -41.272  55.641 -52.678  1.00  0.00     0.003 A 
HETATM   25  C   UNL     1     -41.585  56.112 -53.951  1.00  0.00     0.029 A 
BRANCH  22  26
HETATM   26  C   UNL     1     -40.191  52.121 -53.426  1.00  0.00     0.010 A 
HETATM   27  C   UNL     1     -39.644  51.471 -52.292  1.00  0.00     0.152 A 
HETATM   28  N   UNL     1     -39.419  50.169 -52.492  1.00  0.00    -0.187 NA
HETATM   29  N   UNL     1     -39.828  49.975 -53.755  1.00  0.00    -0.289 N 
HETATM   30  H   UNL     1     -39.767  49.039 -54.142  1.00  0.00     0.188 HD
HETATM   31  C   UNL     1     -40.293  51.107 -54.357  1.00  0.00     0.123 A 
ENDBRANCH  22  26
ENDBRANCH   2  20
TORSDOF 6
ENDMDL
MODEL 10
REMARK VINA RESULT:      -7.4      1.887      2.626
REMARK  6 active torsions:
REMARK  status: ('A' for Active; 'I' for Inactive)
REMARK    1  A    between atoms: C_3  and  C_4 
REMARK       I    between atoms: C_4  and  N_5 
REMARK    2  A    between atoms: N_5  and  C_6 
REMARK    3  A    between atoms: C_6  and  C_7 
REMARK    4  A    between atoms: C_6  and  C_22 
REMARK       I    between atoms: C_7  and  N_8 
REMARK    5  A    between atoms: N_8  and  C_9 
REMARK    6  A    between atoms: C_11  and  C_12 
ROOT
HETATM    1  C   UNL     1     -43.238  55.742 -54.185  1.00  0.00     0.245 C 
HETATM    2  N   UNL     1     -41.959  55.820 -53.668  1.00  0.00    -0.325 N 
HETATM    3  O   UNL     1     -43.927  54.723 -54.169  1.00  0.00    -0.271 OA
HETATM    4  H   UNL     1     -41.487  56.716 -53.782  1.00  0.00     0.169 HD
ENDROOT
BRANCH   1   5
HETATM    5  C   UNL     1     -43.825  57.126 -54.626  1.00  0.00     0.180 C 
BRANCH   5   6
HETATM    6  N   UNL     1     -44.685  57.124 -55.830  1.00  0.00    -0.343 N 
HETATM    7  C   UNL     1     -44.288  57.686 -57.021  1.00  0.00     0.252 C 
HETATM    8  O   UNL     1     -43.120  57.803 -57.363  1.00  0.00    -0.268 OA
HETATM    9  H   UNL     1     -45.684  57.062 -55.676  1.00  0.00     0.163 HD
BRANCH   7  10
HETATM   10  C   UNL     1     -45.378  58.131 -57.912  1.00  0.00     0.037 A 
HETATM   11  C   UNL     1     -45.662  57.455 -59.112  1.00  0.00    -0.046 A 
HETATM   12  C   UNL     1     -44.876  56.259 -59.573  1.00  0.00     0.049 C 
HETATM   13  C   UNL     1     -46.715  57.929 -59.909  1.00  0.00     0.007 A 
HETATM   14  C   UNL     1     -47.482  59.022 -59.501  1.00  0.00     0.001 A 
HETATM   15  C   UNL     1     -47.207  59.663 -58.293  1.00  0.00     0.001 A 
HETATM   16  C   UNL     1     -46.155  59.218 -57.494  1.00  0.00     0.017 A 
ENDBRANCH   7  10
ENDBRANCH   5   6
BRANCH   5  17
HETATM   17  C   UNL     1     -44.560  57.894 -53.490  1.00  0.00     0.009 C 
HETATM   18  C   UNL     1     -44.311  57.306 -52.097  1.00  0.00     0.012 C 
HETATM   19  C   UNL     1     -44.278  59.398 -53.503  1.00  0.00     0.012 C 
ENDBRANCH   5  17
ENDBRANCH   1   5
BRANCH   2  20
HETATM   20  C   UNL     1     -41.262  54.861 -52.909  1.00  0.00     0.035 A 
HETATM   21  C   UNL     1     -40.852  53.620 -53.406  1.00  0.00     0.042 A 
HETATM   22  C   UNL     1     -40.251  52.665 -52.568  1.00  0.00    -0.021 A 
HETATM   23  C   UNL     1     -40.019  52.999 -51.227  1.00  0.00     0.012 A 
HETATM   24  C   UNL     1     -40.410  54.241 -50.726  1.00  0.00     0.003 A 
HETATM   25  C   UNL     1     -41.044  55.159 -51.560  1.00  0.00     0.029 A 
BRANCH  22  26
HETATM   26  C   UNL     1     -39.924  51.331 -53.054  1.00  0.00     0.010 A 
HETATM   27  C   UNL     1     -39.550  50.158 -52.352  1.00  0.00     0.152 A 
HETATM   28  N   UNL     1     -39.358  49.106 -53.154  1.00  0.00    -0.187 NA
HETATM   29  N   UNL     1     -39.616  49.598 -54.375  1.00  0.00    -0.289 N 
HETATM   30  H   UNL     1     -39.547  48.971 -55.170  1.00  0.00     0.188 HD
HETATM   31  C   UNL     1     -39.953  50.919 -54.371  1.00  0.00     0.123 A 
ENDBRANCH  22  26
ENDBRANCH   2  20
TORSDOF 6
ENDMDL
