MODEL 1
REMARK VINA RESULT:      -9.0      0.000      0.000
REMARK  4 active torsions:
REMARK  status: ('A' for Active; 'I' for Inactive)
REMARK    1  A    between atoms: C_4  and  N_5 
REMARK    2  A    between atoms: N_5  and  C_6 
REMARK    3  A    between atoms: C_8  and  C_9 
REMARK    4  A    between atoms: C_23  and  O_24 
ROOT
HETATM    1  C   UNL     1     -41.604  55.686 -55.178  1.00  0.00     0.722 A 
HETATM    2  N   UNL     1     -41.215  54.469 -54.933  1.00  0.00    -0.063 NA
HETATM    3  C   UNL     1     -40.855  54.139 -53.644  1.00  0.00     0.091 A 
HETATM    4  C   UNL     1     -40.913  54.996 -52.615  1.00  0.00     0.108 A 
HETATM    5  C   UNL     1     -41.348  56.369 -52.886  1.00  0.00     0.261 A 
HETATM    6  O   UNL     1     -41.413  57.205 -51.993  1.00  0.00    -0.268 OA
HETATM    7  N   UNL     1     -41.663  56.622 -54.182  1.00  0.00    -0.154 N 
HETATM    8  H   UNL     1     -41.970  57.559 -54.422  1.00  0.00     0.187 HD
ENDROOT
BRANCH   1   9
HETATM    9  N   UNL     1     -41.961  56.030 -56.443  1.00  0.00    -0.017 N 
HETATM   10  H   UNL     1     -41.349  55.762 -57.197  1.00  0.00     0.203 HD
BRANCH   9  11
HETATM   11  C   UNL     1     -43.070  56.735 -56.879  1.00  0.00     0.742 A 
HETATM   12  N   UNL     1     -43.689  57.596 -56.059  1.00  0.00    -0.066 NA
HETATM   13  C   UNL     1     -44.758  58.266 -56.540  1.00  0.00     0.062 A 
HETATM   14  C   UNL     1     -45.400  59.220 -55.572  1.00  0.00     0.072 C 
HETATM   15  C   UNL     1     -45.239  58.092 -57.842  1.00  0.00     0.021 A 
HETATM   16  C   UNL     1     -44.537  57.162 -58.622  1.00  0.00     0.121 A 
HETATM   17  C   UNL     1     -46.353  58.778 -58.380  1.00  0.00     0.016 A 
HETATM   18  N   UNL     1     -43.467  56.501 -58.132  1.00  0.00    -0.059 NA
HETATM   19  C   UNL     1     -44.986  56.927 -59.935  1.00  0.00     0.098 A 
HETATM   20  C   UNL     1     -46.082  57.623 -60.467  1.00  0.00     0.039 A 
HETATM   21  C   UNL     1     -46.766  58.547 -59.687  1.00  0.00     0.004 A 
BRANCH  19  22
HETATM   22  O   UNL     1     -44.262  56.007 -60.663  1.00  0.00    -0.354 OA
HETATM   23  C   UNL     1     -44.967  54.866 -61.137  1.00  0.00     0.210 C 
ENDBRANCH  19  22
ENDBRANCH   9  11
ENDBRANCH   1   9
BRANCH   3  24
HETATM   24  C   UNL     1     -40.421  52.740 -53.398  1.00  0.00    -0.006 A 
HETATM   25  C   UNL     1     -40.481  51.799 -54.441  1.00  0.00     0.017 A 
HETATM   26  C   UNL     1     -40.075  50.477 -54.240  1.00  0.00     0.043 A 
HETATM   27  C   UNL     1     -39.599  50.090 -52.994  1.00  0.00     0.116 A 
HETATM   28  F   UNL     1     -39.210  48.823 -52.798  1.00  0.00    -0.206 F 
HETATM   29  C   UNL     1     -39.513  51.001 -51.949  1.00  0.00     0.043 A 
HETATM   30  C   UNL     1     -39.917  52.324 -52.151  1.00  0.00     0.017 A 
ENDBRANCH   3  24
TORSDOF 4
ENDMDL
MODEL 2
REMARK VINA RESULT:      -9.0      2.095      3.202
REMARK  4 active torsions:
REMARK  status: ('A' for Active; 'I' for Inactive)
REMARK    1  A    between atoms: C_4  and  N_5 
REMARK    2  A    between atoms: N_5  and  C_6 
REMARK    3  A    between atoms: C_8  and  C_9 
REMARK    4  A    between atoms: C_23  and  O_24 
ROOT
HETATM    1  C   UNL     1     -42.680  55.514 -54.537  1.00  0.00     0.722 A 
HETATM    2  N   UNL     1     -42.141  54.337 -54.406  1.00  0.00    -0.063 NA
HETATM    3  C   UNL     1     -41.286  54.119 -53.348  1.00  0.00     0.091 A 
HETATM    4  C   UNL     1     -41.000  55.044 -52.421  1.00  0.00     0.108 A 
HETATM    5  C   UNL     1     -41.602  56.372 -52.566  1.00  0.00     0.261 A 
HETATM    6  O   UNL     1     -41.374  57.267 -51.761  1.00  0.00    -0.268 OA
HETATM    7  N   UNL     1     -42.414  56.517 -53.644  1.00  0.00    -0.154 N 
HETATM    8  H   UNL     1     -42.856  57.418 -53.790  1.00  0.00     0.187 HD
ENDROOT
BRANCH   1   9
HETATM    9  N   UNL     1     -43.525  55.749 -55.575  1.00  0.00    -0.017 N 
HETATM   10  H   UNL     1     -44.464  55.389 -55.512  1.00  0.00     0.203 HD
BRANCH   9  11
HETATM   11  C   UNL     1     -43.288  56.418 -56.764  1.00  0.00     0.742 A 
HETATM   12  N   UNL     1     -43.583  55.837 -57.936  1.00  0.00    -0.066 NA
HETATM   13  C   UNL     1     -43.343  56.538 -59.065  1.00  0.00     0.062 A 
HETATM   14  C   UNL     1     -43.701  55.832 -60.342  1.00  0.00     0.072 C 
HETATM   15  C   UNL     1     -42.802  57.828 -59.054  1.00  0.00     0.021 A 
HETATM   16  C   UNL     1     -42.514  58.349 -57.784  1.00  0.00     0.121 A 
HETATM   17  C   UNL     1     -42.541  58.594 -60.215  1.00  0.00     0.016 A 
HETATM   18  N   UNL     1     -42.762  57.640 -56.663  1.00  0.00    -0.059 NA
HETATM   19  C   UNL     1     -41.949  59.636 -57.710  1.00  0.00     0.098 A 
HETATM   20  C   UNL     1     -41.707  60.395 -58.864  1.00  0.00     0.039 A 
HETATM   21  C   UNL     1     -42.002  59.872 -60.117  1.00  0.00     0.004 A 
BRANCH  19  22
HETATM   22  O   UNL     1     -41.686  60.105 -56.440  1.00  0.00    -0.354 OA
HETATM   23  C   UNL     1     -42.573  61.089 -55.923  1.00  0.00     0.210 C 
ENDBRANCH  19  22
ENDBRANCH   9  11
ENDBRANCH   1   9
BRANCH   3  24
HETATM   24  C   UNL     1     -40.692  52.763 -53.224  1.00  0.00    -0.006 A 
HETATM   25  C   UNL     1     -40.680  51.905 -54.338  1.00  0.00     0.017 A 
HETATM   26  C   UNL     1     -40.124  50.626 -54.252  1.00  0.00     0.043 A 
HETATM   27  C   UNL     1     -39.568  50.200 -53.053  1.00  0.00     0.116 A 
HETATM   28  F   UNL     1     -39.035  48.974 -52.969  1.00  0.00    -0.206 F 
HETATM   29  C   UNL     1     -39.551  51.032 -51.941  1.00  0.00     0.043 A 
HETATM   30  C   UNL     1     -40.105  52.312 -52.027  1.00  0.00     0.017 A 
ENDBRANCH   3  24
TORSDOF 4
ENDMDL
MODEL 3
REMARK VINA RESULT:      -8.9      1.975      2.170
REMARK  4 active torsions:
REMARK  status: ('A' for Active; 'I' for Inactive)
REMARK    1  A    between atoms: C_4  and  N_5 
REMARK    2  A    between atoms: N_5  and  C_6 
REMARK    3  A    between atoms: C_8  and  C_9 
REMARK    4  A    between atoms: C_23  and  O_24 
ROOT
HETATM    1  C   UNL     1     -42.621  56.055 -53.415  1.00  0.00     0.722 A 
HETATM    2  N   UNL     1     -42.100  54.876 -53.588  1.00  0.00    -0.063 NA
HETATM    3  C   UNL     1     -41.273  54.370 -52.608  1.00  0.00     0.091 A 
HETATM    4  C   UNL     1     -40.997  55.012 -51.465  1.00  0.00     0.108 A 
HETATM    5  C   UNL     1     -41.579  56.343 -51.266  1.00  0.00     0.261 A 
HETATM    6  O   UNL     1     -41.359  56.989 -50.248  1.00  0.00    -0.268 OA
HETATM    7  N   UNL     1     -42.363  56.781 -52.284  1.00  0.00    -0.154 N 
HETATM    8  H   UNL     1     -42.789  57.697 -52.195  1.00  0.00     0.187 HD
ENDROOT
BRANCH   1   9
HETATM    9  N   UNL     1     -43.437  56.571 -54.370  1.00  0.00    -0.017 N 
HETATM   10  H   UNL     1     -44.432  56.461 -54.253  1.00  0.00     0.203 HD
BRANCH   9  11
HETATM   11  C   UNL     1     -43.108  57.239 -55.537  1.00  0.00     0.742 A 
HETATM   12  N   UNL     1     -42.742  58.528 -55.498  1.00  0.00    -0.066 NA
HETATM   13  C   UNL     1     -42.419  59.127 -56.664  1.00  0.00     0.062 A 
HETATM   14  C   UNL     1     -42.012  60.569 -56.549  1.00  0.00     0.072 C 
HETATM   15  C   UNL     1     -42.458  58.461 -57.894  1.00  0.00     0.021 A 
HETATM   16  C   UNL     1     -42.864  57.120 -57.838  1.00  0.00     0.121 A 
HETATM   17  C   UNL     1     -42.123  59.055 -59.134  1.00  0.00     0.016 A 
HETATM   18  N   UNL     1     -43.180  56.531 -56.667  1.00  0.00    -0.059 NA
HETATM   19  C   UNL     1     -42.943  56.403 -59.047  1.00  0.00     0.098 A 
HETATM   20  C   UNL     1     -42.595  56.994 -60.271  1.00  0.00     0.039 A 
HETATM   21  C   UNL     1     -42.187  58.321 -60.313  1.00  0.00     0.004 A 
BRANCH  19  22
HETATM   22  O   UNL     1     -43.345  55.088 -58.941  1.00  0.00    -0.354 OA
HETATM   23  C   UNL     1     -44.451  54.689 -59.740  1.00  0.00     0.210 C 
ENDBRANCH  19  22
ENDBRANCH   9  11
ENDBRANCH   1   9
BRANCH   3  24
HETATM   24  C   UNL     1     -40.700  53.019 -52.836  1.00  0.00    -0.006 A 
HETATM   25  C   UNL     1     -40.822  52.415 -54.100  1.00  0.00     0.017 A 
HETATM   26  C   UNL     1     -40.288  51.146 -54.344  1.00  0.00     0.043 A 
HETATM   27  C   UNL     1     -39.622  50.477 -53.326  1.00  0.00     0.116 A 
HETATM   28  F   UNL     1     -39.110  49.261 -53.558  1.00  0.00    -0.206 F 
HETATM   29  C   UNL     1     -39.471  51.055 -52.072  1.00  0.00     0.043 A 
HETATM   30  C   UNL     1     -40.003  52.325 -51.829  1.00  0.00     0.017 A 
ENDBRANCH   3  24
TORSDOF 4
ENDMDL
MODEL 4
REMARK VINA RESULT:      -8.9      2.938      4.206
REMARK  4 active torsions:
REMARK  status: ('A' for Active; 'I' for Inactive)
REMARK    1  A    between atoms: C_4  and  N_5 
REMARK    2  A    between atoms: N_5  and  C_6 
REMARK    3  A    between atoms: C_8  and  C_9 
REMARK    4  A    between atoms: C_23  and  O_24 
ROOT
HETATM    1  C   UNL     1     -41.095  55.652 -50.447  1.00  0.00     0.722 A 
HETATM    2  N   UNL     1     -40.855  54.758 -51.362  1.00  0.00    -0.063 NA
HETATM    3  C   UNL     1     -40.542  53.476 -50.964  1.00  0.00     0.091 A 
HETATM    4  C   UNL     1     -40.502  53.085 -49.682  1.00  0.00     0.108 A 
HETATM    5  C   UNL     1     -40.769  54.089 -48.649  1.00  0.00     0.261 A 
HETATM    6  O   UNL     1     -40.738  53.802 -47.458  1.00  0.00    -0.268 OA
HETATM    7  N   UNL     1     -41.047  55.332 -49.118  1.00  0.00    -0.154 N 
HETATM    8  H   UNL     1     -41.239  56.064 -48.442  1.00  0.00     0.187 HD
ENDROOT
BRANCH   1   9
HETATM    9  N   UNL     1     -41.404  56.921 -50.820  1.00  0.00    -0.017 N 
HETATM   10  H   UNL     1     -40.880  57.676 -50.408  1.00  0.00     0.203 HD
BRANCH   9  11
HETATM   11  C   UNL     1     -42.376  57.364 -51.701  1.00  0.00     0.742 A 
HETATM   12  N   UNL     1     -43.386  58.131 -51.264  1.00  0.00    -0.066 NA
HETATM   13  C   UNL     1     -44.299  58.545 -52.167  1.00  0.00     0.062 A 
HETATM   14  C   UNL     1     -45.400  59.405 -51.613  1.00  0.00     0.072 C 
HETATM   15  C   UNL     1     -44.233  58.203 -53.522  1.00  0.00     0.021 A 
HETATM   16  C   UNL     1     -43.151  57.389 -53.885  1.00  0.00     0.121 A 
HETATM   17  C   UNL     1     -45.169  58.622 -54.498  1.00  0.00     0.016 A 
HETATM   18  N   UNL     1     -42.242  56.985 -52.974  1.00  0.00    -0.059 NA
HETATM   19  C   UNL     1     -43.042  56.994 -55.231  1.00  0.00     0.098 A 
HETATM   20  C   UNL     1     -43.966  57.425 -56.195  1.00  0.00     0.039 A 
HETATM   21  C   UNL     1     -45.030  58.237 -55.826  1.00  0.00     0.004 A 
BRANCH  19  22
HETATM   22  O   UNL     1     -41.960  56.196 -55.539  1.00  0.00    -0.354 OA
HETATM   23  C   UNL     1     -42.244  54.908 -56.070  1.00  0.00     0.210 C 
ENDBRANCH  19  22
ENDBRANCH   9  11
ENDBRANCH   1   9
BRANCH   3  24
HETATM   24  C   UNL     1     -40.279  52.479 -52.033  1.00  0.00    -0.006 A 
HETATM   25  C   UNL     1     -40.558  52.805 -53.372  1.00  0.00     0.017 A 
HETATM   26  C   UNL     1     -40.315  51.889 -54.399  1.00  0.00     0.043 A 
HETATM   27  C   UNL     1     -39.785  50.643 -54.093  1.00  0.00     0.116 A 
HETATM   28  F   UNL     1     -39.553  49.763 -55.076  1.00  0.00    -0.206 F 
HETATM   29  C   UNL     1     -39.484  50.298 -52.782  1.00  0.00     0.043 A 
HETATM   30  C   UNL     1     -39.725  51.216 -51.755  1.00  0.00     0.017 A 
ENDBRANCH   3  24
TORSDOF 4
ENDMDL
MODEL 5
REMARK VINA RESULT:      -8.5      5.364      6.364
REMARK  4 active torsions:
REMARK  status: ('A' for Active; 'I' for Inactive)
REMARK    1  A    between atoms: C_4  and  N_5 
REMARK    2  A    between atoms: N_5  and  C_6 
REMARK    3  A    between atoms: C_8  and  C_9 
REMARK    4  A    between atoms: C_23  and  O_24 
ROOT
HETATM    1  C   UNL     1     -41.923  55.241 -50.858  1.00  0.00     0.722 A 
HETATM    2  N   UNL     1     -41.540  54.304 -51.676  1.00  0.00    -0.063 NA
HETATM    3  C   UNL     1     -40.798  53.256 -51.175  1.00  0.00     0.091 A 
HETATM    4  C   UNL     1     -40.474  53.127 -49.880  1.00  0.00     0.108 A 
HETATM    5  C   UNL     1     -40.901  54.182 -48.956  1.00  0.00     0.261 A 
HETATM    6  O   UNL     1     -40.629  54.133 -47.763  1.00  0.00    -0.268 OA
HETATM    7  N   UNL     1     -41.607  55.191 -49.528  1.00  0.00    -0.154 N 
HETATM    8  H   UNL     1     -41.926  55.946 -48.931  1.00  0.00     0.187 HD
ENDROOT
BRANCH   1   9
HETATM    9  N   UNL     1     -42.654  56.283 -51.334  1.00  0.00    -0.017 N 
HETATM   10  H   UNL     1     -43.424  56.079 -51.951  1.00  0.00     0.203 HD
BRANCH   9  11
HETATM   11  C   UNL     1     -42.494  57.640 -51.111  1.00  0.00     0.742 A 
HETATM   12  N   UNL     1     -41.298  58.129 -50.753  1.00  0.00    -0.066 NA
HETATM   13  C   UNL     1     -41.195  59.462 -50.560  1.00  0.00     0.062 A 
HETATM   14  C   UNL     1     -39.827  59.945 -50.168  1.00  0.00     0.072 C 
HETATM   15  C   UNL     1     -42.277  60.335 -50.712  1.00  0.00     0.021 A 
HETATM   16  C   UNL     1     -43.490  59.732 -51.075  1.00  0.00     0.121 A 
HETATM   17  C   UNL     1     -42.205  61.736 -50.522  1.00  0.00     0.016 A 
HETATM   18  N   UNL     1     -43.580  58.400 -51.269  1.00  0.00    -0.059 NA
HETATM   19  C   UNL     1     -44.620  60.557 -51.223  1.00  0.00     0.098 A 
HETATM   20  C   UNL     1     -44.538  61.947 -51.047  1.00  0.00     0.039 A 
HETATM   21  C   UNL     1     -43.330  62.534 -50.695  1.00  0.00     0.004 A 
BRANCH  19  22
HETATM   22  O   UNL     1     -45.788  59.919 -51.583  1.00  0.00    -0.354 OA
HETATM   23  C   UNL     1     -46.832  60.734 -52.101  1.00  0.00     0.210 C 
ENDBRANCH  19  22
ENDBRANCH   9  11
ENDBRANCH   1   9
BRANCH   3  24
HETATM   24  C   UNL     1     -40.381  52.201 -52.133  1.00  0.00    -0.006 A 
HETATM   25  C   UNL     1     -40.511  52.426 -53.515  1.00  0.00     0.017 A 
HETATM   26  C   UNL     1     -40.122  51.453 -54.440  1.00  0.00     0.043 A 
HETATM   27  C   UNL     1     -39.594  50.252 -53.988  1.00  0.00     0.116 A 
HETATM   28  F   UNL     1     -39.222  49.317 -54.873  1.00  0.00    -0.206 F 
HETATM   29  C   UNL     1     -39.439  50.007 -52.630  1.00  0.00     0.043 A 
HETATM   30  C   UNL     1     -39.825  50.981 -51.704  1.00  0.00     0.017 A 
ENDBRANCH   3  24
TORSDOF 4
ENDMDL
MODEL 6
REMARK VINA RESULT:      -8.5      4.079      6.013
REMARK  4 active torsions:
REMARK  status: ('A' for Active; 'I' for Inactive)
REMARK    1  A    between atoms: C_4  and  N_5 
REMARK    2  A    between atoms: N_5  and  C_6 
REMARK    3  A    between atoms: C_8  and  C_9 
REMARK    4  A    between atoms: C_23  and  O_24 
ROOT
HETATM    1  C   UNL     1     -41.215  56.490 -51.216  1.00  0.00     0.722 A 
HETATM    2  N   UNL     1     -40.968  55.468 -51.983  1.00  0.00    -0.063 NA
HETATM    3  C   UNL     1     -40.764  54.238 -51.396  1.00  0.00     0.091 A 
HETATM    4  C   UNL     1     -40.836  54.025 -50.074  1.00  0.00     0.108 A 
HETATM    5  C   UNL     1     -41.111  55.174 -49.207  1.00  0.00     0.261 A 
HETATM    6  O   UNL     1     -41.179  55.051 -47.989  1.00  0.00    -0.268 OA
HETATM    7  N   UNL     1     -41.278  56.354 -49.856  1.00  0.00    -0.154 N 
HETATM    8  H   UNL     1     -41.471  57.180 -49.300  1.00  0.00     0.187 HD
ENDROOT
BRANCH   1   9
HETATM    9  N   UNL     1     -41.419  57.711 -51.777  1.00  0.00    -0.017 N 
HETATM   10  H   UNL     1     -40.610  58.263 -52.016  1.00  0.00     0.203 HD
BRANCH   9  11
HETATM   11  C   UNL     1     -42.609  58.353 -52.071  1.00  0.00     0.742 A 
HETATM   12  N   UNL     1     -43.247  58.100 -53.223  1.00  0.00    -0.066 NA
HETATM   13  C   UNL     1     -44.411  58.744 -53.453  1.00  0.00     0.062 A 
HETATM   14  C   UNL     1     -45.077  58.411 -54.758  1.00  0.00     0.072 C 
HETATM   15  C   UNL     1     -44.964  59.657 -52.548  1.00  0.00     0.021 A 
HETATM   16  C   UNL     1     -44.221  59.867 -51.378  1.00  0.00     0.121 A 
HETATM   17  C   UNL     1     -46.182  60.347 -52.753  1.00  0.00     0.016 A 
HETATM   18  N   UNL     1     -43.061  59.214 -51.156  1.00  0.00    -0.059 NA
HETATM   19  C   UNL     1     -44.716  60.790 -50.437  1.00  0.00     0.098 A 
HETATM   20  C   UNL     1     -45.931  61.459 -50.641  1.00  0.00     0.039 A 
HETATM   21  C   UNL     1     -46.663  61.238 -51.801  1.00  0.00     0.004 A 
BRANCH  19  22
HETATM   22  O   UNL     1     -43.952  60.961 -49.302  1.00  0.00    -0.354 OA
HETATM   23  C   UNL     1     -44.620  61.449 -48.146  1.00  0.00     0.210 C 
ENDBRANCH  19  22
ENDBRANCH   9  11
ENDBRANCH   1   9
BRANCH   3  24
HETATM   24  C   UNL     1     -40.490  53.092 -52.300  1.00  0.00    -0.006 A 
HETATM   25  C   UNL     1     -40.916  53.144 -53.639  1.00  0.00     0.017 A 
HETATM   26  C   UNL     1     -40.668  52.083 -54.513  1.00  0.00     0.043 A 
HETATM   27  C   UNL     1     -39.984  50.965 -54.055  1.00  0.00     0.116 A 
HETATM   28  F   UNL     1     -39.746  49.946 -54.891  1.00  0.00    -0.206 F 
HETATM   29  C   UNL     1     -39.536  50.891 -52.742  1.00  0.00     0.043 A 
HETATM   30  C   UNL     1     -39.782  51.955 -51.868  1.00  0.00     0.017 A 
ENDBRANCH   3  24
TORSDOF 4
ENDMDL
MODEL 7
REMARK VINA RESULT:      -8.5      3.271      8.372
REMARK  4 active torsions:
REMARK  status: ('A' for Active; 'I' for Inactive)
REMARK    1  A    between atoms: C_4  and  N_5 
REMARK    2  A    between atoms: N_5  and  C_6 
REMARK    3  A    between atoms: C_8  and  C_9 
REMARK    4  A    between atoms: C_23  and  O_24 
ROOT
HETATM    1  C   UNL     1     -42.315  56.649 -56.271  1.00  0.00     0.722 A 
HETATM    2  N   UNL     1     -43.158  56.393 -57.229  1.00  0.00    -0.063 NA
HETATM    3  C   UNL     1     -44.037  57.382 -57.614  1.00  0.00     0.091 A 
HETATM    4  C   UNL     1     -44.053  58.611 -57.078  1.00  0.00     0.108 A 
HETATM    5  C   UNL     1     -43.108  58.903 -55.997  1.00  0.00     0.261 A 
HETATM    6  O   UNL     1     -43.077  60.002 -55.455  1.00  0.00    -0.268 OA
HETATM    7  N   UNL     1     -42.291  57.872 -55.659  1.00  0.00    -0.154 N 
HETATM    8  H   UNL     1     -41.618  58.023 -54.915  1.00  0.00     0.187 HD
ENDROOT
BRANCH   1   9
HETATM    9  N   UNL     1     -41.441  55.686 -55.877  1.00  0.00    -0.017 N 
HETATM   10  H   UNL     1     -40.869  55.249 -56.581  1.00  0.00     0.203 HD
BRANCH   9  11
HETATM   11  C   UNL     1     -41.213  55.175 -54.611  1.00  0.00     0.742 A 
HETATM   12  N   UNL     1     -41.447  55.928 -53.526  1.00  0.00    -0.066 NA
HETATM   13  C   UNL     1     -41.219  55.376 -52.315  1.00  0.00     0.062 A 
HETATM   14  C   UNL     1     -41.507  56.271 -51.142  1.00  0.00     0.072 C 
HETATM   15  C   UNL     1     -40.749  54.068 -52.155  1.00  0.00     0.021 A 
HETATM   16  C   UNL     1     -40.521  53.362 -53.344  1.00  0.00     0.121 A 
HETATM   17  C   UNL     1     -40.503  53.456 -50.903  1.00  0.00     0.016 A 
HETATM   18  N   UNL     1     -40.756  53.922 -54.548  1.00  0.00    -0.059 NA
HETATM   19  C   UNL     1     -40.028  52.047 -53.248  1.00  0.00     0.098 A 
HETATM   20  C   UNL     1     -39.800  51.442 -52.003  1.00  0.00     0.039 A 
HETATM   21  C   UNL     1     -40.036  52.149 -50.831  1.00  0.00     0.004 A 
BRANCH  19  22
HETATM   22  O   UNL     1     -39.821  51.393 -54.444  1.00  0.00    -0.354 OA
HETATM   23  C   UNL     1     -39.828  49.971 -54.408  1.00  0.00     0.210 C 
ENDBRANCH  19  22
ENDBRANCH   9  11
ENDBRANCH   1   9
BRANCH   3  24
HETATM   24  C   UNL     1     -44.982  57.060 -58.713  1.00  0.00    -0.006 A 
HETATM   25  C   UNL     1     -44.678  56.018 -59.609  1.00  0.00     0.017 A 
HETATM   26  C   UNL     1     -45.551  55.690 -60.649  1.00  0.00     0.043 A 
HETATM   27  C   UNL     1     -46.737  56.396 -60.796  1.00  0.00     0.116 A 
HETATM   28  F   UNL     1     -47.574  56.083 -61.794  1.00  0.00    -0.206 F 
HETATM   29  C   UNL     1     -47.072  57.419 -59.918  1.00  0.00     0.043 A 
HETATM   30  C   UNL     1     -46.200  57.746 -58.875  1.00  0.00     0.017 A 
ENDBRANCH   3  24
TORSDOF 4
ENDMDL
MODEL 8
REMARK VINA RESULT:      -8.2      2.898      3.777
REMARK  4 active torsions:
REMARK  status: ('A' for Active; 'I' for Inactive)
REMARK    1  A    between atoms: C_4  and  N_5 
REMARK    2  A    between atoms: N_5  and  C_6 
REMARK    3  A    between atoms: C_8  and  C_9 
REMARK    4  A    between atoms: C_23  and  O_24 
ROOT
HETATM    1  C   UNL     1     -42.409  57.470 -53.280  1.00  0.00     0.722 A 
HETATM    2  N   UNL     1     -41.725  56.374 -53.127  1.00  0.00    -0.063 NA
HETATM    3  C   UNL     1     -42.114  55.486 -52.148  1.00  0.00     0.091 A 
HETATM    4  C   UNL     1     -43.181  55.671 -51.358  1.00  0.00     0.108 A 
HETATM    5  C   UNL     1     -43.953  56.906 -51.524  1.00  0.00     0.261 A 
HETATM    6  O   UNL     1     -44.933  57.144 -50.828  1.00  0.00    -0.268 OA
HETATM    7  N   UNL     1     -43.496  57.740 -52.492  1.00  0.00    -0.154 N 
HETATM    8  H   UNL     1     -43.995  58.609 -52.647  1.00  0.00     0.187 HD
ENDROOT
BRANCH   1   9
HETATM    9  N   UNL     1     -42.041  58.359 -54.240  1.00  0.00    -0.017 N 
HETATM   10  H   UNL     1     -41.619  59.225 -53.946  1.00  0.00     0.203 HD
BRANCH   9  11
HETATM   11  C   UNL     1     -42.172  58.267 -55.615  1.00  0.00     0.742 A 
HETATM   12  N   UNL     1     -42.620  57.135 -56.177  1.00  0.00    -0.066 NA
HETATM   13  C   UNL     1     -42.741  57.105 -57.521  1.00  0.00     0.062 A 
HETATM   14  C   UNL     1     -43.253  55.810 -58.086  1.00  0.00     0.072 C 
HETATM   15  C   UNL     1     -42.416  58.194 -58.336  1.00  0.00     0.021 A 
HETATM   16  C   UNL     1     -41.945  59.330 -57.661  1.00  0.00     0.121 A 
HETATM   17  C   UNL     1     -42.534  58.200 -59.746  1.00  0.00     0.016 A 
HETATM   18  N   UNL     1     -41.832  59.350 -56.317  1.00  0.00    -0.059 NA
HETATM   19  C   UNL     1     -41.582  60.452 -58.429  1.00  0.00     0.098 A 
HETATM   20  C   UNL     1     -41.715  60.455 -59.826  1.00  0.00     0.039 A 
HETATM   21  C   UNL     1     -42.190  59.327 -60.483  1.00  0.00     0.004 A 
BRANCH  19  22
HETATM   22  O   UNL     1     -41.127  61.544 -57.721  1.00  0.00    -0.354 OA
HETATM   23  C   UNL     1     -40.924  62.745 -58.454  1.00  0.00     0.210 C 
ENDBRANCH  19  22
ENDBRANCH   9  11
ENDBRANCH   1   9
BRANCH   3  24
HETATM   24  C   UNL     1     -41.315  54.242 -52.004  1.00  0.00    -0.006 A 
HETATM   25  C   UNL     1     -40.888  53.553 -53.153  1.00  0.00     0.017 A 
HETATM   26  C   UNL     1     -40.131  52.383 -53.048  1.00  0.00     0.043 A 
HETATM   27  C   UNL     1     -39.790  51.899 -51.792  1.00  0.00     0.116 A 
HETATM   28  F   UNL     1     -39.065  50.777 -51.689  1.00  0.00    -0.206 F 
HETATM   29  C   UNL     1     -40.184  52.567 -50.639  1.00  0.00     0.043 A 
HETATM   30  C   UNL     1     -40.939  53.739 -50.745  1.00  0.00     0.017 A 
ENDBRANCH   3  24
TORSDOF 4
ENDMDL
MODEL 9
REMARK VINA RESULT:      -8.2      1.948      2.631
REMARK  4 active torsions:
REMARK  status: ('A' for Active; 'I' for Inactive)
REMARK    1  A    between atoms: C_4  and  N_5 
REMARK    2  A    between atoms: N_5  and  C_6 
REMARK    3  A    between atoms: C_8  and  C_9 
REMARK    4  A    between atoms: C_23  and  O_24 
ROOT
HETATM    1  C   UNL     1     -43.202  55.805 -52.819  1.00  0.00     0.722 A 
HETATM    2  N   UNL     1     -42.613  54.686 -53.126  1.00  0.00    -0.063 NA
HETATM    3  C   UNL     1     -41.473  54.331 -52.436  1.00  0.00     0.091 A 
HETATM    4  C   UNL     1     -40.951  55.060 -51.439  1.00  0.00     0.108 A 
HETATM    5  C   UNL     1     -41.611  56.322 -51.092  1.00  0.00     0.261 A 
HETATM    6  O   UNL     1     -41.180  57.042 -50.199  1.00  0.00    -0.268 OA
HETATM    7  N   UNL     1     -42.712  56.614 -51.830  1.00  0.00    -0.154 N 
HETATM    8  H   UNL     1     -43.204  57.477 -51.629  1.00  0.00     0.187 HD
ENDROOT
BRANCH   1   9
HETATM    9  N   UNL     1     -44.326  56.172 -53.489  1.00  0.00    -0.017 N 
HETATM   10  H   UNL     1     -45.075  55.502 -53.559  1.00  0.00     0.203 HD
BRANCH   9  11
HETATM   11  C   UNL     1     -44.613  57.363 -54.132  1.00  0.00     0.742 A 
HETATM   12  N   UNL     1     -44.967  58.445 -53.424  1.00  0.00    -0.066 NA
HETATM   13  C   UNL     1     -45.223  59.585 -54.101  1.00  0.00     0.062 A 
HETATM   14  C   UNL     1     -45.608  60.761 -53.247  1.00  0.00     0.072 C 
HETATM   15  C   UNL     1     -45.139  59.674 -55.494  1.00  0.00     0.021 A 
HETATM   16  C   UNL     1     -44.775  58.490 -56.151  1.00  0.00     0.121 A 
HETATM   17  C   UNL     1     -45.396  60.851 -56.237  1.00  0.00     0.016 A 
HETATM   18  N   UNL     1     -44.516  57.358 -55.464  1.00  0.00    -0.059 NA
HETATM   19  C   UNL     1     -44.693  58.511 -57.556  1.00  0.00     0.098 A 
HETATM   20  C   UNL     1     -44.936  59.685 -58.284  1.00  0.00     0.039 A 
HETATM   21  C   UNL     1     -45.289  60.854 -57.622  1.00  0.00     0.004 A 
BRANCH  19  22
HETATM   22  O   UNL     1     -44.329  57.323 -58.155  1.00  0.00    -0.354 OA
HETATM   23  C   UNL     1     -43.090  57.311 -58.853  1.00  0.00     0.210 C 
ENDBRANCH  19  22
ENDBRANCH   9  11
ENDBRANCH   1   9
BRANCH   3  24
HETATM   24  C   UNL     1     -40.828  53.046 -52.807  1.00  0.00    -0.006 A 
HETATM   25  C   UNL     1     -40.077  52.343 -51.848  1.00  0.00     0.017 A 
HETATM   26  C   UNL     1     -39.463  51.129 -52.168  1.00  0.00     0.043 A 
HETATM   27  C   UNL     1     -39.603  50.607 -53.447  1.00  0.00     0.116 A 
HETATM   28  F   UNL     1     -39.013  49.444 -53.756  1.00  0.00    -0.206 F 
HETATM   29  C   UNL     1     -40.351  51.271 -54.410  1.00  0.00     0.043 A 
HETATM   30  C   UNL     1     -40.968  52.484 -54.089  1.00  0.00     0.017 A 
ENDBRANCH   3  24
TORSDOF 4
ENDMDL
MODEL 10
REMARK VINA RESULT:      -8.1     14.983     16.795
REMARK  4 active torsions:
REMARK  status: ('A' for Active; 'I' for Inactive)
REMARK    1  A    between atoms: C_4  and  N_5 
REMARK    2  A    between atoms: N_5  and  C_6 
REMARK    3  A    between atoms: C_8  and  C_9 
REMARK    4  A    between atoms: C_23  and  O_24 
ROOT
HETATM    1  C   UNL     1     -36.512  41.769 -54.677  1.00  0.00     0.722 A 
HETATM    2  N   UNL     1     -35.452  41.474 -53.983  1.00  0.00    -0.063 NA
HETATM    3  C   UNL     1     -35.617  40.983 -52.705  1.00  0.00     0.091 A 
HETATM    4  C   UNL     1     -36.814  40.761 -52.143  1.00  0.00     0.108 A 
HETATM    5  C   UNL     1     -38.011  41.095 -52.921  1.00  0.00     0.261 A 
HETATM    6  O   UNL     1     -39.135  40.927 -52.463  1.00  0.00    -0.268 OA
HETATM    7  N   UNL     1     -37.767  41.593 -54.159  1.00  0.00    -0.154 N 
HETATM    8  H   UNL     1     -38.563  41.840 -54.738  1.00  0.00     0.187 HD
ENDROOT
BRANCH   1   9
HETATM    9  N   UNL     1     -36.370  42.255 -55.938  1.00  0.00    -0.017 N 
HETATM   10  H   UNL     1     -35.933  43.155 -56.051  1.00  0.00     0.203 HD
BRANCH   9  11
HETATM   11  C   UNL     1     -36.759  41.694 -57.142  1.00  0.00     0.742 A 
HETATM   12  N   UNL     1     -36.897  42.463 -58.232  1.00  0.00    -0.066 NA
HETATM   13  C   UNL     1     -37.267  41.863 -59.384  1.00  0.00     0.062 A 
HETATM   14  C   UNL     1     -37.396  42.779 -60.567  1.00  0.00     0.072 C 
HETATM   15  C   UNL     1     -37.514  40.489 -59.476  1.00  0.00     0.021 A 
HETATM   16  C   UNL     1     -37.357  39.768 -58.284  1.00  0.00     0.121 A 
HETATM   17  C   UNL     1     -37.899  39.825 -60.665  1.00  0.00     0.016 A 
HETATM   18  N   UNL     1     -36.983  40.378 -57.140  1.00  0.00    -0.059 NA
HETATM   19  C   UNL     1     -37.611  38.384 -58.309  1.00  0.00     0.098 A 
HETATM   20  C   UNL     1     -37.979  37.731 -59.495  1.00  0.00     0.039 A 
HETATM   21  C   UNL     1     -38.124  38.453 -60.672  1.00  0.00     0.004 A 
BRANCH  19  22
HETATM   22  O   UNL     1     -37.442  37.719 -57.113  1.00  0.00    -0.354 OA
HETATM   23  C   UNL     1     -36.327  36.841 -57.019  1.00  0.00     0.210 C 
ENDBRANCH  19  22
ENDBRANCH   9  11
ENDBRANCH   1   9
BRANCH   3  24
HETATM   24  C   UNL     1     -34.387  40.651 -51.942  1.00  0.00    -0.006 A 
HETATM   25  C   UNL     1     -34.457  40.485 -50.547  1.00  0.00     0.017 A 
HETATM   26  C   UNL     1     -33.317  40.167 -49.804  1.00  0.00     0.043 A 
HETATM   27  C   UNL     1     -32.100  40.007 -50.453  1.00  0.00     0.116 A 
HETATM   28  F   UNL     1     -31.005  39.705 -49.742  1.00  0.00    -0.206 F 
HETATM   29  C   UNL     1     -32.002  40.150 -51.831  1.00  0.00     0.043 A 
HETATM   30  C   UNL     1     -33.144  40.465 -52.575  1.00  0.00     0.017 A 
ENDBRANCH   3  24
TORSDOF 4
ENDMDL
