MODEL 1
REMARK VINA RESULT:      -8.6      0.000      0.000
REMARK  6 active torsions:
REMARK  status: ('A' for Active; 'I' for Inactive)
REMARK    1  A    between atoms: C_2  and  N_3 
REMARK    2  A    between atoms: C_2  and  C_15 
REMARK    3  A    between atoms: C_5  and  C_6 
REMARK       I    between atoms: C_15  and  N_16 
REMARK    4  A    between atoms: N_16  and  C_17 
REMARK    5  A    between atoms: C_20  and  O_21 
REMARK    6  A    between atoms: O_21  and  C_22 
ROOT
HETATM    1  C   UNL     1     -43.440  57.894 -51.618  1.00  0.00     0.253 C 
HETATM    2  N   UNL     1     -43.188  57.052 -50.552  1.00  0.00    -0.325 N 
HETATM    3  O   UNL     1     -42.914  57.809 -52.727  1.00  0.00    -0.271 OA
HETATM    4  H   UNL     1     -43.585  57.265 -49.645  1.00  0.00     0.169 HD
ENDROOT
BRANCH   1   5
HETATM    5  C   UNL     1     -44.593  58.921 -51.441  1.00  0.00     0.276 C 
HETATM    6  C   UNL     1     -45.089  59.620 -52.703  1.00  0.00     0.050 C 
BRANCH   5   7
HETATM    7  N   UNL     1     -44.284  59.988 -50.369  1.00  0.00    -0.049 N 
HETATM    8  H   UNL     1     -44.383  59.521 -49.461  1.00  0.00     0.281 HD
HETATM    9  C   UNL     1     -45.213  61.191 -50.349  1.00  0.00     0.238 C 
HETATM   10  C   UNL     1     -44.383  62.306 -50.968  1.00  0.00     0.041 C 
HETATM   11  C   UNL     1     -42.977  62.036 -50.477  1.00  0.00     0.030 C 
HETATM   12  C   UNL     1     -42.858  60.525 -50.440  1.00  0.00     0.237 C 
BRANCH   9  13
HETATM   13  C   UNL     1     -45.655  61.508 -48.948  1.00  0.00     0.042 A 
HETATM   14  N   UNL     1     -46.652  62.425 -48.661  1.00  0.00    -0.363 N 
HETATM   15  C   UNL     1     -47.395  63.237 -49.605  1.00  0.00     0.155 C 
HETATM   16  C   UNL     1     -46.830  62.507 -47.304  1.00  0.00     0.090 A 
HETATM   17  C   UNL     1     -45.934  61.662 -46.697  1.00  0.00     0.019 A 
HETATM   18  C   UNL     1     -45.189  61.042 -47.723  1.00  0.00     0.028 A 
ENDBRANCH   9  13
ENDBRANCH   5   7
ENDBRANCH   1   5
BRANCH   2  19
HETATM   19  C   UNL     1     -42.338  55.918 -50.554  1.00  0.00     0.035 A 
HETATM   20  C   UNL     1     -41.008  55.933 -50.126  1.00  0.00     0.032 A 
HETATM   21  C   UNL     1     -40.225  54.776 -50.198  1.00  0.00     0.039 A 
HETATM   22  C   UNL     1     -40.761  53.590 -50.689  1.00  0.00     0.076 A 
HETATM   23  C   UNL     1     -42.083  53.564 -51.131  1.00  0.00     0.039 A 
HETATM   24  C   UNL     1     -42.869  54.721 -51.053  1.00  0.00     0.032 A 
BRANCH  22  25
HETATM   25  O   UNL     1     -39.892  52.529 -50.782  1.00  0.00    -0.311 OA
BRANCH  25  26
HETATM   26  C   UNL     1     -39.851  51.815 -51.954  1.00  0.00     0.076 A 
HETATM   27  C   UNL     1     -39.641  50.439 -51.851  1.00  0.00     0.037 A 
HETATM   28  C   UNL     1     -39.640  49.649 -53.001  1.00  0.00     0.003 A 
HETATM   29  C   UNL     1     -39.864  50.234 -54.247  1.00  0.00     0.000 A 
HETATM   30  C   UNL     1     -40.099  51.606 -54.346  1.00  0.00     0.003 A 
HETATM   31  C   UNL     1     -40.103  52.399 -53.198  1.00  0.00     0.037 A 
ENDBRANCH  25  26
ENDBRANCH  22  25
ENDBRANCH   2  19
TORSDOF 6
ENDMDL
MODEL 2
REMARK VINA RESULT:      -8.6      5.019      7.636
REMARK  6 active torsions:
REMARK  status: ('A' for Active; 'I' for Inactive)
REMARK    1  A    between atoms: C_2  and  N_3 
REMARK    2  A    between atoms: C_2  and  C_15 
REMARK    3  A    between atoms: C_5  and  C_6 
REMARK       I    between atoms: C_15  and  N_16 
REMARK    4  A    between atoms: N_16  and  C_17 
REMARK    5  A    between atoms: C_20  and  O_21 
REMARK    6  A    between atoms: O_21  and  C_22 
ROOT
HETATM    1  C   UNL     1     -44.043  57.906 -55.250  1.00  0.00     0.253 C 
HETATM    2  N   UNL     1     -43.532  56.675 -55.616  1.00  0.00    -0.325 N 
HETATM    3  O   UNL     1     -43.919  58.421 -54.139  1.00  0.00    -0.271 OA
HETATM    4  H   UNL     1     -43.778  56.283 -56.517  1.00  0.00     0.169 HD
ENDROOT
BRANCH   1   5
HETATM    5  C   UNL     1     -44.679  58.764 -56.378  1.00  0.00     0.276 C 
HETATM    6  C   UNL     1     -45.513  59.964 -55.941  1.00  0.00     0.050 C 
BRANCH   5   7
HETATM    7  N   UNL     1     -45.504  57.922 -57.375  1.00  0.00    -0.049 N 
HETATM    8  H   UNL     1     -45.367  56.941 -57.107  1.00  0.00     0.281 HD
HETATM    9  C   UNL     1     -45.096  58.041 -58.834  1.00  0.00     0.238 C 
HETATM   10  C   UNL     1     -46.183  58.908 -59.452  1.00  0.00     0.041 C 
HETATM   11  C   UNL     1     -47.445  58.488 -58.728  1.00  0.00     0.030 C 
HETATM   12  C   UNL     1     -47.003  58.196 -57.306  1.00  0.00     0.237 C 
BRANCH   9  13
HETATM   13  C   UNL     1     -45.000  56.686 -59.480  1.00  0.00     0.042 A 
HETATM   14  N   UNL     1     -43.841  55.929 -59.477  1.00  0.00    -0.363 N 
HETATM   15  C   UNL     1     -42.556  56.295 -58.912  1.00  0.00     0.155 C 
HETATM   16  C   UNL     1     -44.055  54.751 -60.145  1.00  0.00     0.090 A 
HETATM   17  C   UNL     1     -45.348  54.743 -60.607  1.00  0.00     0.019 A 
HETATM   18  C   UNL     1     -45.940  55.958 -60.201  1.00  0.00     0.028 A 
ENDBRANCH   9  13
ENDBRANCH   5   7
ENDBRANCH   1   5
BRANCH   2  19
HETATM   19  C   UNL     1     -42.735  55.819 -54.816  1.00  0.00     0.035 A 
HETATM   20  C   UNL     1     -43.216  55.092 -53.724  1.00  0.00     0.032 A 
HETATM   21  C   UNL     1     -42.351  54.300 -52.962  1.00  0.00     0.039 A 
HETATM   22  C   UNL     1     -41.000  54.215 -53.286  1.00  0.00     0.076 A 
HETATM   23  C   UNL     1     -40.505  54.945 -54.366  1.00  0.00     0.039 A 
HETATM   24  C   UNL     1     -41.372  55.734 -55.133  1.00  0.00     0.032 A 
BRANCH  22  25
HETATM   25  O   UNL     1     -40.223  53.464 -52.436  1.00  0.00    -0.311 OA
BRANCH  25  26
HETATM   26  C   UNL     1     -39.988  52.148 -52.752  1.00  0.00     0.076 A 
HETATM   27  C   UNL     1     -39.658  51.293 -51.700  1.00  0.00     0.037 A 
HETATM   28  C   UNL     1     -39.457  49.935 -51.947  1.00  0.00     0.003 A 
HETATM   29  C   UNL     1     -39.602  49.433 -53.240  1.00  0.00     0.000 A 
HETATM   30  C   UNL     1     -39.958  50.285 -54.287  1.00  0.00     0.003 A 
HETATM   31  C   UNL     1     -40.161  51.645 -54.044  1.00  0.00     0.037 A 
ENDBRANCH  25  26
ENDBRANCH  22  25
ENDBRANCH   2  19
TORSDOF 6
ENDMDL
MODEL 3
REMARK VINA RESULT:      -8.4      4.550      6.549
REMARK  6 active torsions:
REMARK  status: ('A' for Active; 'I' for Inactive)
REMARK    1  A    between atoms: C_2  and  N_3 
REMARK    2  A    between atoms: C_2  and  C_15 
REMARK    3  A    between atoms: C_5  and  C_6 
REMARK       I    between atoms: C_15  and  N_16 
REMARK    4  A    between atoms: N_16  and  C_17 
REMARK    5  A    between atoms: C_20  and  O_21 
REMARK    6  A    between atoms: O_21  and  C_22 
ROOT
HETATM    1  C   UNL     1     -43.103  56.191 -57.143  1.00  0.00     0.253 C 
HETATM    2  N   UNL     1     -43.247  55.014 -56.433  1.00  0.00    -0.325 N 
HETATM    3  O   UNL     1     -42.301  57.085 -56.876  1.00  0.00    -0.271 OA
HETATM    4  H   UNL     1     -44.008  54.386 -56.661  1.00  0.00     0.169 HD
ENDROOT
BRANCH   1   5
HETATM    5  C   UNL     1     -43.907  56.312 -58.467  1.00  0.00     0.276 C 
HETATM    6  C   UNL     1     -43.167  55.965 -59.755  1.00  0.00     0.050 C 
BRANCH   5   7
HETATM    7  N   UNL     1     -44.577  57.693 -58.636  1.00  0.00    -0.049 N 
HETATM    8  H   UNL     1     -43.817  58.367 -58.778  1.00  0.00     0.281 HD
HETATM    9  C   UNL     1     -45.383  58.185 -57.445  1.00  0.00     0.238 C 
HETATM   10  C   UNL     1     -46.831  57.997 -57.878  1.00  0.00     0.041 C 
HETATM   11  C   UNL     1     -46.816  58.310 -59.359  1.00  0.00     0.030 C 
HETATM   12  C   UNL     1     -45.485  57.782 -59.859  1.00  0.00     0.237 C 
BRANCH   9  13
HETATM   13  C   UNL     1     -45.057  59.617 -57.126  1.00  0.00     0.042 A 
HETATM   14  N   UNL     1     -44.967  60.100 -55.831  1.00  0.00    -0.363 N 
HETATM   15  C   UNL     1     -45.196  59.365 -54.603  1.00  0.00     0.155 C 
HETATM   16  C   UNL     1     -44.663  61.437 -55.856  1.00  0.00     0.090 A 
HETATM   17  C   UNL     1     -44.576  61.838 -57.166  1.00  0.00     0.019 A 
HETATM   18  C   UNL     1     -44.831  60.704 -57.965  1.00  0.00     0.028 A 
ENDBRANCH   9  13
ENDBRANCH   5   7
ENDBRANCH   1   5
BRANCH   2  19
HETATM   19  C   UNL     1     -42.470  54.597 -55.323  1.00  0.00     0.035 A 
HETATM   20  C   UNL     1     -42.976  54.425 -54.032  1.00  0.00     0.032 A 
HETATM   21  C   UNL     1     -42.132  54.048 -52.983  1.00  0.00     0.039 A 
HETATM   22  C   UNL     1     -40.777  53.830 -53.210  1.00  0.00     0.076 A 
HETATM   23  C   UNL     1     -40.257  54.010 -54.491  1.00  0.00     0.039 A 
HETATM   24  C   UNL     1     -41.103  54.381 -55.543  1.00  0.00     0.032 A 
BRANCH  22  25
HETATM   25  O   UNL     1     -40.021  53.529 -52.101  1.00  0.00    -0.311 OA
BRANCH  25  26
HETATM   26  C   UNL     1     -39.920  52.216 -51.713  1.00  0.00     0.076 A 
HETATM   27  C   UNL     1     -40.313  51.908 -50.409  1.00  0.00     0.037 A 
HETATM   28  C   UNL     1     -40.284  50.585 -49.969  1.00  0.00     0.003 A 
HETATM   29  C   UNL     1     -39.877  49.572 -50.837  1.00  0.00     0.000 A 
HETATM   30  C   UNL     1     -39.509  49.877 -52.148  1.00  0.00     0.003 A 
HETATM   31  C   UNL     1     -39.538  51.200 -52.593  1.00  0.00     0.037 A 
ENDBRANCH  25  26
ENDBRANCH  22  25
ENDBRANCH   2  19
TORSDOF 6
ENDMDL
MODEL 4
REMARK VINA RESULT:      -8.3      1.876      2.503
REMARK  6 active torsions:
REMARK  status: ('A' for Active; 'I' for Inactive)
REMARK    1  A    between atoms: C_2  and  N_3 
REMARK    2  A    between atoms: C_2  and  C_15 
REMARK    3  A    between atoms: C_5  and  C_6 
REMARK       I    between atoms: C_15  and  N_16 
REMARK    4  A    between atoms: N_16  and  C_17 
REMARK    5  A    between atoms: C_20  and  O_21 
REMARK    6  A    between atoms: O_21  and  C_22 
ROOT
HETATM    1  C   UNL     1     -44.985  57.959 -51.456  1.00  0.00     0.253 C 
HETATM    2  N   UNL     1     -44.402  57.989 -52.709  1.00  0.00    -0.325 N 
HETATM    3  O   UNL     1     -44.834  57.063 -50.626  1.00  0.00    -0.271 OA
HETATM    4  H   UNL     1     -44.671  58.712 -53.365  1.00  0.00     0.169 HD
ENDROOT
BRANCH   1   5
HETATM    5  C   UNL     1     -45.757  59.232 -51.012  1.00  0.00     0.276 C 
HETATM    6  C   UNL     1     -46.241  60.163 -52.120  1.00  0.00     0.050 C 
BRANCH   5   7
HETATM    7  N   UNL     1     -44.985  60.064 -49.965  1.00  0.00    -0.049 N 
HETATM    8  H   UNL     1     -44.923  59.482 -49.123  1.00  0.00     0.281 HD
HETATM    9  C   UNL     1     -45.639  61.372 -49.549  1.00  0.00     0.238 C 
HETATM   10  C   UNL     1     -44.814  62.437 -50.257  1.00  0.00     0.041 C 
HETATM   11  C   UNL     1     -43.402  61.893 -50.223  1.00  0.00     0.030 C 
HETATM   12  C   UNL     1     -43.555  60.393 -50.385  1.00  0.00     0.237 C 
BRANCH   9  13
HETATM   13  C   UNL     1     -45.628  61.529 -48.054  1.00  0.00     0.042 A 
HETATM   14  N   UNL     1     -46.544  62.312 -47.372  1.00  0.00    -0.363 N 
HETATM   15  C   UNL     1     -47.608  63.116 -47.941  1.00  0.00     0.155 C 
HETATM   16  C   UNL     1     -46.280  62.267 -46.027  1.00  0.00     0.090 A 
HETATM   17  C   UNL     1     -45.178  61.473 -45.827  1.00  0.00     0.019 A 
HETATM   18  C   UNL     1     -44.760  61.017 -47.095  1.00  0.00     0.028 A 
ENDBRANCH   9  13
ENDBRANCH   5   7
ENDBRANCH   1   5
BRANCH   2  19
HETATM   19  C   UNL     1     -43.491  57.042 -53.239  1.00  0.00     0.035 A 
HETATM   20  C   UNL     1     -43.861  55.792 -53.740  1.00  0.00     0.032 A 
HETATM   21  C   UNL     1     -42.892  54.899 -54.211  1.00  0.00     0.039 A 
HETATM   22  C   UNL     1     -41.545  55.246 -54.195  1.00  0.00     0.076 A 
HETATM   23  C   UNL     1     -41.161  56.486 -53.686  1.00  0.00     0.039 A 
HETATM   24  C   UNL     1     -42.131  57.383 -53.220  1.00  0.00     0.032 A 
BRANCH  22  25
HETATM   25  O   UNL     1     -40.668  54.274 -54.615  1.00  0.00    -0.311 OA
BRANCH  25  26
HETATM   26  C   UNL     1     -40.387  53.233 -53.766  1.00  0.00     0.076 A 
HETATM   27  C   UNL     1     -40.116  51.994 -54.350  1.00  0.00     0.037 A 
HETATM   28  C   UNL     1     -39.774  50.907 -53.546  1.00  0.00     0.003 A 
HETATM   29  C   UNL     1     -39.686  51.065 -52.163  1.00  0.00     0.000 A 
HETATM   30  C   UNL     1     -39.931  52.311 -51.582  1.00  0.00     0.003 A 
HETATM   31  C   UNL     1     -40.273  53.400 -52.383  1.00  0.00     0.037 A 
ENDBRANCH  25  26
ENDBRANCH  22  25
ENDBRANCH   2  19
TORSDOF 6
ENDMDL
MODEL 5
REMARK VINA RESULT:      -8.1      6.220      7.767
REMARK  6 active torsions:
REMARK  status: ('A' for Active; 'I' for Inactive)
REMARK    1  A    between atoms: C_2  and  N_3 
REMARK    2  A    between atoms: C_2  and  C_15 
REMARK    3  A    between atoms: C_5  and  C_6 
REMARK       I    between atoms: C_15  and  N_16 
REMARK    4  A    between atoms: N_16  and  C_17 
REMARK    5  A    between atoms: C_20  and  O_21 
REMARK    6  A    between atoms: O_21  and  C_22 
ROOT
HETATM    1  C   UNL     1     -43.540  56.207 -58.223  1.00  0.00     0.253 C 
HETATM    2  N   UNL     1     -43.795  56.142 -56.866  1.00  0.00    -0.325 N 
HETATM    3  O   UNL     1     -42.487  55.871 -58.762  1.00  0.00    -0.271 OA
HETATM    4  H   UNL     1     -44.650  56.543 -56.500  1.00  0.00     0.169 HD
ENDROOT
BRANCH   1   5
HETATM    5  C   UNL     1     -44.735  56.584 -59.142  1.00  0.00     0.276 C 
HETATM    6  C   UNL     1     -44.992  55.677 -60.341  1.00  0.00     0.050 C 
BRANCH   5   7
HETATM    7  N   UNL     1     -44.677  58.048 -59.628  1.00  0.00    -0.049 N 
HETATM    8  H   UNL     1     -44.147  58.039 -60.507  1.00  0.00     0.281 HD
HETATM    9  C   UNL     1     -43.974  59.024 -58.700  1.00  0.00     0.238 C 
HETATM   10  C   UNL     1     -45.112  59.814 -58.068  1.00  0.00     0.041 C 
HETATM   11  C   UNL     1     -46.132  59.945 -59.178  1.00  0.00     0.030 C 
HETATM   12  C   UNL     1     -46.049  58.638 -59.944  1.00  0.00     0.237 C 
BRANCH   9  13
HETATM   13  C   UNL     1     -43.016  59.898 -59.460  1.00  0.00     0.042 A 
HETATM   14  N   UNL     1     -42.098  60.729 -58.840  1.00  0.00    -0.363 N 
HETATM   15  C   UNL     1     -41.921  60.931 -57.415  1.00  0.00     0.155 C 
HETATM   16  C   UNL     1     -41.371  61.403 -59.786  1.00  0.00     0.090 A 
HETATM   17  C   UNL     1     -41.825  61.034 -61.028  1.00  0.00     0.019 A 
HETATM   18  C   UNL     1     -42.862  60.099 -60.828  1.00  0.00     0.028 A 
ENDBRANCH   9  13
ENDBRANCH   5   7
ENDBRANCH   1   5
BRANCH   2  19
HETATM   19  C   UNL     1     -42.930  55.628 -55.868  1.00  0.00     0.035 A 
HETATM   20  C   UNL     1     -41.660  56.140 -55.592  1.00  0.00     0.032 A 
HETATM   21  C   UNL     1     -40.852  55.547 -54.615  1.00  0.00     0.039 A 
HETATM   22  C   UNL     1     -41.306  54.445 -53.897  1.00  0.00     0.076 A 
HETATM   23  C   UNL     1     -42.566  53.917 -54.171  1.00  0.00     0.039 A 
HETATM   24  C   UNL     1     -43.378  54.513 -55.145  1.00  0.00     0.032 A 
BRANCH  22  25
HETATM   25  O   UNL     1     -40.412  53.896 -53.007  1.00  0.00    -0.311 OA
BRANCH  25  26
HETATM   26  C   UNL     1     -40.130  52.556 -53.104  1.00  0.00     0.076 A 
HETATM   27  C   UNL     1     -39.794  51.892 -51.923  1.00  0.00     0.037 A 
HETATM   28  C   UNL     1     -39.546  50.520 -51.944  1.00  0.00     0.003 A 
HETATM   29  C   UNL     1     -39.651  49.812 -53.142  1.00  0.00     0.000 A 
HETATM   30  C   UNL     1     -40.013  50.472 -54.317  1.00  0.00     0.003 A 
HETATM   31  C   UNL     1     -40.262  51.845 -54.300  1.00  0.00     0.037 A 
ENDBRANCH  25  26
ENDBRANCH  22  25
ENDBRANCH   2  19
TORSDOF 6
ENDMDL
MODEL 6
REMARK VINA RESULT:      -8.0      4.706      8.467
REMARK  6 active torsions:
REMARK  status: ('A' for Active; 'I' for Inactive)
REMARK    1  A    between atoms: C_2  and  N_3 
REMARK    2  A    between atoms: C_2  and  C_15 
REMARK    3  A    between atoms: C_5  and  C_6 
REMARK       I    between atoms: C_15  and  N_16 
REMARK    4  A    between atoms: N_16  and  C_17 
REMARK    5  A    between atoms: C_20  and  O_21 
REMARK    6  A    between atoms: O_21  and  C_22 
ROOT
HETATM    1  C   UNL     1     -42.671  58.075 -52.732  1.00  0.00     0.253 C 
HETATM    2  N   UNL     1     -41.776  58.163 -53.782  1.00  0.00    -0.325 N 
HETATM    3  O   UNL     1     -43.896  58.095 -52.844  1.00  0.00    -0.271 OA
HETATM    4  H   UNL     1     -40.786  58.249 -53.586  1.00  0.00     0.169 HD
ENDROOT
BRANCH   1   5
HETATM    5  C   UNL     1     -42.077  57.767 -51.330  1.00  0.00     0.276 C 
HETATM    6  C   UNL     1     -41.038  58.748 -50.794  1.00  0.00     0.050 C 
BRANCH   5   7
HETATM    7  N   UNL     1     -41.511  56.335 -51.222  1.00  0.00    -0.049 N 
HETATM    8  H   UNL     1     -40.712  56.291 -51.864  1.00  0.00     0.281 HD
HETATM    9  C   UNL     1     -42.460  55.218 -51.624  1.00  0.00     0.238 C 
HETATM   10  C   UNL     1     -42.887  54.603 -50.299  1.00  0.00     0.041 C 
HETATM   11  C   UNL     1     -41.646  54.689 -49.435  1.00  0.00     0.030 C 
HETATM   12  C   UNL     1     -40.982  55.994 -49.831  1.00  0.00     0.237 C 
BRANCH   9  13
HETATM   13  C   UNL     1     -41.778  54.229 -52.527  1.00  0.00     0.042 A 
HETATM   14  N   UNL     1     -42.293  53.849 -53.756  1.00  0.00    -0.363 N 
HETATM   15  C   UNL     1     -43.540  54.283 -54.355  1.00  0.00     0.155 C 
HETATM   16  C   UNL     1     -41.459  52.934 -54.345  1.00  0.00     0.090 A 
HETATM   17  C   UNL     1     -40.408  52.695 -53.495  1.00  0.00     0.019 A 
HETATM   18  C   UNL     1     -40.609  53.496 -52.351  1.00  0.00     0.028 A 
ENDBRANCH   9  13
ENDBRANCH   5   7
ENDBRANCH   1   5
BRANCH   2  19
HETATM   19  C   UNL     1     -42.096  58.230 -55.161  1.00  0.00     0.035 A 
HETATM   20  C   UNL     1     -42.379  59.415 -55.844  1.00  0.00     0.032 A 
HETATM   21  C   UNL     1     -42.724  59.389 -57.200  1.00  0.00     0.039 A 
HETATM   22  C   UNL     1     -42.782  58.183 -57.891  1.00  0.00     0.076 A 
HETATM   23  C   UNL     1     -42.513  56.991 -57.218  1.00  0.00     0.039 A 
HETATM   24  C   UNL     1     -42.162  57.017 -55.862  1.00  0.00     0.032 A 
BRANCH  22  25
HETATM   25  O   UNL     1     -43.196  58.258 -59.200  1.00  0.00    -0.311 OA
BRANCH  25  26
HETATM   26  C   UNL     1     -44.264  57.490 -59.595  1.00  0.00     0.076 A 
HETATM   27  C   UNL     1     -43.979  56.343 -60.337  1.00  0.00     0.037 A 
HETATM   28  C   UNL     1     -45.015  55.493 -60.725  1.00  0.00     0.003 A 
HETATM   29  C   UNL     1     -46.328  55.782 -60.357  1.00  0.00     0.000 A 
HETATM   30  C   UNL     1     -46.608  56.916 -59.593  1.00  0.00     0.003 A 
HETATM   31  C   UNL     1     -45.575  57.768 -59.201  1.00  0.00     0.037 A 
ENDBRANCH  25  26
ENDBRANCH  22  25
ENDBRANCH   2  19
TORSDOF 6
ENDMDL
MODEL 7
REMARK VINA RESULT:      -8.0      2.597      4.244
REMARK  6 active torsions:
REMARK  status: ('A' for Active; 'I' for Inactive)
REMARK    1  A    between atoms: C_2  and  N_3 
REMARK    2  A    between atoms: C_2  and  C_15 
REMARK    3  A    between atoms: C_5  and  C_6 
REMARK       I    between atoms: C_15  and  N_16 
REMARK    4  A    between atoms: N_16  and  C_17 
REMARK    5  A    between atoms: C_20  and  O_21 
REMARK    6  A    between atoms: O_21  and  C_22 
ROOT
HETATM    1  C   UNL     1     -44.383  57.696 -54.406  1.00  0.00     0.253 C 
HETATM    2  N   UNL     1     -43.029  57.483 -54.584  1.00  0.00    -0.325 N 
HETATM    3  O   UNL     1     -45.242  56.816 -54.392  1.00  0.00    -0.271 OA
HETATM    4  H   UNL     1     -42.410  58.277 -54.690  1.00  0.00     0.169 HD
ENDROOT
BRANCH   1   5
HETATM    5  C   UNL     1     -44.821  59.140 -54.037  1.00  0.00     0.276 C 
HETATM    6  C   UNL     1     -45.205  60.058 -55.193  1.00  0.00     0.050 C 
BRANCH   5   7
HETATM    7  N   UNL     1     -43.792  59.868 -53.145  1.00  0.00    -0.049 N 
HETATM    8  H   UNL     1     -42.866  59.591 -53.489  1.00  0.00     0.281 HD
HETATM    9  C   UNL     1     -43.836  59.518 -51.666  1.00  0.00     0.238 C 
HETATM   10  C   UNL     1     -44.492  60.730 -51.020  1.00  0.00     0.041 C 
HETATM   11  C   UNL     1     -43.972  61.903 -51.824  1.00  0.00     0.030 C 
HETATM   12  C   UNL     1     -43.868  61.388 -53.247  1.00  0.00     0.237 C 
BRANCH   9  13
HETATM   13  C   UNL     1     -42.455  59.254 -51.133  1.00  0.00     0.042 A 
HETATM   14  N   UNL     1     -41.963  57.979 -50.910  1.00  0.00    -0.363 N 
HETATM   15  C   UNL     1     -42.662  56.723 -51.104  1.00  0.00     0.155 C 
HETATM   16  C   UNL     1     -40.686  58.055 -50.418  1.00  0.00     0.090 A 
HETATM   17  C   UNL     1     -40.346  59.379 -50.296  1.00  0.00     0.019 A 
HETATM   18  C   UNL     1     -41.455  60.134 -50.733  1.00  0.00     0.028 A 
ENDBRANCH   9  13
ENDBRANCH   5   7
ENDBRANCH   1   5
BRANCH   2  19
HETATM   19  C   UNL     1     -42.382  56.229 -54.720  1.00  0.00     0.035 A 
HETATM   20  C   UNL     1     -43.052  55.019 -54.918  1.00  0.00     0.032 A 
HETATM   21  C   UNL     1     -42.338  53.819 -55.004  1.00  0.00     0.039 A 
HETATM   22  C   UNL     1     -40.951  53.813 -54.903  1.00  0.00     0.076 A 
HETATM   23  C   UNL     1     -40.272  55.012 -54.694  1.00  0.00     0.039 A 
HETATM   24  C   UNL     1     -40.985  56.215 -54.614  1.00  0.00     0.032 A 
BRANCH  22  25
HETATM   25  O   UNL     1     -40.350  52.576 -54.932  1.00  0.00    -0.311 OA
BRANCH  25  26
HETATM   26  C   UNL     1     -40.142  51.919 -53.744  1.00  0.00     0.076 A 
HETATM   27  C   UNL     1     -39.897  50.547 -53.813  1.00  0.00     0.037 A 
HETATM   28  C   UNL     1     -39.628  49.830 -52.647  1.00  0.00     0.003 A 
HETATM   29  C   UNL     1     -39.588  50.490 -51.419  1.00  0.00     0.000 A 
HETATM   30  C   UNL     1     -39.808  51.866 -51.354  1.00  0.00     0.003 A 
HETATM   31  C   UNL     1     -40.076  52.587 -52.519  1.00  0.00     0.037 A 
ENDBRANCH  25  26
ENDBRANCH  22  25
ENDBRANCH   2  19
TORSDOF 6
ENDMDL
MODEL 8
REMARK VINA RESULT:      -7.9      4.761      8.828
REMARK  6 active torsions:
REMARK  status: ('A' for Active; 'I' for Inactive)
REMARK    1  A    between atoms: C_2  and  N_3 
REMARK    2  A    between atoms: C_2  and  C_15 
REMARK    3  A    between atoms: C_5  and  C_6 
REMARK       I    between atoms: C_15  and  N_16 
REMARK    4  A    between atoms: N_16  and  C_17 
REMARK    5  A    between atoms: C_20  and  O_21 
REMARK    6  A    between atoms: O_21  and  C_22 
ROOT
HETATM    1  C   UNL     1     -42.625  57.403 -52.679  1.00  0.00     0.253 C 
HETATM    2  N   UNL     1     -41.811  57.245 -53.785  1.00  0.00    -0.325 N 
HETATM    3  O   UNL     1     -43.825  57.674 -52.717  1.00  0.00    -0.271 OA
HETATM    4  H   UNL     1     -40.813  57.131 -53.655  1.00  0.00     0.169 HD
ENDROOT
BRANCH   1   5
HETATM    5  C   UNL     1     -42.006  57.052 -51.298  1.00  0.00     0.276 C 
HETATM    6  C   UNL     1     -40.598  57.572 -51.025  1.00  0.00     0.050 C 
BRANCH   5   7
HETATM    7  N   UNL     1     -42.046  55.539 -50.992  1.00  0.00    -0.049 N 
HETATM    8  H   UNL     1     -41.214  55.338 -50.426  1.00  0.00     0.281 HD
HETATM    9  C   UNL     1     -41.988  54.620 -52.201  1.00  0.00     0.238 C 
HETATM   10  C   UNL     1     -43.416  54.111 -52.344  1.00  0.00     0.041 C 
HETATM   11  C   UNL     1     -43.901  53.968 -50.917  1.00  0.00     0.030 C 
HETATM   12  C   UNL     1     -43.258  55.119 -50.167  1.00  0.00     0.237 C 
BRANCH   9  13
HETATM   13  C   UNL     1     -40.997  53.509 -51.988  1.00  0.00     0.042 A 
HETATM   14  N   UNL     1     -40.433  52.792 -53.030  1.00  0.00    -0.363 N 
HETATM   15  C   UNL     1     -40.704  52.943 -54.446  1.00  0.00     0.155 C 
HETATM   16  C   UNL     1     -39.576  51.846 -52.530  1.00  0.00     0.090 A 
HETATM   17  C   UNL     1     -39.594  51.925 -51.159  1.00  0.00     0.019 A 
HETATM   18  C   UNL     1     -40.491  52.959 -50.815  1.00  0.00     0.028 A 
ENDBRANCH   9  13
ENDBRANCH   5   7
ENDBRANCH   1   5
BRANCH   2  19
HETATM   19  C   UNL     1     -42.210  57.304 -55.144  1.00  0.00     0.035 A 
HETATM   20  C   UNL     1     -42.452  56.182 -55.940  1.00  0.00     0.032 A 
HETATM   21  C   UNL     1     -42.806  56.329 -57.285  1.00  0.00     0.039 A 
HETATM   22  C   UNL     1     -42.931  57.594 -57.849  1.00  0.00     0.076 A 
HETATM   23  C   UNL     1     -42.680  58.722 -57.069  1.00  0.00     0.039 A 
HETATM   24  C   UNL     1     -42.332  58.576 -55.720  1.00  0.00     0.032 A 
BRANCH  22  25
HETATM   25  O   UNL     1     -43.216  57.630 -59.194  1.00  0.00    -0.311 OA
BRANCH  25  26
HETATM   26  C   UNL     1     -44.389  57.064 -59.630  1.00  0.00     0.076 A 
HETATM   27  C   UNL     1     -45.576  57.607 -59.136  1.00  0.00     0.037 A 
HETATM   28  C   UNL     1     -46.803  57.112 -59.579  1.00  0.00     0.003 A 
HETATM   29  C   UNL     1     -46.839  56.088 -60.526  1.00  0.00     0.000 A 
HETATM   30  C   UNL     1     -45.652  55.564 -61.038  1.00  0.00     0.003 A 
HETATM   31  C   UNL     1     -44.423  56.057 -60.598  1.00  0.00     0.037 A 
ENDBRANCH  25  26
ENDBRANCH  22  25
ENDBRANCH   2  19
TORSDOF 6
ENDMDL
MODEL 9
REMARK VINA RESULT:      -7.8      2.479     10.135
REMARK  6 active torsions:
REMARK  status: ('A' for Active; 'I' for Inactive)
REMARK    1  A    between atoms: C_2  and  N_3 
REMARK    2  A    between atoms: C_2  and  C_15 
REMARK    3  A    between atoms: C_5  and  C_6 
REMARK       I    between atoms: C_15  and  N_16 
REMARK    4  A    between atoms: N_16  and  C_17 
REMARK    5  A    between atoms: C_20  and  O_21 
REMARK    6  A    between atoms: O_21  and  C_22 
ROOT
HETATM    1  C   UNL     1     -41.878  57.403 -51.944  1.00  0.00     0.253 C 
HETATM    2  N   UNL     1     -42.870  58.303 -52.287  1.00  0.00    -0.325 N 
HETATM    3  O   UNL     1     -41.528  57.139 -50.795  1.00  0.00    -0.271 OA
HETATM    4  H   UNL     1     -43.014  58.537 -53.261  1.00  0.00     0.169 HD
ENDROOT
BRANCH   1   5
HETATM    5  C   UNL     1     -41.279  56.550 -53.096  1.00  0.00     0.276 C 
HETATM    6  C   UNL     1     -41.615  56.985 -54.519  1.00  0.00     0.050 C 
BRANCH   5   7
HETATM    7  N   UNL     1     -41.590  55.045 -52.950  1.00  0.00    -0.049 N 
HETATM    8  H   UNL     1     -41.825  54.894 -51.963  1.00  0.00     0.281 HD
HETATM    9  C   UNL     1     -40.448  54.099 -53.281  1.00  0.00     0.238 C 
HETATM   10  C   UNL     1     -40.826  53.526 -54.639  1.00  0.00     0.041 C 
HETATM   11  C   UNL     1     -42.333  53.397 -54.578  1.00  0.00     0.030 C 
HETATM   12  C   UNL     1     -42.797  54.592 -53.768  1.00  0.00     0.237 C 
BRANCH   9  13
HETATM   13  C   UNL     1     -40.301  53.039 -52.226  1.00  0.00     0.042 A 
HETATM   14  N   UNL     1     -39.741  51.797 -52.477  1.00  0.00    -0.363 N 
HETATM   15  C   UNL     1     -39.249  51.297 -53.746  1.00  0.00     0.155 C 
HETATM   16  C   UNL     1     -39.749  51.045 -51.331  1.00  0.00     0.090 A 
HETATM   17  C   UNL     1     -40.334  51.783 -50.332  1.00  0.00     0.019 A 
HETATM   18  C   UNL     1     -40.691  53.028 -50.891  1.00  0.00     0.028 A 
ENDBRANCH   9  13
ENDBRANCH   5   7
ENDBRANCH   1   5
BRANCH   2  19
HETATM   19  C   UNL     1     -43.695  59.030 -51.393  1.00  0.00     0.035 A 
HETATM   20  C   UNL     1     -44.995  58.655 -51.043  1.00  0.00     0.032 A 
HETATM   21  C   UNL     1     -45.757  59.452 -50.183  1.00  0.00     0.039 A 
HETATM   22  C   UNL     1     -45.230  60.626 -49.655  1.00  0.00     0.076 A 
HETATM   23  C   UNL     1     -43.939  61.018 -50.006  1.00  0.00     0.039 A 
HETATM   24  C   UNL     1     -43.173  60.218 -50.862  1.00  0.00     0.032 A 
BRANCH  22  25
HETATM   25  O   UNL     1     -46.082  61.371 -48.875  1.00  0.00    -0.311 OA
BRANCH  25  26
HETATM   26  C   UNL     1     -45.663  61.748 -47.622  1.00  0.00     0.076 A 
HETATM   27  C   UNL     1     -45.734  63.107 -47.313  1.00  0.00     0.037 A 
HETATM   28  C   UNL     1     -45.373  63.549 -46.040  1.00  0.00     0.003 A 
HETATM   29  C   UNL     1     -44.958  62.631 -45.076  1.00  0.00     0.000 A 
HETATM   30  C   UNL     1     -44.912  61.269 -45.379  1.00  0.00     0.003 A 
HETATM   31  C   UNL     1     -45.274  60.823 -46.651  1.00  0.00     0.037 A 
ENDBRANCH  25  26
ENDBRANCH  22  25
ENDBRANCH   2  19
TORSDOF 6
ENDMDL
MODEL 10
REMARK VINA RESULT:      -7.7      4.922     10.015
REMARK  6 active torsions:
REMARK  status: ('A' for Active; 'I' for Inactive)
REMARK    1  A    between atoms: C_2  and  N_3 
REMARK    2  A    between atoms: C_2  and  C_15 
REMARK    3  A    between atoms: C_5  and  C_6 
REMARK       I    between atoms: C_15  and  N_16 
REMARK    4  A    between atoms: N_16  and  C_17 
REMARK    5  A    between atoms: C_20  and  O_21 
REMARK    6  A    between atoms: O_21  and  C_22 
ROOT
HETATM    1  C   UNL     1     -43.087  56.924 -53.200  1.00  0.00     0.253 C 
HETATM    2  N   UNL     1     -42.073  57.658 -53.786  1.00  0.00    -0.325 N 
HETATM    3  O   UNL     1     -44.290  57.100 -53.391  1.00  0.00    -0.271 OA
HETATM    4  H   UNL     1     -41.117  57.514 -53.485  1.00  0.00     0.169 HD
ENDROOT
BRANCH   1   5
HETATM    5  C   UNL     1     -42.661  55.684 -52.367  1.00  0.00     0.276 C 
HETATM    6  C   UNL     1     -41.643  55.919 -51.256  1.00  0.00     0.050 C 
BRANCH   5   7
HETATM    7  N   UNL     1     -42.176  54.511 -53.246  1.00  0.00    -0.049 N 
HETATM    8  H   UNL     1     -42.525  53.654 -52.802  1.00  0.00     0.281 HD
HETATM    9  C   UNL     1     -40.669  54.359 -53.370  1.00  0.00     0.238 C 
HETATM   10  C   UNL     1     -40.362  54.868 -54.772  1.00  0.00     0.041 C 
HETATM   11  C   UNL     1     -41.551  54.420 -55.595  1.00  0.00     0.030 C 
HETATM   12  C   UNL     1     -42.742  54.539 -54.663  1.00  0.00     0.237 C 
BRANCH   9  13
HETATM   13  C   UNL     1     -40.251  52.929 -53.171  1.00  0.00     0.042 A 
HETATM   14  N   UNL     1     -39.924  52.404 -51.932  1.00  0.00    -0.363 N 
HETATM   15  C   UNL     1     -39.888  53.107 -50.664  1.00  0.00     0.155 C 
HETATM   16  C   UNL     1     -39.579  51.084 -52.064  1.00  0.00     0.090 A 
HETATM   17  C   UNL     1     -39.657  50.746 -53.392  1.00  0.00     0.019 A 
HETATM   18  C   UNL     1     -40.068  51.901 -54.090  1.00  0.00     0.028 A 
ENDBRANCH   9  13
ENDBRANCH   5   7
ENDBRANCH   1   5
BRANCH   2  19
HETATM   19  C   UNL     1     -42.224  58.692 -54.744  1.00  0.00     0.035 A 
HETATM   20  C   UNL     1     -42.375  60.043 -54.422  1.00  0.00     0.032 A 
HETATM   21  C   UNL     1     -42.557  60.997 -55.429  1.00  0.00     0.039 A 
HETATM   22  C   UNL     1     -42.582  60.615 -56.767  1.00  0.00     0.076 A 
HETATM   23  C   UNL     1     -42.445  59.269 -57.101  1.00  0.00     0.039 A 
HETATM   24  C   UNL     1     -42.256  58.314 -56.093  1.00  0.00     0.032 A 
BRANCH  22  25
HETATM   25  O   UNL     1     -42.834  61.617 -57.675  1.00  0.00    -0.311 OA
BRANCH  25  26
HETATM   26  C   UNL     1     -41.889  61.886 -58.634  1.00  0.00     0.076 A 
HETATM   27  C   UNL     1     -42.262  61.684 -59.964  1.00  0.00     0.037 A 
HETATM   28  C   UNL     1     -41.366  61.987 -60.989  1.00  0.00     0.003 A 
HETATM   29  C   UNL     1     -40.107  62.506 -60.684  1.00  0.00     0.000 A 
HETATM   30  C   UNL     1     -39.746  62.731 -59.355  1.00  0.00     0.003 A 
HETATM   31  C   UNL     1     -40.640  62.431 -58.326  1.00  0.00     0.037 A 
ENDBRANCH  25  26
ENDBRANCH  22  25
ENDBRANCH   2  19
TORSDOF 6
ENDMDL
