MODEL 1
REMARK VINA RESULT:      -8.3      0.000      0.000
REMARK  2 active torsions:
REMARK  status: ('A' for Active; 'I' for Inactive)
REMARK    1  A    between atoms: N_3  and  C_4 
REMARK    2  A    between atoms: C_12  and  C_13 
REMARK       I    between atoms: C_13  and  N_14 
ROOT
HETATM    1  C   UNL     1     -42.652  55.617 -53.593  1.00  0.00     0.262 C 
HETATM    2  N   UNL     1     -42.096  54.489 -52.959  1.00  0.00    -0.311 N 
HETATM    3  C   UNL     1     -41.584  54.446 -51.632  1.00  0.00     0.064 A 
HETATM    4  C   UNL     1     -40.506  53.620 -51.256  1.00  0.00     0.061 A 
HETATM    5  C   UNL     1     -40.066  53.652 -49.916  1.00  0.00     0.032 A 
HETATM    6  C   UNL     1     -40.687  54.453 -48.959  1.00  0.00     0.002 A 
HETATM    7  C   UNL     1     -41.771  55.235 -49.320  1.00  0.00     0.002 A 
HETATM    8  C   UNL     1     -42.218  55.226 -50.642  1.00  0.00     0.032 A 
HETATM    9  N   UNL     1     -39.755  52.759 -52.082  1.00  0.00    -0.325 N 
HETATM   10  C   UNL     1     -39.839  52.353 -53.371  1.00  0.00     0.227 C 
HETATM   11  O   UNL     1     -38.979  51.555 -53.762  1.00  0.00    -0.273 OA
HETATM   12  C   UNL     1     -40.874  52.857 -54.341  1.00  0.00     0.092 C 
HETATM   13  C   UNL     1     -40.288  53.968 -55.209  1.00  0.00     0.021 C 
HETATM   14  C   UNL     1     -42.177  53.212 -53.655  1.00  0.00     0.146 C 
HETATM   15  O   UNL     1     -43.437  55.498 -54.535  1.00  0.00    -0.267 OA
HETATM   16  H   UNL     1     -38.978  52.282 -51.634  1.00  0.00     0.169 HD
ENDROOT
BRANCH   1  17
HETATM   17  C   UNL     1     -42.199  56.957 -53.205  1.00  0.00     0.075 C 
HETATM   18  C   UNL     1     -42.978  57.948 -52.607  1.00  0.00     0.050 C 
HETATM   19  C   UNL     1     -44.374  57.837 -52.102  1.00  0.00     0.071 C 
HETATM   20  N   UNL     1     -42.179  59.084 -52.513  1.00  0.00    -0.238 N 
HETATM   21  N   UNL     1     -40.899  58.805 -52.873  1.00  0.00    -0.179 NA
HETATM   22  C   UNL     1     -40.946  57.574 -53.375  1.00  0.00     0.158 C 
BRANCH  20  23
HETATM   23  C   UNL     1     -42.500  60.416 -52.120  1.00  0.00     0.061 A 
HETATM   24  C   UNL     1     -42.913  61.328 -53.099  1.00  0.00     0.051 A 
HETATM   25  C   UNL     1     -43.224  62.620 -52.713  1.00  0.00     0.118 A 
HETATM   26  N   UNL     1     -43.171  63.052 -51.436  1.00  0.00    -0.273 NA
HETATM   27  C   UNL     1     -42.801  62.148 -50.505  1.00  0.00     0.118 A 
HETATM   28  C   UNL     1     -42.461  60.834 -50.791  1.00  0.00     0.051 A 
ENDBRANCH  20  23
ENDBRANCH   1  17
TORSDOF 2
ENDMDL
MODEL 2
REMARK VINA RESULT:      -8.1      2.422      7.374
REMARK  2 active torsions:
REMARK  status: ('A' for Active; 'I' for Inactive)
REMARK    1  A    between atoms: N_3  and  C_4 
REMARK    2  A    between atoms: C_12  and  C_13 
REMARK       I    between atoms: C_13  and  N_14 
ROOT
HETATM    1  C   UNL     1     -43.538  57.452 -53.184  1.00  0.00     0.262 C 
HETATM    2  N   UNL     1     -43.271  58.665 -52.520  1.00  0.00    -0.311 N 
HETATM    3  C   UNL     1     -42.071  58.991 -51.828  1.00  0.00     0.064 A 
HETATM    4  C   UNL     1     -42.047  59.823 -50.691  1.00  0.00     0.061 A 
HETATM    5  C   UNL     1     -40.807  60.082 -50.071  1.00  0.00     0.032 A 
HETATM    6  C   UNL     1     -39.614  59.562 -50.570  1.00  0.00     0.002 A 
HETATM    7  C   UNL     1     -39.633  58.778 -51.710  1.00  0.00     0.002 A 
HETATM    8  C   UNL     1     -40.849  58.501 -52.336  1.00  0.00     0.032 A 
HETATM    9  N   UNL     1     -43.145  60.424 -50.044  1.00  0.00    -0.325 N 
HETATM   10  C   UNL     1     -44.472  60.519 -50.297  1.00  0.00     0.227 C 
HETATM   11  O   UNL     1     -45.151  61.156 -49.483  1.00  0.00    -0.273 OA
HETATM   12  C   UNL     1     -45.151  59.859 -51.467  1.00  0.00     0.092 C 
HETATM   13  C   UNL     1     -45.795  58.545 -51.032  1.00  0.00     0.021 C 
HETATM   14  C   UNL     1     -44.237  59.746 -52.670  1.00  0.00     0.146 C 
HETATM   15  O   UNL     1     -44.371  57.389 -54.089  1.00  0.00    -0.267 OA
HETATM   16  H   UNL     1     -42.929  60.949 -49.202  1.00  0.00     0.169 HD
ENDROOT
BRANCH   1  17
HETATM   17  C   UNL     1     -42.902  56.218 -52.710  1.00  0.00     0.075 C 
HETATM   18  C   UNL     1     -41.963  55.457 -53.407  1.00  0.00     0.050 C 
HETATM   19  C   UNL     1     -41.293  55.782 -54.696  1.00  0.00     0.071 C 
HETATM   20  N   UNL     1     -41.712  54.326 -52.636  1.00  0.00    -0.238 N 
HETATM   21  N   UNL     1     -42.324  54.421 -51.426  1.00  0.00    -0.179 NA
HETATM   22  C   UNL     1     -43.103  55.494 -51.521  1.00  0.00     0.158 C 
BRANCH  20  23
HETATM   23  C   UNL     1     -40.954  53.153 -52.924  1.00  0.00     0.061 A 
HETATM   24  C   UNL     1     -40.087  52.652 -51.944  1.00  0.00     0.051 A 
HETATM   25  C   UNL     1     -39.354  51.513 -52.228  1.00  0.00     0.118 A 
HETATM   26  N   UNL     1     -39.439  50.840 -53.394  1.00  0.00    -0.273 NA
HETATM   27  C   UNL     1     -40.304  51.322 -54.310  1.00  0.00     0.118 A 
HETATM   28  C   UNL     1     -41.076  52.460 -54.127  1.00  0.00     0.051 A 
ENDBRANCH  20  23
ENDBRANCH   1  17
TORSDOF 2
ENDMDL
MODEL 3
REMARK VINA RESULT:      -8.0      3.644      5.794
REMARK  2 active torsions:
REMARK  status: ('A' for Active; 'I' for Inactive)
REMARK    1  A    between atoms: N_3  and  C_4 
REMARK    2  A    between atoms: C_12  and  C_13 
REMARK       I    between atoms: C_13  and  N_14 
ROOT
HETATM    1  C   UNL     1     -42.088  58.186 -53.314  1.00  0.00     0.262 C 
HETATM    2  N   UNL     1     -41.952  56.936 -52.679  1.00  0.00    -0.311 N 
HETATM    3  C   UNL     1     -41.554  55.721 -53.304  1.00  0.00     0.064 A 
HETATM    4  C   UNL     1     -42.033  54.460 -52.897  1.00  0.00     0.061 A 
HETATM    5  C   UNL     1     -41.584  53.313 -53.585  1.00  0.00     0.032 A 
HETATM    6  C   UNL     1     -40.665  53.396 -54.629  1.00  0.00     0.002 A 
HETATM    7  C   UNL     1     -40.164  54.632 -55.003  1.00  0.00     0.002 A 
HETATM    8  C   UNL     1     -40.600  55.781 -54.343  1.00  0.00     0.032 A 
HETATM    9  N   UNL     1     -42.966  54.184 -51.877  1.00  0.00    -0.325 N 
HETATM   10  C   UNL     1     -43.600  54.921 -50.934  1.00  0.00     0.227 C 
HETATM   11  O   UNL     1     -44.370  54.316 -50.178  1.00  0.00    -0.273 OA
HETATM   12  C   UNL     1     -43.453  56.413 -50.798  1.00  0.00     0.092 C 
HETATM   13  C   UNL     1     -44.621  57.122 -51.479  1.00  0.00     0.021 C 
HETATM   14  C   UNL     1     -42.084  56.895 -51.229  1.00  0.00     0.146 C 
HETATM   15  O   UNL     1     -42.013  59.237 -52.676  1.00  0.00    -0.267 OA
HETATM   16  H   UNL     1     -43.226  53.209 -51.768  1.00  0.00     0.169 HD
ENDROOT
BRANCH   1  17
HETATM   17  C   UNL     1     -42.442  58.235 -54.737  1.00  0.00     0.075 C 
HETATM   18  C   UNL     1     -43.488  57.544 -55.348  1.00  0.00     0.050 C 
HETATM   19  C   UNL     1     -44.553  56.730 -54.699  1.00  0.00     0.071 C 
HETATM   20  N   UNL     1     -43.393  57.798 -56.713  1.00  0.00    -0.238 N 
HETATM   21  N   UNL     1     -42.442  58.736 -56.964  1.00  0.00    -0.179 NA
HETATM   22  C   UNL     1     -41.821  58.911 -55.802  1.00  0.00     0.158 C 
BRANCH  20  23
HETATM   23  C   UNL     1     -44.107  57.242 -57.815  1.00  0.00     0.061 A 
HETATM   24  C   UNL     1     -43.590  56.106 -58.450  1.00  0.00     0.051 A 
HETATM   25  C   UNL     1     -44.286  55.569 -59.518  1.00  0.00     0.118 A 
HETATM   26  N   UNL     1     -45.453  56.067 -59.977  1.00  0.00    -0.273 NA
HETATM   27  C   UNL     1     -45.949  57.142 -59.329  1.00  0.00     0.118 A 
HETATM   28  C   UNL     1     -45.324  57.759 -58.256  1.00  0.00     0.051 A 
ENDBRANCH  20  23
ENDBRANCH   1  17
TORSDOF 2
ENDMDL
MODEL 4
REMARK VINA RESULT:      -7.8      4.455      6.813
REMARK  2 active torsions:
REMARK  status: ('A' for Active; 'I' for Inactive)
REMARK    1  A    between atoms: N_3  and  C_4 
REMARK    2  A    between atoms: C_12  and  C_13 
REMARK       I    between atoms: C_13  and  N_14 
ROOT
HETATM    1  C   UNL     1     -42.119  58.870 -55.159  1.00  0.00     0.262 C 
HETATM    2  N   UNL     1     -42.275  57.961 -54.094  1.00  0.00    -0.311 N 
HETATM    3  C   UNL     1     -42.282  56.543 -54.201  1.00  0.00     0.064 A 
HETATM    4  C   UNL     1     -43.050  55.716 -53.357  1.00  0.00     0.061 A 
HETATM    5  C   UNL     1     -42.995  54.320 -53.547  1.00  0.00     0.032 A 
HETATM    6  C   UNL     1     -42.183  53.743 -54.522  1.00  0.00     0.002 A 
HETATM    7  C   UNL     1     -41.398  54.554 -55.326  1.00  0.00     0.002 A 
HETATM    8  C   UNL     1     -41.444  55.938 -55.162  1.00  0.00     0.032 A 
HETATM    9  N   UNL     1     -43.929  56.118 -52.331  1.00  0.00    -0.325 N 
HETATM   10  C   UNL     1     -44.251  57.299 -51.753  1.00  0.00     0.227 C 
HETATM   11  O   UNL     1     -45.088  57.265 -50.842  1.00  0.00    -0.273 OA
HETATM   12  C   UNL     1     -43.691  58.626 -52.191  1.00  0.00     0.092 C 
HETATM   13  C   UNL     1     -44.675  59.335 -53.117  1.00  0.00     0.021 C 
HETATM   14  C   UNL     1     -42.285  58.500 -52.740  1.00  0.00     0.146 C 
HETATM   15  O   UNL     1     -41.704  60.013 -54.967  1.00  0.00    -0.267 OA
HETATM   16  H   UNL     1     -44.436  55.371 -51.865  1.00  0.00     0.169 HD
ENDROOT
BRANCH   1  17
HETATM   17  C   UNL     1     -42.570  58.488 -56.501  1.00  0.00     0.075 C 
HETATM   18  C   UNL     1     -43.850  58.054 -56.846  1.00  0.00     0.050 C 
HETATM   19  C   UNL     1     -45.068  58.015 -55.989  1.00  0.00     0.071 C 
HETATM   20  N   UNL     1     -43.805  57.702 -58.192  1.00  0.00    -0.238 N 
HETATM   21  N   UNL     1     -42.610  58.043 -58.740  1.00  0.00    -0.179 NA
HETATM   22  C   UNL     1     -41.855  58.414 -57.710  1.00  0.00     0.158 C 
BRANCH  20  23
HETATM   23  C   UNL     1     -44.777  57.068 -59.021  1.00  0.00     0.061 A 
HETATM   24  C   UNL     1     -44.486  55.808 -59.559  1.00  0.00     0.051 A 
HETATM   25  C   UNL     1     -45.432  55.196 -60.363  1.00  0.00     0.118 A 
HETATM   26  N   UNL     1     -46.636  55.735 -60.644  1.00  0.00    -0.273 NA
HETATM   27  C   UNL     1     -46.908  56.934 -60.088  1.00  0.00     0.118 A 
HETATM   28  C   UNL     1     -46.024  57.633 -59.278  1.00  0.00     0.051 A 
ENDBRANCH  20  23
ENDBRANCH   1  17
TORSDOF 2
ENDMDL
MODEL 5
REMARK VINA RESULT:      -7.7      3.226      7.947
REMARK  2 active torsions:
REMARK  status: ('A' for Active; 'I' for Inactive)
REMARK    1  A    between atoms: N_3  and  C_4 
REMARK    2  A    between atoms: C_12  and  C_13 
REMARK       I    between atoms: C_13  and  N_14 
ROOT
HETATM    1  C   UNL     1     -42.849  56.763 -54.168  1.00  0.00     0.262 C 
HETATM    2  N   UNL     1     -43.078  57.549 -55.315  1.00  0.00    -0.311 N 
HETATM    3  C   UNL     1     -42.949  57.114 -56.664  1.00  0.00     0.064 A 
HETATM    4  C   UNL     1     -42.534  57.967 -57.705  1.00  0.00     0.061 A 
HETATM    5  C   UNL     1     -42.431  57.440 -59.009  1.00  0.00     0.032 A 
HETATM    6  C   UNL     1     -42.756  56.115 -59.293  1.00  0.00     0.002 A 
HETATM    7  C   UNL     1     -43.202  55.287 -58.276  1.00  0.00     0.002 A 
HETATM    8  C   UNL     1     -43.303  55.784 -56.977  1.00  0.00     0.032 A 
HETATM    9  N   UNL     1     -42.158  59.322 -57.607  1.00  0.00    -0.325 N 
HETATM   10  C   UNL     1     -42.158  60.247 -56.618  1.00  0.00     0.227 C 
HETATM   11  O   UNL     1     -41.750  61.378 -56.911  1.00  0.00    -0.273 OA
HETATM   12  C   UNL     1     -42.572  59.957 -55.200  1.00  0.00     0.092 C 
HETATM   13  C   UNL     1     -41.343  59.700 -54.333  1.00  0.00     0.021 C 
HETATM   14  C   UNL     1     -43.636  58.881 -55.123  1.00  0.00     0.146 C 
HETATM   15  O   UNL     1     -43.370  57.045 -53.088  1.00  0.00    -0.267 OA
HETATM   16  H   UNL     1     -41.836  59.755 -58.467  1.00  0.00     0.169 HD
ENDROOT
BRANCH   1  17
HETATM   17  C   UNL     1     -41.883  55.663 -54.232  1.00  0.00     0.075 C 
HETATM   18  C   UNL     1     -42.041  54.396 -53.668  1.00  0.00     0.050 C 
HETATM   19  C   UNL     1     -43.251  53.827 -53.014  1.00  0.00     0.071 C 
HETATM   20  N   UNL     1     -40.846  53.712 -53.878  1.00  0.00    -0.238 N 
HETATM   21  N   UNL     1     -40.014  54.428 -54.679  1.00  0.00    -0.179 NA
HETATM   22  C   UNL     1     -40.596  55.618 -54.798  1.00  0.00     0.158 C 
BRANCH  20  23
HETATM   23  C   UNL     1     -40.402  52.447 -53.395  1.00  0.00     0.061 A 
HETATM   24  C   UNL     1     -40.359  51.363 -54.281  1.00  0.00     0.051 A 
HETATM   25  C   UNL     1     -39.926  50.137 -53.808  1.00  0.00     0.118 A 
HETATM   26  N   UNL     1     -39.521  49.925 -52.538  1.00  0.00    -0.273 NA
HETATM   27  C   UNL     1     -39.540  50.991 -51.711  1.00  0.00     0.118 A 
HETATM   28  C   UNL     1     -39.965  52.257 -52.085  1.00  0.00     0.051 A 
ENDBRANCH  20  23
ENDBRANCH   1  17
TORSDOF 2
ENDMDL
MODEL 6
REMARK VINA RESULT:      -7.3      4.335      6.084
REMARK  2 active torsions:
REMARK  status: ('A' for Active; 'I' for Inactive)
REMARK    1  A    between atoms: N_3  and  C_4 
REMARK    2  A    between atoms: C_12  and  C_13 
REMARK       I    between atoms: C_13  and  N_14 
ROOT
HETATM    1  C   UNL     1     -41.817  58.559 -54.576  1.00  0.00     0.262 C 
HETATM    2  N   UNL     1     -41.246  57.593 -53.723  1.00  0.00    -0.311 N 
HETATM    3  C   UNL     1     -41.343  56.183 -53.878  1.00  0.00     0.064 A 
HETATM    4  C   UNL     1     -41.377  55.294 -52.785  1.00  0.00     0.061 A 
HETATM    5  C   UNL     1     -41.481  53.912 -53.042  1.00  0.00     0.032 A 
HETATM    6  C   UNL     1     -41.521  53.407 -54.340  1.00  0.00     0.002 A 
HETATM    7  C   UNL     1     -41.448  54.277 -55.415  1.00  0.00     0.002 A 
HETATM    8  C   UNL     1     -41.353  55.649 -55.185  1.00  0.00     0.032 A 
HETATM    9  N   UNL     1     -41.357  55.620 -51.414  1.00  0.00    -0.325 N 
HETATM   10  C   UNL     1     -41.202  56.761 -50.702  1.00  0.00     0.227 C 
HETATM   11  O   UNL     1     -41.232  56.659 -49.470  1.00  0.00    -0.273 OA
HETATM   12  C   UNL     1     -41.049  58.123 -51.326  1.00  0.00     0.092 C 
HETATM   13  C   UNL     1     -42.389  58.853 -51.334  1.00  0.00     0.021 C 
HETATM   14  C   UNL     1     -40.355  58.061 -52.670  1.00  0.00     0.146 C 
HETATM   15  O   UNL     1     -41.361  59.701 -54.641  1.00  0.00    -0.267 OA
HETATM   16  H   UNL     1     -41.443  54.837 -50.772  1.00  0.00     0.169 HD
ENDROOT
BRANCH   1  17
HETATM   17  C   UNL     1     -43.046  58.236 -55.308  1.00  0.00     0.075 C 
HETATM   18  C   UNL     1     -43.188  58.187 -56.695  1.00  0.00     0.050 C 
HETATM   19  C   UNL     1     -42.124  58.304 -57.731  1.00  0.00     0.071 C 
HETATM   20  N   UNL     1     -44.535  57.948 -56.952  1.00  0.00    -0.238 N 
HETATM   21  N   UNL     1     -45.207  57.688 -55.800  1.00  0.00    -0.179 NA
HETATM   22  C   UNL     1     -44.339  57.960 -54.830  1.00  0.00     0.158 C 
BRANCH  20  23
HETATM   23  C   UNL     1     -45.261  57.945 -58.178  1.00  0.00     0.061 A 
HETATM   24  C   UNL     1     -46.079  59.040 -58.483  1.00  0.00     0.051 A 
HETATM   25  C   UNL     1     -46.781  59.033 -59.675  1.00  0.00     0.118 A 
HETATM   26  N   UNL     1     -46.711  58.033 -60.578  1.00  0.00    -0.273 NA
HETATM   27  C   UNL     1     -45.892  57.003 -60.279  1.00  0.00     0.118 A 
HETATM   28  C   UNL     1     -45.154  56.912 -59.109  1.00  0.00     0.051 A 
ENDBRANCH  20  23
ENDBRANCH   1  17
TORSDOF 2
ENDMDL
MODEL 7
REMARK VINA RESULT:      -7.0      2.964      5.051
REMARK  2 active torsions:
REMARK  status: ('A' for Active; 'I' for Inactive)
REMARK    1  A    between atoms: N_3  and  C_4 
REMARK    2  A    between atoms: C_12  and  C_13 
REMARK       I    between atoms: C_13  and  N_14 
ROOT
HETATM    1  C   UNL     1     -42.560  57.619 -51.954  1.00  0.00     0.262 C 
HETATM    2  N   UNL     1     -42.554  57.244 -53.312  1.00  0.00    -0.311 N 
HETATM    3  C   UNL     1     -43.255  57.900 -54.362  1.00  0.00     0.064 A 
HETATM    4  C   UNL     1     -43.775  57.216 -55.478  1.00  0.00     0.061 A 
HETATM    5  C   UNL     1     -44.462  57.955 -56.464  1.00  0.00     0.032 A 
HETATM    6  C   UNL     1     -44.610  59.338 -56.373  1.00  0.00     0.002 A 
HETATM    7  C   UNL     1     -44.065  60.016 -55.296  1.00  0.00     0.002 A 
HETATM    8  C   UNL     1     -43.390  59.304 -54.304  1.00  0.00     0.032 A 
HETATM    9  N   UNL     1     -43.731  55.830 -55.732  1.00  0.00    -0.325 N 
HETATM   10  C   UNL     1     -43.145  54.765 -55.136  1.00  0.00     0.227 C 
HETATM   11  O   UNL     1     -43.324  53.661 -55.665  1.00  0.00    -0.273 OA
HETATM   12  C   UNL     1     -42.349  54.852 -53.861  1.00  0.00     0.092 C 
HETATM   13  C   UNL     1     -43.218  54.461 -52.669  1.00  0.00     0.021 C 
HETATM   14  C   UNL     1     -41.642  56.183 -53.718  1.00  0.00     0.146 C 
HETATM   15  O   UNL     1     -41.639  57.300 -51.201  1.00  0.00    -0.267 OA
HETATM   16  H   UNL     1     -44.210  55.519 -56.572  1.00  0.00     0.169 HD
ENDROOT
BRANCH   1  17
HETATM   17  C   UNL     1     -43.736  58.298 -51.400  1.00  0.00     0.075 C 
HETATM   18  C   UNL     1     -43.772  59.596 -50.892  1.00  0.00     0.050 C 
HETATM   19  C   UNL     1     -42.696  60.625 -50.924  1.00  0.00     0.071 C 
HETATM   20  N   UNL     1     -45.052  59.791 -50.380  1.00  0.00    -0.238 N 
HETATM   21  N   UNL     1     -45.858  58.740 -50.685  1.00  0.00    -0.179 NA
HETATM   22  C   UNL     1     -45.044  57.823 -51.199  1.00  0.00     0.158 C 
BRANCH  20  23
HETATM   23  C   UNL     1     -45.597  60.869 -49.623  1.00  0.00     0.061 A 
HETATM   24  C   UNL     1     -46.314  61.869 -50.293  1.00  0.00     0.051 A 
HETATM   25  C   UNL     1     -46.842  62.913 -49.554  1.00  0.00     0.118 A 
HETATM   26  N   UNL     1     -46.724  63.016 -48.214  1.00  0.00    -0.273 NA
HETATM   27  C   UNL     1     -46.058  62.025 -47.587  1.00  0.00     0.118 A 
HETATM   28  C   UNL     1     -45.484  60.942 -48.236  1.00  0.00     0.051 A 
ENDBRANCH  20  23
ENDBRANCH   1  17
TORSDOF 2
ENDMDL
MODEL 8
REMARK VINA RESULT:      -7.0      3.143      4.036
REMARK  2 active torsions:
REMARK  status: ('A' for Active; 'I' for Inactive)
REMARK    1  A    between atoms: N_3  and  C_4 
REMARK    2  A    between atoms: C_12  and  C_13 
REMARK       I    between atoms: C_13  and  N_14 
ROOT
HETATM    1  C   UNL     1     -42.773  56.297 -55.904  1.00  0.00     0.262 C 
HETATM    2  N   UNL     1     -42.943  55.552 -54.721  1.00  0.00    -0.311 N 
HETATM    3  C   UNL     1     -43.401  56.059 -53.474  1.00  0.00     0.064 A 
HETATM    4  C   UNL     1     -42.963  55.551 -52.235  1.00  0.00     0.061 A 
HETATM    5  C   UNL     1     -43.471  56.126 -51.052  1.00  0.00     0.032 A 
HETATM    6  C   UNL     1     -44.410  57.155 -51.080  1.00  0.00     0.002 A 
HETATM    7  C   UNL     1     -44.871  57.628 -52.298  1.00  0.00     0.002 A 
HETATM    8  C   UNL     1     -44.376  57.080 -53.481  1.00  0.00     0.032 A 
HETATM    9  N   UNL     1     -42.019  54.529 -52.012  1.00  0.00    -0.325 N 
HETATM   10  C   UNL     1     -41.336  53.666 -52.802  1.00  0.00     0.227 C 
HETATM   11  O   UNL     1     -40.573  52.875 -52.235  1.00  0.00    -0.273 OA
HETATM   12  C   UNL     1     -41.421  53.661 -54.305  1.00  0.00     0.092 C 
HETATM   13  C   UNL     1     -40.242  54.423 -54.903  1.00  0.00     0.021 C 
HETATM   14  C   UNL     1     -42.780  54.106 -54.803  1.00  0.00     0.146 C 
HETATM   15  O   UNL     1     -42.792  55.754 -57.010  1.00  0.00    -0.267 OA
HETATM   16  H   UNL     1     -41.794  54.338 -51.040  1.00  0.00     0.169 HD
ENDROOT
BRANCH   1  17
HETATM   17  C   UNL     1     -42.449  57.725 -55.814  1.00  0.00     0.075 C 
HETATM   18  C   UNL     1     -42.924  58.730 -56.657  1.00  0.00     0.050 C 
HETATM   19  C   UNL     1     -43.956  58.621 -57.726  1.00  0.00     0.071 C 
HETATM   20  N   UNL     1     -42.284  59.907 -56.278  1.00  0.00    -0.238 N 
HETATM   21  N   UNL     1     -41.558  59.717 -55.145  1.00  0.00    -0.179 NA
HETATM   22  C   UNL     1     -41.583  58.404 -54.939  1.00  0.00     0.158 C 
BRANCH  20  23
HETATM   23  C   UNL     1     -42.280  61.199 -56.879  1.00  0.00     0.061 A 
HETATM   24  C   UNL     1     -41.409  61.444 -57.949  1.00  0.00     0.051 A 
HETATM   25  C   UNL     1     -41.410  62.700 -58.530  1.00  0.00     0.118 A 
HETATM   26  N   UNL     1     -42.219  63.705 -58.138  1.00  0.00    -0.273 NA
HETATM   27  C   UNL     1     -43.073  63.437 -57.128  1.00  0.00     0.118 A 
HETATM   28  C   UNL     1     -43.143  62.216 -56.474  1.00  0.00     0.051 A 
ENDBRANCH  20  23
ENDBRANCH   1  17
TORSDOF 2
ENDMDL
MODEL 9
REMARK VINA RESULT:      -7.0      1.664      2.026
REMARK  2 active torsions:
REMARK  status: ('A' for Active; 'I' for Inactive)
REMARK    1  A    between atoms: N_3  and  C_4 
REMARK    2  A    between atoms: C_12  and  C_13 
REMARK       I    between atoms: C_13  and  N_14 
ROOT
HETATM    1  C   UNL     1     -43.956  56.944 -53.371  1.00  0.00     0.262 C 
HETATM    2  N   UNL     1     -43.173  55.782 -53.227  1.00  0.00    -0.311 N 
HETATM    3  C   UNL     1     -42.339  55.470 -52.118  1.00  0.00     0.064 A 
HETATM    4  C   UNL     1     -41.142  54.738 -52.244  1.00  0.00     0.061 A 
HETATM    5  C   UNL     1     -40.379  54.486 -51.085  1.00  0.00     0.032 A 
HETATM    6  C   UNL     1     -40.794  54.915 -49.825  1.00  0.00     0.002 A 
HETATM    7  C   UNL     1     -41.990  55.600 -49.696  1.00  0.00     0.002 A 
HETATM    8  C   UNL     1     -42.757  55.869 -50.830  1.00  0.00     0.032 A 
HETATM    9  N   UNL     1     -40.563  54.236 -53.427  1.00  0.00    -0.325 N 
HETATM   10  C   UNL     1     -40.942  54.170 -54.726  1.00  0.00     0.227 C 
HETATM   11  O   UNL     1     -40.152  53.631 -55.511  1.00  0.00    -0.273 OA
HETATM   12  C   UNL     1     -42.225  54.754 -55.254  1.00  0.00     0.092 C 
HETATM   13  C   UNL     1     -41.964  56.123 -55.877  1.00  0.00     0.021 C 
HETATM   14  C   UNL     1     -43.333  54.730 -54.222  1.00  0.00     0.146 C 
HETATM   15  O   UNL     1     -44.943  56.961 -54.107  1.00  0.00    -0.267 OA
HETATM   16  H   UNL     1     -39.665  53.776 -53.320  1.00  0.00     0.169 HD
ENDROOT
BRANCH   1  17
HETATM   17  C   UNL     1     -43.521  58.189 -52.729  1.00  0.00     0.075 C 
HETATM   18  C   UNL     1     -44.246  58.929 -51.794  1.00  0.00     0.050 C 
HETATM   19  C   UNL     1     -45.532  58.568 -51.136  1.00  0.00     0.071 C 
HETATM   20  N   UNL     1     -43.507  60.079 -51.534  1.00  0.00    -0.238 N 
HETATM   21  N   UNL     1     -42.290  60.018 -52.135  1.00  0.00    -0.179 NA
HETATM   22  C   UNL     1     -42.349  58.944 -52.917  1.00  0.00     0.158 C 
BRANCH  20  23
HETATM   23  C   UNL     1     -43.832  61.242 -50.776  1.00  0.00     0.061 A 
HETATM   24  C   UNL     1     -44.012  62.458 -51.448  1.00  0.00     0.051 A 
HETATM   25  C   UNL     1     -44.328  63.583 -50.708  1.00  0.00     0.118 A 
HETATM   26  N   UNL     1     -44.495  63.577 -49.369  1.00  0.00    -0.273 NA
HETATM   27  C   UNL     1     -44.350  62.389 -48.747  1.00  0.00     0.118 A 
HETATM   28  C   UNL     1     -44.024  61.207 -49.396  1.00  0.00     0.051 A 
ENDBRANCH  20  23
ENDBRANCH   1  17
TORSDOF 2
ENDMDL
MODEL 10
REMARK VINA RESULT:      -6.8      3.511      4.463
REMARK  2 active torsions:
REMARK  status: ('A' for Active; 'I' for Inactive)
REMARK    1  A    between atoms: N_3  and  C_4 
REMARK    2  A    between atoms: C_12  and  C_13 
REMARK       I    between atoms: C_13  and  N_14 
ROOT
HETATM    1  C   UNL     1     -43.587  55.410 -54.015  1.00  0.00     0.262 C 
HETATM    2  N   UNL     1     -43.022  55.491 -52.728  1.00  0.00    -0.311 N 
HETATM    3  C   UNL     1     -42.576  56.679 -52.085  1.00  0.00     0.064 A 
HETATM    4  C   UNL     1     -41.488  56.701 -51.190  1.00  0.00     0.061 A 
HETATM    5  C   UNL     1     -41.117  57.931 -50.608  1.00  0.00     0.032 A 
HETATM    6  C   UNL     1     -41.814  59.108 -50.874  1.00  0.00     0.002 A 
HETATM    7  C   UNL     1     -42.908  59.079 -51.723  1.00  0.00     0.002 A 
HETATM    8  C   UNL     1     -43.287  57.876 -52.317  1.00  0.00     0.032 A 
HETATM    9  N   UNL     1     -40.665  55.621 -50.812  1.00  0.00    -0.325 N 
HETATM   10  C   UNL     1     -40.670  54.286 -51.042  1.00  0.00     0.227 C 
HETATM   11  O   UNL     1     -39.762  53.627 -50.521  1.00  0.00    -0.273 OA
HETATM   12  C   UNL     1     -41.673  53.593 -51.925  1.00  0.00     0.092 C 
HETATM   13  C   UNL     1     -41.086  53.368 -53.316  1.00  0.00     0.021 C 
HETATM   14  C   UNL     1     -43.021  54.283 -51.912  1.00  0.00     0.146 C 
HETATM   15  O   UNL     1     -44.319  54.472 -54.333  1.00  0.00    -0.267 OA
HETATM   16  H   UNL     1     -39.895  55.848 -50.191  1.00  0.00     0.169 HD
ENDROOT
BRANCH   1  17
HETATM   17  C   UNL     1     -43.204  56.395 -55.032  1.00  0.00     0.075 C 
HETATM   18  C   UNL     1     -44.037  57.365 -55.592  1.00  0.00     0.050 C 
HETATM   19  C   UNL     1     -45.429  57.717 -55.200  1.00  0.00     0.071 C 
HETATM   20  N   UNL     1     -43.296  58.006 -56.581  1.00  0.00    -0.238 N 
HETATM   21  N   UNL     1     -42.001  57.595 -56.557  1.00  0.00    -0.179 NA
HETATM   22  C   UNL     1     -41.983  56.573 -55.706  1.00  0.00     0.158 C 
BRANCH  20  23
HETATM   23  C   UNL     1     -43.685  58.969 -57.558  1.00  0.00     0.061 A 
HETATM   24  C   UNL     1     -44.175  58.520 -58.791  1.00  0.00     0.051 A 
HETATM   25  C   UNL     1     -44.552  59.458 -59.735  1.00  0.00     0.118 A 
HETATM   26  N   UNL     1     -44.495  60.791 -59.531  1.00  0.00    -0.273 NA
HETATM   27  C   UNL     1     -44.051  61.200 -58.324  1.00  0.00     0.118 A 
HETATM   28  C   UNL     1     -43.640  60.341 -57.316  1.00  0.00     0.051 A 
ENDBRANCH  20  23
ENDBRANCH   1  17
TORSDOF 2
ENDMDL
