MODEL 1
REMARK VINA RESULT:      -9.0      0.000      0.000
REMARK  4 active torsions:
REMARK  status: ('A' for Active; 'I' for Inactive)
REMARK    1  A    between atoms: C_5  and  C_6 
REMARK    2  A    between atoms: C_10  and  C_11 
REMARK       I    between atoms: C_11  and  N_12 
REMARK    3  A    between atoms: N_12  and  N_13 
REMARK    4  A    between atoms: C_14  and  C_15 
ROOT
HETATM    1  C   UNL     1     -43.194  56.121 -55.450  1.00  0.00     0.289 C 
HETATM    2  N   UNL     1     -42.075  55.304 -55.349  1.00  0.00    -0.242 N 
HETATM    3  O   UNL     1     -44.124  56.140 -54.648  1.00  0.00    -0.264 OA
HETATM    4  H   UNL     1     -41.505  55.174 -56.177  1.00  0.00     0.192 HD
ENDROOT
BRANCH   1   5
HETATM    5  C   UNL     1     -43.205  56.975 -56.613  1.00  0.00     0.121 A 
HETATM    6  N   UNL     1     -44.285  57.028 -57.449  1.00  0.00    -0.272 N 
HETATM    7  N   UNL     1     -44.140  57.871 -58.480  1.00  0.00    -0.174 NA
HETATM    8  H   UNL     1     -45.149  56.503 -57.361  1.00  0.00     0.189 HD
HETATM    9  C   UNL     1     -42.931  58.426 -58.303  1.00  0.00     0.089 A 
HETATM   10  C   UNL     1     -42.305  57.877 -57.146  1.00  0.00     0.071 A 
BRANCH   9  11
HETATM   11  C   UNL     1     -42.408  59.446 -59.218  1.00  0.00    -0.006 A 
HETATM   12  C   UNL     1     -42.465  59.273 -60.609  1.00  0.00     0.014 A 
HETATM   13  C   UNL     1     -41.961  60.250 -61.474  1.00  0.00     0.007 A 
HETATM   14  C   UNL     1     -41.386  61.419 -60.967  1.00  0.00    -0.062 A 
HETATM   15  C   UNL     1     -40.846  62.477 -61.883  1.00  0.00     0.048 C 
HETATM   16  C   UNL     1     -41.327  61.599 -59.580  1.00  0.00     0.007 A 
HETATM   17  C   UNL     1     -41.830  60.620 -58.717  1.00  0.00     0.014 A 
ENDBRANCH   9  11
ENDBRANCH   1   5
BRANCH   2  18
HETATM   18  N   UNL     1     -41.826  54.371 -54.370  1.00  0.00    -0.183 NA
HETATM   19  C   UNL     1     -40.710  54.437 -53.716  1.00  0.00     0.153 C 
BRANCH  19  20
HETATM   20  C   UNL     1     -40.420  53.476 -52.664  1.00  0.00     0.018 A 
HETATM   21  C   UNL     1     -40.097  52.092 -52.866  1.00  0.00     0.004 A 
HETATM   22  C   UNL     1     -39.909  51.516 -51.611  1.00  0.00     0.043 A 
HETATM   23  C   UNL     1     -39.951  51.271 -54.006  1.00  0.00     0.014 A 
HETATM   24  C   UNL     1     -39.587  50.165 -51.434  1.00  0.00     0.030 A 
HETATM   25  N   UNL     1     -40.097  52.508 -50.681  1.00  0.00    -0.358 N 
HETATM   26  C   UNL     1     -39.451  49.375 -52.579  1.00  0.00     0.002 A 
HETATM   27  C   UNL     1     -39.629  49.918 -53.848  1.00  0.00     0.001 A 
HETATM   28  H   UNL     1     -40.018  52.373 -49.683  1.00  0.00     0.166 HD
HETATM   29  C   UNL     1     -40.406  53.698 -51.292  1.00  0.00     0.018 A 
HETATM   30  C   UNL     1     -40.660  54.927 -50.494  1.00  0.00     0.069 C 
ENDBRANCH  19  20
ENDBRANCH   2  18
TORSDOF 4
ENDMDL
MODEL 2
REMARK VINA RESULT:      -8.9      3.734      4.443
REMARK  4 active torsions:
REMARK  status: ('A' for Active; 'I' for Inactive)
REMARK    1  A    between atoms: C_5  and  C_6 
REMARK    2  A    between atoms: C_10  and  C_11 
REMARK       I    between atoms: C_11  and  N_12 
REMARK    3  A    between atoms: N_12  and  N_13 
REMARK    4  A    between atoms: C_14  and  C_15 
ROOT
HETATM    1  C   UNL     1     -43.243  56.324 -57.599  1.00  0.00     0.289 C 
HETATM    2  N   UNL     1     -43.193  55.148 -56.862  1.00  0.00    -0.242 N 
HETATM    3  O   UNL     1     -42.499  57.288 -57.434  1.00  0.00    -0.264 OA
HETATM    4  H   UNL     1     -43.997  54.532 -56.894  1.00  0.00     0.192 HD
ENDROOT
BRANCH   1   5
HETATM    5  C   UNL     1     -44.275  56.352 -58.607  1.00  0.00     0.121 A 
HETATM    6  N   UNL     1     -44.575  55.246 -59.350  1.00  0.00    -0.272 N 
HETATM    7  N   UNL     1     -45.560  55.432 -60.239  1.00  0.00    -0.174 NA
HETATM    8  H   UNL     1     -44.132  54.334 -59.291  1.00  0.00     0.189 HD
HETATM    9  C   UNL     1     -45.953  56.702 -60.055  1.00  0.00     0.089 A 
HETATM   10  C   UNL     1     -45.159  57.318 -59.045  1.00  0.00     0.071 A 
BRANCH   9  11
HETATM   11  C   UNL     1     -47.054  57.289 -60.826  1.00  0.00    -0.006 A 
HETATM   12  C   UNL     1     -47.354  58.656 -60.740  1.00  0.00     0.014 A 
HETATM   13  C   UNL     1     -48.408  59.207 -61.478  1.00  0.00     0.007 A 
HETATM   14  C   UNL     1     -49.186  58.401 -62.315  1.00  0.00    -0.062 A 
HETATM   15  C   UNL     1     -50.315  58.978 -63.115  1.00  0.00     0.048 C 
HETATM   16  C   UNL     1     -48.891  57.036 -62.407  1.00  0.00     0.007 A 
HETATM   17  C   UNL     1     -47.838  56.488 -61.667  1.00  0.00     0.014 A 
ENDBRANCH   9  11
ENDBRANCH   1   5
BRANCH   2  18
HETATM   18  N   UNL     1     -42.340  54.868 -55.821  1.00  0.00    -0.183 NA
HETATM   19  C   UNL     1     -42.843  54.551 -54.670  1.00  0.00     0.153 C 
BRANCH  19  20
HETATM   20  C   UNL     1     -41.971  54.235 -53.551  1.00  0.00     0.018 A 
HETATM   21  C   UNL     1     -41.123  53.080 -53.455  1.00  0.00     0.004 A 
HETATM   22  C   UNL     1     -40.468  53.139 -52.227  1.00  0.00     0.043 A 
HETATM   23  C   UNL     1     -40.855  51.983 -54.303  1.00  0.00     0.014 A 
HETATM   24  C   UNL     1     -39.564  52.159 -51.799  1.00  0.00     0.030 A 
HETATM   25  N   UNL     1     -40.888  54.287 -51.602  1.00  0.00    -0.358 N 
HETATM   26  C   UNL     1     -39.319  51.084 -52.656  1.00  0.00     0.002 A 
HETATM   27  C   UNL     1     -39.953  50.994 -53.892  1.00  0.00     0.001 A 
HETATM   28  H   UNL     1     -40.569  54.586 -50.691  1.00  0.00     0.166 HD
HETATM   29  C   UNL     1     -41.794  54.964 -52.381  1.00  0.00     0.018 A 
HETATM   30  C   UNL     1     -42.398  56.242 -51.918  1.00  0.00     0.069 C 
ENDBRANCH  19  20
ENDBRANCH   2  18
TORSDOF 4
ENDMDL
MODEL 3
REMARK VINA RESULT:      -8.8      2.960      4.371
REMARK  4 active torsions:
REMARK  status: ('A' for Active; 'I' for Inactive)
REMARK    1  A    between atoms: C_5  and  C_6 
REMARK    2  A    between atoms: C_10  and  C_11 
REMARK       I    between atoms: C_11  and  N_12 
REMARK    3  A    between atoms: N_12  and  N_13 
REMARK    4  A    between atoms: C_14  and  C_15 
ROOT
HETATM    1  C   UNL     1     -42.429  56.336 -56.405  1.00  0.00     0.289 C 
HETATM    2  N   UNL     1     -41.921  55.056 -56.212  1.00  0.00    -0.242 N 
HETATM    3  O   UNL     1     -42.276  57.276 -55.629  1.00  0.00    -0.264 OA
HETATM    4  H   UNL     1     -42.314  54.301 -56.762  1.00  0.00     0.192 HD
ENDROOT
BRANCH   1   5
HETATM    5  C   UNL     1     -43.191  56.496 -57.619  1.00  0.00     0.121 A 
HETATM    6  N   UNL     1     -42.710  56.068 -58.825  1.00  0.00    -0.272 N 
HETATM    7  N   UNL     1     -43.538  56.285 -59.855  1.00  0.00    -0.174 NA
HETATM    8  H   UNL     1     -41.815  55.621 -58.999  1.00  0.00     0.189 HD
HETATM    9  C   UNL     1     -44.627  56.848 -59.308  1.00  0.00     0.089 A 
HETATM   10  C   UNL     1     -44.440  57.010 -57.904  1.00  0.00     0.071 A 
BRANCH   9  11
HETATM   11  C   UNL     1     -45.797  57.211 -60.115  1.00  0.00    -0.006 A 
HETATM   12  C   UNL     1     -46.611  56.230 -60.696  1.00  0.00     0.014 A 
HETATM   13  C   UNL     1     -47.723  56.586 -61.468  1.00  0.00     0.007 A 
HETATM   14  C   UNL     1     -48.042  57.931 -61.675  1.00  0.00    -0.062 A 
HETATM   15  C   UNL     1     -49.234  58.327 -62.495  1.00  0.00     0.048 C 
HETATM   16  C   UNL     1     -47.234  58.916 -61.096  1.00  0.00     0.007 A 
HETATM   17  C   UNL     1     -46.122  58.558 -60.328  1.00  0.00     0.014 A 
ENDBRANCH   9  11
ENDBRANCH   1   5
BRANCH   2  18
HETATM   18  N   UNL     1     -41.197  54.616 -55.129  1.00  0.00    -0.183 NA
HETATM   19  C   UNL     1     -41.806  53.949 -54.201  1.00  0.00     0.153 C 
BRANCH  19  20
HETATM   20  C   UNL     1     -41.068  53.456 -53.050  1.00  0.00     0.018 A 
HETATM   21  C   UNL     1     -41.079  54.043 -51.739  1.00  0.00     0.004 A 
HETATM   22  C   UNL     1     -40.233  53.286 -50.932  1.00  0.00     0.043 A 
HETATM   23  C   UNL     1     -41.732  55.155 -51.164  1.00  0.00     0.014 A 
HETATM   24  C   UNL     1     -40.000  53.583 -49.583  1.00  0.00     0.030 A 
HETATM   25  N   UNL     1     -39.733  52.272 -51.711  1.00  0.00    -0.358 N 
HETATM   26  C   UNL     1     -40.656  54.691 -49.041  1.00  0.00     0.002 A 
HETATM   27  C   UNL     1     -41.512  55.467 -49.817  1.00  0.00     0.001 A 
HETATM   28  H   UNL     1     -39.092  51.565 -51.381  1.00  0.00     0.166 HD
HETATM   29  C   UNL     1     -40.223  52.354 -52.992  1.00  0.00     0.018 A 
HETATM   30  C   UNL     1     -39.825  51.367 -54.030  1.00  0.00     0.069 C 
ENDBRANCH  19  20
ENDBRANCH   2  18
TORSDOF 4
ENDMDL
MODEL 4
REMARK VINA RESULT:      -8.7      6.365     10.564
REMARK  4 active torsions:
REMARK  status: ('A' for Active; 'I' for Inactive)
REMARK    1  A    between atoms: C_5  and  C_6 
REMARK    2  A    between atoms: C_10  and  C_11 
REMARK       I    between atoms: C_11  and  N_12 
REMARK    3  A    between atoms: N_12  and  N_13 
REMARK    4  A    between atoms: C_14  and  C_15 
ROOT
HETATM    1  C   UNL     1     -44.072  57.351 -51.088  1.00  0.00     0.289 C 
HETATM    2  N   UNL     1     -43.745  58.701 -51.106  1.00  0.00    -0.242 N 
HETATM    3  O   UNL     1     -45.089  56.882 -50.584  1.00  0.00    -0.264 OA
HETATM    4  H   UNL     1     -42.784  58.955 -51.305  1.00  0.00     0.192 HD
ENDROOT
BRANCH   1   5
HETATM    5  C   UNL     1     -43.096  56.494 -51.715  1.00  0.00     0.121 A 
HETATM    6  N   UNL     1     -41.994  57.006 -52.340  1.00  0.00    -0.272 N 
HETATM    7  N   UNL     1     -41.181  56.081 -52.867  1.00  0.00    -0.174 NA
HETATM    8  H   UNL     1     -41.751  57.987 -52.438  1.00  0.00     0.189 HD
HETATM    9  C   UNL     1     -41.747  54.906 -52.549  1.00  0.00     0.089 A 
HETATM   10  C   UNL     1     -42.961  55.125 -51.835  1.00  0.00     0.071 A 
BRANCH   9  11
HETATM   11  C   UNL     1     -41.133  53.627 -52.922  1.00  0.00    -0.006 A 
HETATM   12  C   UNL     1     -40.250  52.965 -52.057  1.00  0.00     0.014 A 
HETATM   13  C   UNL     1     -39.665  51.747 -52.423  1.00  0.00     0.007 A 
HETATM   14  C   UNL     1     -39.951  51.167 -53.663  1.00  0.00    -0.062 A 
HETATM   15  C   UNL     1     -39.336  49.860 -54.066  1.00  0.00     0.048 C 
HETATM   16  C   UNL     1     -40.832  51.822 -54.530  1.00  0.00     0.007 A 
HETATM   17  C   UNL     1     -41.413  53.040 -54.163  1.00  0.00     0.014 A 
ENDBRANCH   9  11
ENDBRANCH   1   5
BRANCH   2  18
HETATM   18  N   UNL     1     -44.471  59.729 -50.550  1.00  0.00    -0.183 NA
HETATM   19  C   UNL     1     -43.842  60.780 -50.132  1.00  0.00     0.153 C 
BRANCH  19  20
HETATM   20  C   UNL     1     -44.579  61.891 -49.552  1.00  0.00     0.018 A 
HETATM   21  C   UNL     1     -44.932  62.025 -48.167  1.00  0.00     0.004 A 
HETATM   22  C   UNL     1     -45.647  63.214 -48.027  1.00  0.00     0.043 A 
HETATM   23  C   UNL     1     -44.712  61.240 -47.014  1.00  0.00     0.014 A 
HETATM   24  C   UNL     1     -46.156  63.656 -46.800  1.00  0.00     0.030 A 
HETATM   25  N   UNL     1     -45.718  63.789 -49.272  1.00  0.00    -0.358 N 
HETATM   26  C   UNL     1     -45.926  62.858 -45.677  1.00  0.00     0.002 A 
HETATM   27  C   UNL     1     -45.213  61.666 -45.779  1.00  0.00     0.001 A 
HETATM   28  H   UNL     1     -46.179  64.667 -49.466  1.00  0.00     0.166 HD
HETATM   29  C   UNL     1     -45.082  63.010 -50.207  1.00  0.00     0.018 A 
HETATM   30  C   UNL     1     -45.025  63.420 -51.635  1.00  0.00     0.069 C 
ENDBRANCH  19  20
ENDBRANCH   2  18
TORSDOF 4
ENDMDL
MODEL 5
REMARK VINA RESULT:      -8.2      1.346      2.888
REMARK  4 active torsions:
REMARK  status: ('A' for Active; 'I' for Inactive)
REMARK    1  A    between atoms: C_5  and  C_6 
REMARK    2  A    between atoms: C_10  and  C_11 
REMARK       I    between atoms: C_11  and  N_12 
REMARK    3  A    between atoms: N_12  and  N_13 
REMARK    4  A    between atoms: C_14  and  C_15 
ROOT
HETATM    1  C   UNL     1     -42.652  56.285 -55.717  1.00  0.00     0.289 C 
HETATM    2  N   UNL     1     -41.368  55.788 -55.531  1.00  0.00    -0.242 N 
HETATM    3  O   UNL     1     -43.528  56.307 -54.856  1.00  0.00    -0.264 OA
HETATM    4  H   UNL     1     -40.816  55.576 -56.354  1.00  0.00     0.192 HD
ENDROOT
BRANCH   1   5
HETATM    5  C   UNL     1     -42.909  56.786 -57.045  1.00  0.00     0.121 A 
HETATM    6  N   UNL     1     -43.584  56.039 -57.970  1.00  0.00    -0.272 N 
HETATM    7  N   UNL     1     -43.745  56.646 -59.154  1.00  0.00    -0.174 NA
HETATM    8  H   UNL     1     -43.954  55.102 -57.843  1.00  0.00     0.189 HD
HETATM    9  C   UNL     1     -43.187  57.857 -58.998  1.00  0.00     0.089 A 
HETATM   10  C   UNL     1     -42.638  57.977 -57.689  1.00  0.00     0.071 A 
BRANCH   9  11
HETATM   11  C   UNL     1     -43.190  58.852 -60.075  1.00  0.00    -0.006 A 
HETATM   12  C   UNL     1     -41.993  59.313 -60.642  1.00  0.00     0.014 A 
HETATM   13  C   UNL     1     -42.005  60.266 -61.667  1.00  0.00     0.007 A 
HETATM   14  C   UNL     1     -43.215  60.779 -62.145  1.00  0.00    -0.062 A 
HETATM   15  C   UNL     1     -43.243  61.796 -63.246  1.00  0.00     0.048 C 
HETATM   16  C   UNL     1     -44.413  60.322 -61.585  1.00  0.00     0.007 A 
HETATM   17  C   UNL     1     -44.398  59.372 -60.559  1.00  0.00     0.014 A 
ENDBRANCH   9  11
ENDBRANCH   1   5
BRANCH   2  18
HETATM   18  N   UNL     1     -40.867  55.218 -54.384  1.00  0.00    -0.183 NA
HETATM   19  C   UNL     1     -41.324  54.065 -54.010  1.00  0.00     0.153 C 
BRANCH  19  20
HETATM   20  C   UNL     1     -40.807  53.427 -52.811  1.00  0.00     0.018 A 
HETATM   21  C   UNL     1     -40.937  53.935 -51.474  1.00  0.00     0.004 A 
HETATM   22  C   UNL     1     -40.293  53.043 -50.619  1.00  0.00     0.043 A 
HETATM   23  C   UNL     1     -41.542  55.080 -50.911  1.00  0.00     0.014 A 
HETATM   24  C   UNL     1     -40.218  53.235 -49.234  1.00  0.00     0.030 A 
HETATM   25  N   UNL     1     -39.800  52.025 -51.398  1.00  0.00    -0.358 N 
HETATM   26  C   UNL     1     -40.823  54.377 -48.704  1.00  0.00     0.002 A 
HETATM   27  C   UNL     1     -41.478  55.288 -49.528  1.00  0.00     0.001 A 
HETATM   28  H   UNL     1     -39.288  51.232 -51.038  1.00  0.00     0.166 HD
HETATM   29  C   UNL     1     -40.097  52.235 -52.722  1.00  0.00     0.018 A 
HETATM   30  C   UNL     1     -39.666  51.269 -53.767  1.00  0.00     0.069 C 
ENDBRANCH  19  20
ENDBRANCH   2  18
TORSDOF 4
ENDMDL
MODEL 6
REMARK VINA RESULT:      -8.1      1.668      2.016
REMARK  4 active torsions:
REMARK  status: ('A' for Active; 'I' for Inactive)
REMARK    1  A    between atoms: C_5  and  C_6 
REMARK    2  A    between atoms: C_10  and  C_11 
REMARK       I    between atoms: C_11  and  N_12 
REMARK    3  A    between atoms: N_12  and  N_13 
REMARK    4  A    between atoms: C_14  and  C_15 
ROOT
HETATM    1  C   UNL     1     -42.930  56.049 -55.794  1.00  0.00     0.289 C 
HETATM    2  N   UNL     1     -41.838  55.189 -55.784  1.00  0.00    -0.242 N 
HETATM    3  O   UNL     1     -43.804  56.083 -54.932  1.00  0.00    -0.264 OA
HETATM    4  H   UNL     1     -41.329  55.057 -56.650  1.00  0.00     0.192 HD
ENDROOT
BRANCH   1   5
HETATM    5  C   UNL     1     -42.984  56.929 -56.936  1.00  0.00     0.121 A 
HETATM    6  N   UNL     1     -41.874  57.187 -57.691  1.00  0.00    -0.272 N 
HETATM    7  N   UNL     1     -42.090  58.020 -58.718  1.00  0.00    -0.174 NA
HETATM    8  H   UNL     1     -40.939  56.819 -57.543  1.00  0.00     0.189 HD
HETATM    9  C   UNL     1     -43.402  58.298 -58.664  1.00  0.00     0.089 A 
HETATM   10  C   UNL     1     -43.996  57.641 -57.548  1.00  0.00     0.071 A 
BRANCH   9  11
HETATM   11  C   UNL     1     -44.048  59.164 -59.656  1.00  0.00    -0.006 A 
HETATM   12  C   UNL     1     -45.346  59.656 -59.457  1.00  0.00     0.014 A 
HETATM   13  C   UNL     1     -45.955  60.478 -60.410  1.00  0.00     0.007 A 
HETATM   14  C   UNL     1     -45.280  60.825 -61.585  1.00  0.00    -0.062 A 
HETATM   15  C   UNL     1     -45.919  61.710 -62.613  1.00  0.00     0.048 C 
HETATM   16  C   UNL     1     -43.984  60.339 -61.789  1.00  0.00     0.007 A 
HETATM   17  C   UNL     1     -43.378  59.515 -60.836  1.00  0.00     0.014 A 
ENDBRANCH   9  11
ENDBRANCH   1   5
BRANCH   2  18
HETATM   18  N   UNL     1     -41.561  54.226 -54.843  1.00  0.00    -0.183 NA
HETATM   19  C   UNL     1     -40.740  54.511 -53.883  1.00  0.00     0.153 C 
BRANCH  19  20
HETATM   20  C   UNL     1     -40.436  53.521 -52.862  1.00  0.00     0.018 A 
HETATM   21  C   UNL     1     -40.125  52.141 -53.107  1.00  0.00     0.004 A 
HETATM   22  C   UNL     1     -39.915  51.531 -51.872  1.00  0.00     0.043 A 
HETATM   23  C   UNL     1     -40.005  51.350 -54.270  1.00  0.00     0.014 A 
HETATM   24  C   UNL     1     -39.597  50.174 -51.737  1.00  0.00     0.030 A 
HETATM   25  N   UNL     1     -40.080  52.499 -50.912  1.00  0.00    -0.358 N 
HETATM   26  C   UNL     1     -39.488  49.414 -52.904  1.00  0.00     0.002 A 
HETATM   27  C   UNL     1     -39.687  49.992 -54.155  1.00  0.00     0.001 A 
HETATM   28  H   UNL     1     -39.982  52.337 -49.919  1.00  0.00     0.166 HD
HETATM   29  C   UNL     1     -40.394  53.706 -51.485  1.00  0.00     0.018 A 
HETATM   30  C   UNL     1     -40.625  54.915 -50.650  1.00  0.00     0.069 C 
ENDBRANCH  19  20
ENDBRANCH   2  18
TORSDOF 4
ENDMDL
MODEL 7
REMARK VINA RESULT:      -8.1      6.015     10.698
REMARK  4 active torsions:
REMARK  status: ('A' for Active; 'I' for Inactive)
REMARK    1  A    between atoms: C_5  and  C_6 
REMARK    2  A    between atoms: C_10  and  C_11 
REMARK       I    between atoms: C_11  and  N_12 
REMARK    3  A    between atoms: N_12  and  N_13 
REMARK    4  A    between atoms: C_14  and  C_15 
ROOT
HETATM    1  C   UNL     1     -43.968  57.547 -51.010  1.00  0.00     0.289 C 
HETATM    2  N   UNL     1     -43.430  58.821 -50.875  1.00  0.00    -0.242 N 
HETATM    3  O   UNL     1     -45.166  57.282 -50.957  1.00  0.00    -0.264 OA
HETATM    4  H   UNL     1     -42.440  58.900 -50.674  1.00  0.00     0.192 HD
ENDROOT
BRANCH   1   5
HETATM    5  C   UNL     1     -42.990  56.506 -51.213  1.00  0.00     0.121 A 
HETATM    6  N   UNL     1     -41.928  56.352 -50.367  1.00  0.00    -0.272 N 
HETATM    7  N   UNL     1     -41.113  55.338 -50.689  1.00  0.00    -0.174 NA
HETATM    8  H   UNL     1     -41.711  56.918 -49.553  1.00  0.00     0.189 HD
HETATM    9  C   UNL     1     -41.675  54.775 -51.770  1.00  0.00     0.089 A 
HETATM   10  C   UNL     1     -42.850  55.490 -52.138  1.00  0.00     0.071 A 
BRANCH   9  11
HETATM   11  C   UNL     1     -41.094  53.592 -52.414  1.00  0.00    -0.006 A 
HETATM   12  C   UNL     1     -41.434  53.239 -53.728  1.00  0.00     0.014 A 
HETATM   13  C   UNL     1     -40.877  52.107 -54.333  1.00  0.00     0.007 A 
HETATM   14  C   UNL     1     -39.969  51.304 -53.636  1.00  0.00    -0.062 A 
HETATM   15  C   UNL     1     -39.361  50.090 -54.274  1.00  0.00     0.048 C 
HETATM   16  C   UNL     1     -39.625  51.651 -52.325  1.00  0.00     0.007 A 
HETATM   17  C   UNL     1     -40.184  52.781 -51.722  1.00  0.00     0.014 A 
ENDBRANCH   9  11
ENDBRANCH   1   5
BRANCH   2  18
HETATM   18  N   UNL     1     -44.124  59.983 -50.636  1.00  0.00    -0.183 NA
HETATM   19  C   UNL     1     -44.208  60.865 -51.581  1.00  0.00     0.153 C 
BRANCH  19  20
HETATM   20  C   UNL     1     -44.946  62.099 -51.367  1.00  0.00     0.018 A 
HETATM   21  C   UNL     1     -46.296  62.346 -51.788  1.00  0.00     0.004 A 
HETATM   22  C   UNL     1     -46.624  63.647 -51.411  1.00  0.00     0.043 A 
HETATM   23  C   UNL     1     -47.273  61.581 -52.463  1.00  0.00     0.014 A 
HETATM   24  C   UNL     1     -47.872  64.225 -51.674  1.00  0.00     0.030 A 
HETATM   25  N   UNL     1     -45.526  64.170 -50.774  1.00  0.00    -0.358 N 
HETATM   26  C   UNL     1     -48.818  63.446 -52.345  1.00  0.00     0.002 A 
HETATM   27  C   UNL     1     -48.526  62.142 -52.735  1.00  0.00     0.001 A 
HETATM   28  H   UNL     1     -45.483  65.103 -50.390  1.00  0.00     0.166 HD
HETATM   29  C   UNL     1     -44.502  63.255 -50.736  1.00  0.00     0.018 A 
HETATM   30  C   UNL     1     -43.200  63.588 -50.100  1.00  0.00     0.069 C 
ENDBRANCH  19  20
ENDBRANCH   2  18
TORSDOF 4
ENDMDL
MODEL 8
REMARK VINA RESULT:      -8.1      6.141      8.293
REMARK  4 active torsions:
REMARK  status: ('A' for Active; 'I' for Inactive)
REMARK    1  A    between atoms: C_5  and  C_6 
REMARK    2  A    between atoms: C_10  and  C_11 
REMARK       I    between atoms: C_11  and  N_12 
REMARK    3  A    between atoms: N_12  and  N_13 
REMARK    4  A    between atoms: C_14  and  C_15 
ROOT
HETATM    1  C   UNL     1     -41.940  59.584 -52.427  1.00  0.00     0.289 C 
HETATM    2  N   UNL     1     -42.082  58.260 -52.031  1.00  0.00    -0.242 N 
HETATM    3  O   UNL     1     -41.273  59.962 -53.386  1.00  0.00    -0.264 OA
HETATM    4  H   UNL     1     -42.428  58.078 -51.096  1.00  0.00     0.192 HD
ENDROOT
BRANCH   1   5
HETATM    5  C   UNL     1     -42.645  60.532 -51.598  1.00  0.00     0.121 A 
HETATM    6  N   UNL     1     -43.274  61.619 -52.136  1.00  0.00    -0.272 N 
HETATM    7  N   UNL     1     -43.887  62.400 -51.236  1.00  0.00    -0.174 NA
HETATM    8  H   UNL     1     -43.313  61.877 -53.118  1.00  0.00     0.189 HD
HETATM    9  C   UNL     1     -43.686  61.788 -50.058  1.00  0.00     0.089 A 
HETATM   10  C   UNL     1     -42.897  60.617 -50.243  1.00  0.00     0.071 A 
BRANCH   9  11
HETATM   11  C   UNL     1     -44.239  62.321 -48.808  1.00  0.00    -0.006 A 
HETATM   12  C   UNL     1     -44.727  61.468 -47.807  1.00  0.00     0.014 A 
HETATM   13  C   UNL     1     -45.256  61.985 -46.620  1.00  0.00     0.007 A 
HETATM   14  C   UNL     1     -45.310  63.366 -46.409  1.00  0.00    -0.062 A 
HETATM   15  C   UNL     1     -45.870  63.934 -45.138  1.00  0.00     0.048 C 
HETATM   16  C   UNL     1     -44.823  64.223 -47.402  1.00  0.00     0.007 A 
HETATM   17  C   UNL     1     -44.297  63.704 -48.589  1.00  0.00     0.014 A 
ENDBRANCH   9  11
ENDBRANCH   1   5
BRANCH   2  18
HETATM   18  N   UNL     1     -41.493  57.162 -52.612  1.00  0.00    -0.183 NA
HETATM   19  C   UNL     1     -42.228  56.132 -52.887  1.00  0.00     0.153 C 
BRANCH  19  20
HETATM   20  C   UNL     1     -41.641  54.960 -53.515  1.00  0.00     0.018 A 
HETATM   21  C   UNL     1     -40.935  53.914 -52.831  1.00  0.00     0.004 A 
HETATM   22  C   UNL     1     -40.518  52.991 -53.788  1.00  0.00     0.043 A 
HETATM   23  C   UNL     1     -40.607  53.668 -51.479  1.00  0.00     0.014 A 
HETATM   24  C   UNL     1     -39.788  51.839 -53.468  1.00  0.00     0.030 A 
HETATM   25  N   UNL     1     -40.960  53.447 -55.005  1.00  0.00    -0.358 N 
HETATM   26  C   UNL     1     -39.475  51.622 -52.124  1.00  0.00     0.002 A 
HETATM   27  C   UNL     1     -39.879  52.521 -51.140  1.00  0.00     0.001 A 
HETATM   28  H   UNL     1     -40.802  52.969 -55.882  1.00  0.00     0.166 HD
HETATM   29  C   UNL     1     -41.639  54.632 -54.866  1.00  0.00     0.018 A 
HETATM   30  C   UNL     1     -42.214  55.329 -56.046  1.00  0.00     0.069 C 
ENDBRANCH  19  20
ENDBRANCH   2  18
TORSDOF 4
ENDMDL
MODEL 9
REMARK VINA RESULT:      -8.0      3.303     10.292
REMARK  4 active torsions:
REMARK  status: ('A' for Active; 'I' for Inactive)
REMARK    1  A    between atoms: C_5  and  C_6 
REMARK    2  A    between atoms: C_10  and  C_11 
REMARK       I    between atoms: C_11  and  N_12 
REMARK    3  A    between atoms: N_12  and  N_13 
REMARK    4  A    between atoms: C_14  and  C_15 
ROOT
HETATM    1  C   UNL     1     -42.581  57.434 -56.453  1.00  0.00     0.289 C 
HETATM    2  N   UNL     1     -43.726  56.898 -57.029  1.00  0.00    -0.242 N 
HETATM    3  O   UNL     1     -42.096  58.525 -56.740  1.00  0.00    -0.264 OA
HETATM    4  H   UNL     1     -43.893  55.905 -56.920  1.00  0.00     0.192 HD
ENDROOT
BRANCH   1   5
HETATM    5  C   UNL     1     -41.962  56.588 -55.462  1.00  0.00     0.121 A 
HETATM    6  N   UNL     1     -41.493  57.095 -54.283  1.00  0.00    -0.272 N 
HETATM    7  N   UNL     1     -40.950  56.180 -53.469  1.00  0.00    -0.174 NA
HETATM    8  H   UNL     1     -41.516  58.066 -53.986  1.00  0.00     0.189 HD
HETATM    9  C   UNL     1     -41.096  55.014 -54.116  1.00  0.00     0.089 A 
HETATM   10  C   UNL     1     -41.716  55.231 -55.381  1.00  0.00     0.071 A 
BRANCH   9  11
HETATM   11  C   UNL     1     -40.653  53.745 -53.530  1.00  0.00    -0.006 A 
HETATM   12  C   UNL     1     -40.349  52.638 -54.336  1.00  0.00     0.014 A 
HETATM   13  C   UNL     1     -39.930  51.430 -53.767  1.00  0.00     0.007 A 
HETATM   14  C   UNL     1     -39.809  51.303 -52.380  1.00  0.00    -0.062 A 
HETATM   15  C   UNL     1     -39.356  50.016 -51.758  1.00  0.00     0.048 C 
HETATM   16  C   UNL     1     -40.109  52.404 -51.570  1.00  0.00     0.007 A 
HETATM   17  C   UNL     1     -40.530  53.609 -52.141  1.00  0.00     0.014 A 
ENDBRANCH   9  11
ENDBRANCH   1   5
BRANCH   2  18
HETATM   18  N   UNL     1     -44.489  57.468 -58.021  1.00  0.00    -0.183 NA
HETATM   19  C   UNL     1     -45.564  58.110 -57.689  1.00  0.00     0.153 C 
BRANCH  19  20
HETATM   20  C   UNL     1     -46.386  58.738 -58.711  1.00  0.00     0.018 A 
HETATM   21  C   UNL     1     -46.979  58.065 -59.832  1.00  0.00     0.004 A 
HETATM   22  C   UNL     1     -47.669  59.018 -60.578  1.00  0.00     0.043 A 
HETATM   23  C   UNL     1     -46.989  56.728 -60.286  1.00  0.00     0.014 A 
HETATM   24  C   UNL     1     -48.365  58.708 -61.754  1.00  0.00     0.030 A 
HETATM   25  N   UNL     1     -47.516  60.222 -59.935  1.00  0.00    -0.358 N 
HETATM   26  C   UNL     1     -48.355  57.378 -62.181  1.00  0.00     0.002 A 
HETATM   27  C   UNL     1     -47.679  56.399 -61.458  1.00  0.00     0.001 A 
HETATM   28  H   UNL     1     -47.917  61.092 -60.254  1.00  0.00     0.166 HD
HETATM   29  C   UNL     1     -46.746  60.077 -58.807  1.00  0.00     0.018 A 
HETATM   30  C   UNL     1     -46.433  61.242 -57.938  1.00  0.00     0.069 C 
ENDBRANCH  19  20
ENDBRANCH   2  18
TORSDOF 4
ENDMDL
MODEL 10
REMARK VINA RESULT:      -7.9      2.385     10.515
REMARK  4 active torsions:
REMARK  status: ('A' for Active; 'I' for Inactive)
REMARK    1  A    between atoms: C_5  and  C_6 
REMARK    2  A    between atoms: C_10  and  C_11 
REMARK       I    between atoms: C_11  and  N_12 
REMARK    3  A    between atoms: N_12  and  N_13 
REMARK    4  A    between atoms: C_14  and  C_15 
ROOT
HETATM    1  C   UNL     1     -42.855  56.498 -57.892  1.00  0.00     0.289 C 
HETATM    2  N   UNL     1     -42.001  57.594 -57.915  1.00  0.00    -0.242 N 
HETATM    3  O   UNL     1     -43.616  56.182 -58.802  1.00  0.00    -0.264 OA
HETATM    4  H   UNL     1     -41.616  57.917 -57.035  1.00  0.00     0.192 HD
ENDROOT
BRANCH   1   5
HETATM    5  C   UNL     1     -42.799  55.728 -56.673  1.00  0.00     0.121 A 
HETATM    6  N   UNL     1     -43.503  54.565 -56.532  1.00  0.00    -0.272 N 
HETATM    7  N   UNL     1     -43.343  53.966 -55.345  1.00  0.00    -0.174 NA
HETATM    8  H   UNL     1     -44.115  54.136 -57.221  1.00  0.00     0.189 HD
HETATM    9  C   UNL     1     -42.470  54.743 -54.684  1.00  0.00     0.089 A 
HETATM   10  C   UNL     1     -42.116  55.869 -55.482  1.00  0.00     0.071 A 
BRANCH   9  11
HETATM   11  C   UNL     1     -42.002  54.403 -53.335  1.00  0.00    -0.006 A 
HETATM   12  C   UNL     1     -40.713  53.895 -53.120  1.00  0.00     0.014 A 
HETATM   13  C   UNL     1     -40.277  53.571 -51.831  1.00  0.00     0.007 A 
HETATM   14  C   UNL     1     -41.121  53.746 -50.730  1.00  0.00    -0.062 A 
HETATM   15  C   UNL     1     -40.665  53.407 -49.343  1.00  0.00     0.048 C 
HETATM   16  C   UNL     1     -42.408  54.254 -50.938  1.00  0.00     0.007 A 
HETATM   17  C   UNL     1     -42.843  54.575 -52.228  1.00  0.00     0.014 A 
ENDBRANCH   9  11
ENDBRANCH   1   5
BRANCH   2  18
HETATM   18  N   UNL     1     -41.878  58.516 -58.928  1.00  0.00    -0.183 NA
HETATM   19  C   UNL     1     -42.089  59.766 -58.662  1.00  0.00     0.153 C 
BRANCH  19  20
HETATM   20  C   UNL     1     -41.953  60.769 -59.705  1.00  0.00     0.018 A 
HETATM   21  C   UNL     1     -41.017  61.858 -59.699  1.00  0.00     0.004 A 
HETATM   22  C   UNL     1     -41.220  62.595 -60.863  1.00  0.00     0.043 A 
HETATM   23  C   UNL     1     -40.013  62.287 -58.804  1.00  0.00     0.014 A 
HETATM   24  C   UNL     1     -40.478  63.741 -61.179  1.00  0.00     0.030 A 
HETATM   25  N   UNL     1     -42.231  61.979 -61.559  1.00  0.00    -0.358 N 
HETATM   26  C   UNL     1     -39.493  64.144 -60.274  1.00  0.00     0.002 A 
HETATM   27  C   UNL     1     -39.260  63.429 -59.103  1.00  0.00     0.001 A 
HETATM   28  H   UNL     1     -42.585  62.300 -62.449  1.00  0.00     0.166 HD
HETATM   29  C   UNL     1     -42.689  60.876 -60.881  1.00  0.00     0.018 A 
HETATM   30  C   UNL     1     -43.788  60.039 -61.431  1.00  0.00     0.069 C 
ENDBRANCH  19  20
ENDBRANCH   2  18
TORSDOF 4
ENDMDL
