MODEL 1
REMARK VINA RESULT:      -8.8      0.000      0.000
REMARK  5 active torsions:
REMARK  status: ('A' for Active; 'I' for Inactive)
REMARK    1  A    between atoms: C_9  and  C_10 
REMARK       I    between atoms: C_10  and  N_11 
REMARK    2  A    between atoms: N_11  and  C_12 
REMARK    3  A    between atoms: C_12  and  C_13 
REMARK    4  A    between atoms: C_12  and  C_16 
REMARK    5  A    between atoms: C_19  and  O_20 
ROOT
HETATM    1  C   UNL     1     -42.707  54.315 -55.695  1.00  0.00     0.273 C 
HETATM    2  N   UNL     1     -41.598  54.068 -54.925  1.00  0.00    -0.346 N 
HETATM    3  O   UNL     1     -43.695  53.587 -55.726  1.00  0.00    -0.266 OA
HETATM    4  H   UNL     1     -40.865  54.767 -54.978  1.00  0.00     0.163 HD
ENDROOT
BRANCH   2   5
HETATM    5  C   UNL     1     -41.483  52.964 -54.008  1.00  0.00     0.122 C 
BRANCH   5   6
HETATM    6  C   UNL     1     -40.249  52.126 -54.264  1.00  0.00     0.013 A 
HETATM    7  C   UNL     1     -39.774  51.108 -53.250  1.00  0.00     0.007 A 
HETATM    8  C   UNL     1     -40.281  50.647 -54.589  1.00  0.00     0.007 A 
ENDBRANCH   5   6
BRANCH   5   9
HETATM    9  C   UNL     1     -41.483  53.491 -52.581  1.00  0.00    -0.035 A 
HETATM   10  C   UNL     1     -40.287  53.533 -51.851  1.00  0.00     0.012 A 
HETATM   11  C   UNL     1     -40.277  53.987 -50.530  1.00  0.00     0.037 A 
HETATM   12  C   UNL     1     -41.456  54.400 -49.908  1.00  0.00     0.068 A 
HETATM   13  C   UNL     1     -42.652  54.359 -50.622  1.00  0.00     0.037 A 
HETATM   14  C   UNL     1     -42.665  53.906 -51.947  1.00  0.00     0.012 A 
BRANCH  12  15
HETATM   15  O   UNL     1     -41.305  54.816 -48.613  1.00  0.00    -0.356 OA
HETATM   16  C   UNL     1     -40.377  54.097 -47.812  1.00  0.00     0.210 C 
ENDBRANCH  12  15
ENDBRANCH   5   9
ENDBRANCH   2   5
BRANCH   1  17
HETATM   17  C   UNL     1     -42.589  55.558 -56.477  1.00  0.00     0.157 A 
HETATM   18  C   UNL     1     -43.086  55.807 -57.790  1.00  0.00     0.029 A 
HETATM   19  C   UNL     1     -43.794  55.075 -58.766  1.00  0.00     0.023 A 
HETATM   20  C   UNL     1     -42.735  57.123 -58.067  1.00  0.00     0.063 A 
HETATM   21  C   UNL     1     -44.124  55.686 -59.987  1.00  0.00    -0.061 A 
HETATM   22  C   UNL     1     -44.883  54.927 -61.037  1.00  0.00     0.048 C 
HETATM   23  C   UNL     1     -43.754  57.017 -60.222  1.00  0.00     0.009 A 
HETATM   24  C   UNL     1     -43.052  57.762 -59.268  1.00  0.00     0.032 A 
HETATM   25  N   UNL     1     -42.074  57.560 -56.954  1.00  0.00    -0.277 N 
HETATM   26  H   UNL     1     -41.676  58.480 -56.801  1.00  0.00     0.189 HD
HETATM   27  N   UNL     1     -41.962  56.646 -55.975  1.00  0.00    -0.168 NA
ENDBRANCH   1  17
TORSDOF 5
ENDMDL
MODEL 2
REMARK VINA RESULT:      -8.3      3.862      7.126
REMARK  5 active torsions:
REMARK  status: ('A' for Active; 'I' for Inactive)
REMARK    1  A    between atoms: C_9  and  C_10 
REMARK       I    between atoms: C_10  and  N_11 
REMARK    2  A    between atoms: N_11  and  C_12 
REMARK    3  A    between atoms: C_12  and  C_13 
REMARK    4  A    between atoms: C_12  and  C_16 
REMARK    5  A    between atoms: C_19  and  O_20 
ROOT
HETATM    1  C   UNL     1     -41.094  55.269 -53.172  1.00  0.00     0.273 C 
HETATM    2  N   UNL     1     -42.255  55.910 -52.815  1.00  0.00    -0.346 N 
HETATM    3  O   UNL     1     -40.441  55.542 -54.174  1.00  0.00    -0.266 OA
HETATM    4  H   UNL     1     -42.678  55.598 -51.948  1.00  0.00     0.163 HD
ENDROOT
BRANCH   2   5
HETATM    5  C   UNL     1     -42.811  57.028 -53.533  1.00  0.00     0.122 C 
BRANCH   5   6
HETATM    6  C   UNL     1     -43.688  56.595 -54.688  1.00  0.00     0.013 A 
HETATM    7  C   UNL     1     -44.390  57.614 -55.559  1.00  0.00     0.007 A 
HETATM    8  C   UNL     1     -43.308  56.749 -56.146  1.00  0.00     0.007 A 
ENDBRANCH   5   6
BRANCH   5   9
HETATM    9  C   UNL     1     -43.592  57.908 -52.570  1.00  0.00    -0.035 A 
HETATM   10  C   UNL     1     -44.615  57.352 -51.788  1.00  0.00     0.012 A 
HETATM   11  C   UNL     1     -45.361  58.153 -50.920  1.00  0.00     0.037 A 
HETATM   12  C   UNL     1     -45.110  59.523 -50.820  1.00  0.00     0.068 A 
HETATM   13  C   UNL     1     -44.099  60.088 -51.595  1.00  0.00     0.037 A 
HETATM   14  C   UNL     1     -43.348  59.287 -52.464  1.00  0.00     0.012 A 
BRANCH  12  15
HETATM   15  O   UNL     1     -45.916  60.189 -49.937  1.00  0.00    -0.356 OA
HETATM   16  C   UNL     1     -45.884  61.609 -49.986  1.00  0.00     0.210 C 
ENDBRANCH  12  15
ENDBRANCH   5   9
ENDBRANCH   2   5
BRANCH   1  17
HETATM   17  C   UNL     1     -40.711  54.217 -52.214  1.00  0.00     0.157 A 
HETATM   18  C   UNL     1     -40.360  52.866 -52.504  1.00  0.00     0.029 A 
HETATM   19  C   UNL     1     -40.253  52.069 -53.662  1.00  0.00     0.023 A 
HETATM   20  C   UNL     1     -40.065  52.296 -51.271  1.00  0.00     0.063 A 
HETATM   21  C   UNL     1     -39.856  50.726 -53.545  1.00  0.00    -0.061 A 
HETATM   22  C   UNL     1     -39.729  49.862 -54.766  1.00  0.00     0.048 C 
HETATM   23  C   UNL     1     -39.564  50.194 -52.283  1.00  0.00     0.009 A 
HETATM   24  C   UNL     1     -39.663  50.966 -51.120  1.00  0.00     0.032 A 
HETATM   25  N   UNL     1     -40.255  53.295 -50.358  1.00  0.00    -0.277 N 
HETATM   26  H   UNL     1     -40.128  53.238 -49.354  1.00  0.00     0.189 HD
HETATM   27  N   UNL     1     -40.647  54.467 -50.886  1.00  0.00    -0.168 NA
ENDBRANCH   1  17
TORSDOF 5
ENDMDL
MODEL 3
REMARK VINA RESULT:      -8.1      3.541      7.748
REMARK  5 active torsions:
REMARK  status: ('A' for Active; 'I' for Inactive)
REMARK    1  A    between atoms: C_9  and  C_10 
REMARK       I    between atoms: C_10  and  N_11 
REMARK    2  A    between atoms: N_11  and  C_12 
REMARK    3  A    between atoms: C_12  and  C_13 
REMARK    4  A    between atoms: C_12  and  C_16 
REMARK    5  A    between atoms: C_19  and  O_20 
ROOT
HETATM    1  C   UNL     1     -42.845  55.678 -50.659  1.00  0.00     0.273 C 
HETATM    2  N   UNL     1     -42.195  56.783 -51.148  1.00  0.00    -0.346 N 
HETATM    3  O   UNL     1     -44.063  55.601 -50.529  1.00  0.00    -0.266 OA
HETATM    4  H   UNL     1     -41.187  56.699 -51.224  1.00  0.00     0.163 HD
ENDROOT
BRANCH   2   5
HETATM    5  C   UNL     1     -42.863  57.962 -51.635  1.00  0.00     0.122 C 
BRANCH   5   6
HETATM    6  C   UNL     1     -42.028  59.212 -51.464  1.00  0.00     0.013 A 
HETATM    7  C   UNL     1     -42.512  60.549 -51.981  1.00  0.00     0.007 A 
HETATM    8  C   UNL     1     -42.366  60.332 -50.501  1.00  0.00     0.007 A 
ENDBRANCH   5   6
BRANCH   5   9
HETATM    9  C   UNL     1     -43.234  57.764 -53.097  1.00  0.00    -0.035 A 
HETATM   10  C   UNL     1     -42.234  57.486 -54.040  1.00  0.00     0.012 A 
HETATM   11  C   UNL     1     -42.555  57.331 -55.391  1.00  0.00     0.037 A 
HETATM   12  C   UNL     1     -43.874  57.457 -55.831  1.00  0.00     0.068 A 
HETATM   13  C   UNL     1     -44.876  57.738 -54.903  1.00  0.00     0.037 A 
HETATM   14  C   UNL     1     -44.558  57.892 -53.548  1.00  0.00     0.012 A 
BRANCH  12  15
HETATM   15  O   UNL     1     -44.048  57.286 -57.177  1.00  0.00    -0.356 OA
HETATM   16  C   UNL     1     -43.293  56.252 -57.794  1.00  0.00     0.210 C 
ENDBRANCH  12  15
ENDBRANCH   5   9
ENDBRANCH   2   5
BRANCH   1  17
HETATM   17  C   UNL     1     -41.921  54.584 -50.311  1.00  0.00     0.157 A 
HETATM   18  C   UNL     1     -41.242  53.705 -51.206  1.00  0.00     0.029 A 
HETATM   19  C   UNL     1     -41.181  53.524 -52.603  1.00  0.00     0.023 A 
HETATM   20  C   UNL     1     -40.484  52.874 -50.390  1.00  0.00     0.063 A 
HETATM   21  C   UNL     1     -40.361  52.514 -53.135  1.00  0.00    -0.061 A 
HETATM   22  C   UNL     1     -40.275  52.309 -54.620  1.00  0.00     0.048 C 
HETATM   23  C   UNL     1     -39.609  51.702 -52.276  1.00  0.00     0.009 A 
HETATM   24  C   UNL     1     -39.656  51.864 -50.886  1.00  0.00     0.032 A 
HETATM   25  N   UNL     1     -40.747  53.285 -49.113  1.00  0.00    -0.277 N 
HETATM   26  H   UNL     1     -40.363  52.903 -48.257  1.00  0.00     0.189 HD
HETATM   27  N   UNL     1     -41.610  54.311 -49.023  1.00  0.00    -0.168 NA
ENDBRANCH   1  17
TORSDOF 5
ENDMDL
MODEL 4
REMARK VINA RESULT:      -8.0      2.303      3.859
REMARK  5 active torsions:
REMARK  status: ('A' for Active; 'I' for Inactive)
REMARK    1  A    between atoms: C_9  and  C_10 
REMARK       I    between atoms: C_10  and  N_11 
REMARK    2  A    between atoms: N_11  and  C_12 
REMARK    3  A    between atoms: C_12  and  C_13 
REMARK    4  A    between atoms: C_12  and  C_16 
REMARK    5  A    between atoms: C_19  and  O_20 
ROOT
HETATM    1  C   UNL     1     -42.494  57.754 -54.619  1.00  0.00     0.273 C 
HETATM    2  N   UNL     1     -41.956  56.517 -54.365  1.00  0.00    -0.346 N 
HETATM    3  O   UNL     1     -43.077  58.433 -53.779  1.00  0.00    -0.266 OA
HETATM    4  H   UNL     1     -41.480  56.078 -55.146  1.00  0.00     0.163 HD
ENDROOT
BRANCH   2   5
HETATM    5  C   UNL     1     -41.946  55.893 -53.067  1.00  0.00     0.122 C 
BRANCH   5   6
HETATM    6  C   UNL     1     -43.340  55.701 -52.508  1.00  0.00     0.013 A 
HETATM    7  C   UNL     1     -43.582  54.816 -51.305  1.00  0.00     0.007 A 
HETATM    8  C   UNL     1     -43.819  56.297 -51.201  1.00  0.00     0.007 A 
ENDBRANCH   5   6
BRANCH   5   9
HETATM    9  C   UNL     1     -41.217  54.562 -53.152  1.00  0.00    -0.035 A 
HETATM   10  C   UNL     1     -41.167  53.868 -54.370  1.00  0.00     0.012 A 
HETATM   11  C   UNL     1     -40.526  52.630 -54.457  1.00  0.00     0.037 A 
HETATM   12  C   UNL     1     -39.930  52.054 -53.334  1.00  0.00     0.068 A 
HETATM   13  C   UNL     1     -39.978  52.731 -52.116  1.00  0.00     0.037 A 
HETATM   14  C   UNL     1     -40.617  53.974 -52.027  1.00  0.00     0.012 A 
BRANCH  12  15
HETATM   15  O   UNL     1     -39.342  50.839 -53.557  1.00  0.00    -0.356 OA
HETATM   16  C   UNL     1     -40.008  49.960 -54.453  1.00  0.00     0.210 C 
ENDBRANCH  12  15
ENDBRANCH   5   9
ENDBRANCH   2   5
BRANCH   1  17
HETATM   17  C   UNL     1     -42.289  58.185 -56.013  1.00  0.00     0.157 A 
HETATM   18  C   UNL     1     -42.622  57.470 -57.201  1.00  0.00     0.029 A 
HETATM   19  C   UNL     1     -43.199  56.220 -57.507  1.00  0.00     0.023 A 
HETATM   20  C   UNL     1     -42.249  58.307 -58.245  1.00  0.00     0.063 A 
HETATM   21  C   UNL     1     -43.380  55.852 -58.851  1.00  0.00    -0.061 A 
HETATM   22  C   UNL     1     -44.000  54.529 -59.200  1.00  0.00     0.048 C 
HETATM   23  C   UNL     1     -42.994  56.729 -59.872  1.00  0.00     0.009 A 
HETATM   24  C   UNL     1     -42.419  57.974 -59.591  1.00  0.00     0.032 A 
HETATM   25  N   UNL     1     -41.733  59.422 -57.645  1.00  0.00    -0.277 N 
HETATM   26  H   UNL     1     -41.363  60.247 -58.103  1.00  0.00     0.189 HD
HETATM   27  N   UNL     1     -41.736  59.386 -56.302  1.00  0.00    -0.168 NA
ENDBRANCH   1  17
TORSDOF 5
ENDMDL
MODEL 5
REMARK VINA RESULT:      -7.9      2.486      4.311
REMARK  5 active torsions:
REMARK  status: ('A' for Active; 'I' for Inactive)
REMARK    1  A    between atoms: C_9  and  C_10 
REMARK       I    between atoms: C_10  and  N_11 
REMARK    2  A    between atoms: N_11  and  C_12 
REMARK    3  A    between atoms: C_12  and  C_13 
REMARK    4  A    between atoms: C_12  and  C_16 
REMARK    5  A    between atoms: C_19  and  O_20 
ROOT
HETATM    1  C   UNL     1     -42.270  57.125 -55.483  1.00  0.00     0.273 C 
HETATM    2  N   UNL     1     -42.275  55.896 -54.872  1.00  0.00    -0.346 N 
HETATM    3  O   UNL     1     -42.065  58.182 -54.894  1.00  0.00    -0.266 OA
HETATM    4  H   UNL     1     -42.434  55.104 -55.484  1.00  0.00     0.163 HD
ENDROOT
BRANCH   2   5
HETATM    5  C   UNL     1     -41.970  55.687 -53.480  1.00  0.00     0.122 C 
BRANCH   5   6
HETATM    6  C   UNL     1     -43.207  55.710 -52.608  1.00  0.00     0.013 A 
HETATM    7  C   UNL     1     -43.131  56.138 -51.159  1.00  0.00     0.007 A 
HETATM    8  C   UNL     1     -43.895  56.978 -52.145  1.00  0.00     0.007 A 
ENDBRANCH   5   6
BRANCH   5   9
HETATM    9  C   UNL     1     -41.228  54.370 -53.318  1.00  0.00    -0.035 A 
HETATM   10  C   UNL     1     -40.989  53.559 -54.437  1.00  0.00     0.012 A 
HETATM   11  C   UNL     1     -40.334  52.333 -54.300  1.00  0.00     0.037 A 
HETATM   12  C   UNL     1     -39.912  51.885 -53.047  1.00  0.00     0.068 A 
HETATM   13  C   UNL     1     -40.148  52.680 -51.926  1.00  0.00     0.037 A 
HETATM   14  C   UNL     1     -40.802  53.911 -52.061  1.00  0.00     0.012 A 
BRANCH  12  15
HETATM   15  O   UNL     1     -39.289  50.668 -53.054  1.00  0.00    -0.356 OA
HETATM   16  C   UNL     1     -39.615  49.787 -54.121  1.00  0.00     0.210 C 
ENDBRANCH  12  15
ENDBRANCH   5   9
ENDBRANCH   2   5
BRANCH   1  17
HETATM   17  C   UNL     1     -42.532  57.039 -56.930  1.00  0.00     0.157 A 
HETATM   18  C   UNL     1     -42.344  58.060 -57.908  1.00  0.00     0.029 A 
HETATM   19  C   UNL     1     -41.901  59.399 -57.908  1.00  0.00     0.023 A 
HETATM   20  C   UNL     1     -42.713  57.478 -59.115  1.00  0.00     0.063 A 
HETATM   21  C   UNL     1     -41.845  60.110 -59.119  1.00  0.00    -0.061 A 
HETATM   22  C   UNL     1     -41.370  61.534 -59.143  1.00  0.00     0.048 C 
HETATM   23  C   UNL     1     -42.222  59.483 -60.313  1.00  0.00     0.009 A 
HETATM   24  C   UNL     1     -42.665  58.155 -60.336  1.00  0.00     0.032 A 
HETATM   25  N   UNL     1     -43.087  56.202 -58.799  1.00  0.00    -0.277 N 
HETATM   26  H   UNL     1     -43.414  55.486 -59.437  1.00  0.00     0.189 HD
HETATM   27  N   UNL     1     -42.996  55.899 -57.493  1.00  0.00    -0.168 NA
ENDBRANCH   1  17
TORSDOF 5
ENDMDL
MODEL 6
REMARK VINA RESULT:      -7.9      2.632      4.221
REMARK  5 active torsions:
REMARK  status: ('A' for Active; 'I' for Inactive)
REMARK    1  A    between atoms: C_9  and  C_10 
REMARK       I    between atoms: C_10  and  N_11 
REMARK    2  A    between atoms: N_11  and  C_12 
REMARK    3  A    between atoms: C_12  and  C_13 
REMARK    4  A    between atoms: C_12  and  C_16 
REMARK    5  A    between atoms: C_19  and  O_20 
ROOT
HETATM    1  C   UNL     1     -42.459  57.667 -54.653  1.00  0.00     0.273 C 
HETATM    2  N   UNL     1     -42.395  56.513 -53.913  1.00  0.00    -0.346 N 
HETATM    3  O   UNL     1     -41.667  58.598 -54.542  1.00  0.00    -0.266 OA
HETATM    4  H   UNL     1     -43.100  55.816 -54.126  1.00  0.00     0.163 HD
ENDROOT
BRANCH   2   5
HETATM    5  C   UNL     1     -41.351  56.221 -52.965  1.00  0.00     0.122 C 
BRANCH   5   6
HETATM    6  C   UNL     1     -41.765  56.516 -51.539  1.00  0.00     0.013 A 
HETATM    7  C   UNL     1     -40.820  57.204 -50.579  1.00  0.00     0.007 A 
HETATM    8  C   UNL     1     -42.078  57.903 -51.017  1.00  0.00     0.007 A 
ENDBRANCH   5   6
BRANCH   5   9
HETATM    9  C   UNL     1     -40.931  54.766 -53.108  1.00  0.00    -0.035 A 
HETATM   10  C   UNL     1     -40.700  53.989 -51.965  1.00  0.00     0.012 A 
HETATM   11  C   UNL     1     -40.286  52.660 -52.080  1.00  0.00     0.037 A 
HETATM   12  C   UNL     1     -40.085  52.081 -53.335  1.00  0.00     0.068 A 
HETATM   13  C   UNL     1     -40.307  52.846 -54.479  1.00  0.00     0.037 A 
HETATM   14  C   UNL     1     -40.724  54.177 -54.366  1.00  0.00     0.012 A 
BRANCH  12  15
HETATM   15  O   UNL     1     -39.676  50.776 -53.305  1.00  0.00    -0.356 OA
HETATM   16  C   UNL     1     -39.813  50.033 -54.509  1.00  0.00     0.210 C 
ENDBRANCH  12  15
ENDBRANCH   5   9
ENDBRANCH   2   5
BRANCH   1  17
HETATM   17  C   UNL     1     -43.582  57.666 -55.607  1.00  0.00     0.157 A 
HETATM   18  C   UNL     1     -43.512  57.713 -57.031  1.00  0.00     0.029 A 
HETATM   19  C   UNL     1     -42.486  57.780 -57.996  1.00  0.00     0.023 A 
HETATM   20  C   UNL     1     -44.832  57.670 -57.460  1.00  0.00     0.063 A 
HETATM   21  C   UNL     1     -42.821  57.803 -59.361  1.00  0.00    -0.061 A 
HETATM   22  C   UNL     1     -41.744  57.867 -60.406  1.00  0.00     0.048 C 
HETATM   23  C   UNL     1     -44.165  57.754 -59.750  1.00  0.00     0.009 A 
HETATM   24  C   UNL     1     -45.199  57.688 -58.808  1.00  0.00     0.032 A 
HETATM   25  N   UNL     1     -45.581  57.609 -56.318  1.00  0.00    -0.277 N 
HETATM   26  H   UNL     1     -46.591  57.563 -56.251  1.00  0.00     0.189 HD
HETATM   27  N   UNL     1     -44.865  57.607 -55.180  1.00  0.00    -0.168 NA
ENDBRANCH   1  17
TORSDOF 5
ENDMDL
MODEL 7
REMARK VINA RESULT:      -7.7      4.396      6.181
REMARK  5 active torsions:
REMARK  status: ('A' for Active; 'I' for Inactive)
REMARK    1  A    between atoms: C_9  and  C_10 
REMARK       I    between atoms: C_10  and  N_11 
REMARK    2  A    between atoms: N_11  and  C_12 
REMARK    3  A    between atoms: C_12  and  C_13 
REMARK    4  A    between atoms: C_12  and  C_16 
REMARK    5  A    between atoms: C_19  and  O_20 
ROOT
HETATM    1  C   UNL     1     -42.968  56.859 -52.497  1.00  0.00     0.273 C 
HETATM    2  N   UNL     1     -41.962  56.181 -53.140  1.00  0.00    -0.346 N 
HETATM    3  O   UNL     1     -44.159  56.584 -52.609  1.00  0.00    -0.266 OA
HETATM    4  H   UNL     1     -41.021  56.501 -52.937  1.00  0.00     0.163 HD
ENDROOT
BRANCH   2   5
HETATM    5  C   UNL     1     -42.172  55.022 -53.967  1.00  0.00     0.122 C 
BRANCH   5   6
HETATM    6  C   UNL     1     -41.839  55.281 -55.421  1.00  0.00     0.013 A 
HETATM    7  C   UNL     1     -42.838  54.975 -56.515  1.00  0.00     0.007 A 
HETATM    8  C   UNL     1     -42.443  56.401 -56.242  1.00  0.00     0.007 A 
ENDBRANCH   5   6
BRANCH   5   9
HETATM    9  C   UNL     1     -41.347  53.862 -53.429  1.00  0.00    -0.035 A 
HETATM   10  C   UNL     1     -41.123  53.744 -52.050  1.00  0.00     0.012 A 
HETATM   11  C   UNL     1     -40.343  52.702 -51.544  1.00  0.00     0.037 A 
HETATM   12  C   UNL     1     -39.764  51.762 -52.399  1.00  0.00     0.068 A 
HETATM   13  C   UNL     1     -39.976  51.872 -53.772  1.00  0.00     0.037 A 
HETATM   14  C   UNL     1     -40.759  52.915 -54.283  1.00  0.00     0.012 A 
BRANCH  12  15
HETATM   15  O   UNL     1     -39.022  50.799 -51.773  1.00  0.00    -0.356 OA
HETATM   16  C   UNL     1     -39.692  50.001 -50.805  1.00  0.00     0.210 C 
ENDBRANCH  12  15
ENDBRANCH   5   9
ENDBRANCH   2   5
BRANCH   1  17
HETATM   17  C   UNL     1     -42.463  57.953 -51.649  1.00  0.00     0.157 A 
HETATM   18  C   UNL     1     -42.884  59.315 -51.649  1.00  0.00     0.029 A 
HETATM   19  C   UNL     1     -43.821  60.090 -52.362  1.00  0.00     0.023 A 
HETATM   20  C   UNL     1     -42.122  59.929 -50.663  1.00  0.00     0.063 A 
HETATM   21  C   UNL     1     -43.961  61.456 -52.064  1.00  0.00    -0.061 A 
HETATM   22  C   UNL     1     -44.958  62.299 -52.807  1.00  0.00     0.048 C 
HETATM   23  C   UNL     1     -43.175  62.034 -51.058  1.00  0.00     0.009 A 
HETATM   24  C   UNL     1     -42.239  61.283 -50.337  1.00  0.00     0.032 A 
HETATM   25  N   UNL     1     -41.323  58.942 -50.158  1.00  0.00    -0.277 N 
HETATM   26  H   UNL     1     -40.637  59.029 -49.417  1.00  0.00     0.189 HD
HETATM   27  N   UNL     1     -41.496  57.737 -50.728  1.00  0.00    -0.168 NA
ENDBRANCH   1  17
TORSDOF 5
ENDMDL
MODEL 8
REMARK VINA RESULT:      -7.6     14.473     17.405
REMARK  5 active torsions:
REMARK  status: ('A' for Active; 'I' for Inactive)
REMARK    1  A    between atoms: C_9  and  C_10 
REMARK       I    between atoms: C_10  and  N_11 
REMARK    2  A    between atoms: N_11  and  C_12 
REMARK    3  A    between atoms: C_12  and  C_13 
REMARK    4  A    between atoms: C_12  and  C_16 
REMARK    5  A    between atoms: C_19  and  O_20 
ROOT
HETATM    1  C   UNL     1     -35.944  41.785 -53.328  1.00  0.00     0.273 C 
HETATM    2  N   UNL     1     -35.851  41.079 -54.501  1.00  0.00    -0.346 N 
HETATM    3  O   UNL     1     -35.728  42.990 -53.234  1.00  0.00    -0.266 OA
HETATM    4  H   UNL     1     -36.081  40.094 -54.437  1.00  0.00     0.163 HD
ENDROOT
BRANCH   2   5
HETATM    5  C   UNL     1     -35.558  41.675 -55.779  1.00  0.00     0.122 C 
BRANCH   5   6
HETATM    6  C   UNL     1     -34.112  41.490 -56.185  1.00  0.00     0.013 A 
HETATM    7  C   UNL     1     -33.142  40.745 -55.294  1.00  0.00     0.007 A 
HETATM    8  C   UNL     1     -33.519  40.169 -56.632  1.00  0.00     0.007 A 
ENDBRANCH   5   6
BRANCH   5   9
HETATM    9  C   UNL     1     -36.487  41.092 -56.832  1.00  0.00    -0.035 A 
HETATM   10  C   UNL     1     -37.164  39.890 -56.580  1.00  0.00     0.012 A 
HETATM   11  C   UNL     1     -37.998  39.327 -57.548  1.00  0.00     0.037 A 
HETATM   12  C   UNL     1     -38.167  39.942 -58.790  1.00  0.00     0.068 A 
HETATM   13  C   UNL     1     -37.496  41.134 -59.055  1.00  0.00     0.037 A 
HETATM   14  C   UNL     1     -36.661  41.703 -58.085  1.00  0.00     0.012 A 
BRANCH  12  15
HETATM   15  O   UNL     1     -39.006  39.283 -59.646  1.00  0.00    -0.356 OA
HETATM   16  C   UNL     1     -39.017  37.864 -59.567  1.00  0.00     0.210 C 
ENDBRANCH  12  15
ENDBRANCH   5   9
ENDBRANCH   2   5
BRANCH   1  17
HETATM   17  C   UNL     1     -36.341  40.940 -52.188  1.00  0.00     0.157 A 
HETATM   18  C   UNL     1     -35.488  40.347 -51.210  1.00  0.00     0.029 A 
HETATM   19  C   UNL     1     -34.102  40.312 -50.956  1.00  0.00     0.023 A 
HETATM   20  C   UNL     1     -36.343  39.671 -50.348  1.00  0.00     0.063 A 
HETATM   21  C   UNL     1     -33.619  39.598 -49.847  1.00  0.00    -0.061 A 
HETATM   22  C   UNL     1     -32.146  39.553 -49.554  1.00  0.00     0.048 C 
HETATM   23  C   UNL     1     -34.516  38.934 -49.001  1.00  0.00     0.009 A 
HETATM   24  C   UNL     1     -35.896  38.956 -49.234  1.00  0.00     0.032 A 
HETATM   25  N   UNL     1     -37.599  39.886 -50.843  1.00  0.00    -0.277 N 
HETATM   26  H   UNL     1     -38.473  39.543 -50.463  1.00  0.00     0.189 HD
HETATM   27  N   UNL     1     -37.640  40.644 -51.952  1.00  0.00    -0.168 NA
ENDBRANCH   1  17
TORSDOF 5
ENDMDL
MODEL 9
REMARK VINA RESULT:      -7.4      2.897      4.792
REMARK  5 active torsions:
REMARK  status: ('A' for Active; 'I' for Inactive)
REMARK    1  A    between atoms: C_9  and  C_10 
REMARK       I    between atoms: C_10  and  N_11 
REMARK    2  A    between atoms: N_11  and  C_12 
REMARK    3  A    between atoms: C_12  and  C_13 
REMARK    4  A    between atoms: C_12  and  C_16 
REMARK    5  A    between atoms: C_19  and  O_20 
ROOT
HETATM    1  C   UNL     1     -41.991  58.232 -55.303  1.00  0.00     0.273 C 
HETATM    2  N   UNL     1     -42.060  56.999 -54.702  1.00  0.00    -0.346 N 
HETATM    3  O   UNL     1     -41.422  59.202 -54.811  1.00  0.00    -0.266 OA
HETATM    4  H   UNL     1     -42.541  56.281 -55.233  1.00  0.00     0.163 HD
ENDROOT
BRANCH   2   5
HETATM    5  C   UNL     1     -41.415  56.672 -53.457  1.00  0.00     0.122 C 
BRANCH   5   6
HETATM    6  C   UNL     1     -42.290  56.969 -52.258  1.00  0.00     0.013 A 
HETATM    7  C   UNL     1     -41.688  57.439 -50.951  1.00  0.00     0.007 A 
HETATM    8  C   UNL     1     -42.573  58.364 -51.740  1.00  0.00     0.007 A 
ENDBRANCH   5   6
BRANCH   5   9
HETATM    9  C   UNL     1     -41.007  55.208 -53.470  1.00  0.00    -0.035 A 
HETATM   10  C   UNL     1     -40.940  54.490 -52.267  1.00  0.00     0.012 A 
HETATM   11  C   UNL     1     -40.539  53.152 -52.259  1.00  0.00     0.037 A 
HETATM   12  C   UNL     1     -40.187  52.505 -53.445  1.00  0.00     0.068 A 
HETATM   13  C   UNL     1     -40.244  53.210 -54.647  1.00  0.00     0.037 A 
HETATM   14  C   UNL     1     -40.648  54.550 -54.658  1.00  0.00     0.012 A 
BRANCH  12  15
HETATM   15  O   UNL     1     -39.808  51.199 -53.295  1.00  0.00    -0.356 OA
HETATM   16  C   UNL     1     -39.955  50.354 -54.428  1.00  0.00     0.210 C 
ENDBRANCH  12  15
ENDBRANCH   5   9
ENDBRANCH   2   5
BRANCH   1  17
HETATM   17  C   UNL     1     -42.669  58.264 -56.610  1.00  0.00     0.157 A 
HETATM   18  C   UNL     1     -42.430  59.166 -57.689  1.00  0.00     0.029 A 
HETATM   19  C   UNL     1     -41.574  60.260 -57.929  1.00  0.00     0.023 A 
HETATM   20  C   UNL     1     -43.306  58.769 -58.692  1.00  0.00     0.063 A 
HETATM   21  C   UNL     1     -41.627  60.922 -59.168  1.00  0.00    -0.061 A 
HETATM   22  C   UNL     1     -40.720  62.085 -59.448  1.00  0.00     0.048 C 
HETATM   23  C   UNL     1     -42.522  60.486 -60.154  1.00  0.00     0.009 A 
HETATM   24  C   UNL     1     -43.381  59.401 -59.936  1.00  0.00     0.032 A 
HETATM   25  N   UNL     1     -43.988  57.704 -58.174  1.00  0.00    -0.277 N 
HETATM   26  H   UNL     1     -44.709  57.159 -58.632  1.00  0.00     0.189 HD
HETATM   27  N   UNL     1     -43.636  57.371 -56.921  1.00  0.00    -0.168 NA
ENDBRANCH   1  17
TORSDOF 5
ENDMDL
MODEL 10
REMARK VINA RESULT:      -7.3      3.848      6.265
REMARK  5 active torsions:
REMARK  status: ('A' for Active; 'I' for Inactive)
REMARK    1  A    between atoms: C_9  and  C_10 
REMARK       I    between atoms: C_10  and  N_11 
REMARK    2  A    between atoms: N_11  and  C_12 
REMARK    3  A    between atoms: C_12  and  C_13 
REMARK    4  A    between atoms: C_12  and  C_16 
REMARK    5  A    between atoms: C_19  and  O_20 
ROOT
HETATM    1  C   UNL     1     -44.279  57.307 -53.668  1.00  0.00     0.273 C 
HETATM    2  N   UNL     1     -43.079  56.647 -53.759  1.00  0.00    -0.346 N 
HETATM    3  O   UNL     1     -45.269  57.023 -54.335  1.00  0.00    -0.266 OA
HETATM    4  H   UNL     1     -42.352  56.972 -53.131  1.00  0.00     0.163 HD
ENDROOT
BRANCH   2   5
HETATM    5  C   UNL     1     -42.853  55.496 -54.595  1.00  0.00     0.122 C 
BRANCH   5   6
HETATM    6  C   UNL     1     -42.244  55.864 -55.931  1.00  0.00     0.013 A 
HETATM    7  C   UNL     1     -42.872  55.402 -57.228  1.00  0.00     0.007 A 
HETATM    8  C   UNL     1     -42.847  56.867 -56.892  1.00  0.00     0.007 A 
ENDBRANCH   5   6
BRANCH   5   9
HETATM    9  C   UNL     1     -41.967  54.503 -53.859  1.00  0.00    -0.035 A 
HETATM   10  C   UNL     1     -41.492  54.808 -52.576  1.00  0.00     0.012 A 
HETATM   11  C   UNL     1     -40.654  53.919 -51.899  1.00  0.00     0.037 A 
HETATM   12  C   UNL     1     -40.265  52.715 -52.489  1.00  0.00     0.068 A 
HETATM   13  C   UNL     1     -40.726  52.403 -53.767  1.00  0.00     0.037 A 
HETATM   14  C   UNL     1     -41.569  53.291 -54.446  1.00  0.00     0.012 A 
BRANCH  12  15
HETATM   15  O   UNL     1     -39.439  51.941 -51.720  1.00  0.00    -0.356 OA
HETATM   16  C   UNL     1     -39.470  50.539 -51.956  1.00  0.00     0.210 C 
ENDBRANCH  12  15
ENDBRANCH   5   9
ENDBRANCH   2   5
BRANCH   1  17
HETATM   17  C   UNL     1     -44.253  58.393 -52.673  1.00  0.00     0.157 A 
HETATM   18  C   UNL     1     -43.121  58.897 -51.967  1.00  0.00     0.029 A 
HETATM   19  C   UNL     1     -41.742  58.608 -51.918  1.00  0.00     0.023 A 
HETATM   20  C   UNL     1     -43.617  59.921 -51.170  1.00  0.00     0.063 A 
HETATM   21  C   UNL     1     -40.907  59.354 -51.070  1.00  0.00    -0.061 A 
HETATM   22  C   UNL     1     -39.434  59.068 -51.007  1.00  0.00     0.048 C 
HETATM   23  C   UNL     1     -41.449  60.382 -50.287  1.00  0.00     0.009 A 
HETATM   24  C   UNL     1     -42.815  60.686 -50.320  1.00  0.00     0.032 A 
HETATM   25  N   UNL     1     -44.958  59.964 -51.432  1.00  0.00    -0.277 N 
HETATM   26  H   UNL     1     -45.640  60.595 -51.029  1.00  0.00     0.189 HD
HETATM   27  N   UNL     1     -45.381  59.057 -52.330  1.00  0.00    -0.168 NA
ENDBRANCH   1  17
TORSDOF 5
ENDMDL
