MODEL 1
REMARK VINA RESULT:      -7.6      0.000      0.000
REMARK  6 active torsions:
REMARK  status: ('A' for Active; 'I' for Inactive)
REMARK    1  A    between atoms: C_2  and  C_3 
REMARK    2  A    between atoms: C_4  and  O_5 
REMARK    3  A    between atoms: C_6  and  C_7 
REMARK       I    between atoms: C_7  and  N_8 
REMARK    4  A    between atoms: N_8  and  C_9 
REMARK    5  A    between atoms: C_9  and  C_10 
REMARK    6  A    between atoms: C_10  and  C_11 
ROOT
HETATM    1  C   UNL     1     -42.094  56.918 -55.923  1.00  0.00     0.254 C 
HETATM    2  N   UNL     1     -41.448  55.831 -55.390  1.00  0.00    -0.356 N 
HETATM    3  O   UNL     1     -42.312  57.935 -55.271  1.00  0.00    -0.268 OA
HETATM    4  H   UNL     1     -41.278  55.040 -56.007  1.00  0.00     0.162 HD
ENDROOT
BRANCH   1   5
HETATM    5  C   UNL     1     -42.526  56.820 -57.359  1.00  0.00     0.065 A 
HETATM    6  C   UNL     1     -43.235  55.735 -57.913  1.00  0.00     0.087 A 
HETATM    7  C   UNL     1     -43.615  55.738 -59.271  1.00  0.00    -0.024 A 
HETATM    8  C   UNL     1     -43.239  56.829 -60.072  1.00  0.00     0.010 A 
HETATM    9  C   UNL     1     -42.524  57.899 -59.539  1.00  0.00     0.002 A 
HETATM   10  C   UNL     1     -42.175  57.895 -58.190  1.00  0.00     0.020 A 
BRANCH   6  11
HETATM   11  O   UNL     1     -43.559  54.667 -57.112  1.00  0.00    -0.359 OA
HETATM   12  H   UNL     1     -43.018  53.899 -57.361  1.00  0.00     0.218 HD
ENDBRANCH   6  11
BRANCH   7  13
HETATM   13  C   UNL     1     -44.410  54.626 -59.914  1.00  0.00     0.037 C 
HETATM   14  C   UNL     1     -45.092  55.077 -61.198  1.00  0.00     0.010 C 
ENDBRANCH   7  13
ENDBRANCH   1   5
BRANCH   2  15
HETATM   15  C   UNL     1     -40.942  55.813 -54.032  1.00  0.00     0.136 C 
BRANCH  15  16
HETATM   16  C   UNL     1     -41.617  54.738 -53.128  1.00  0.00    -0.004 C 
HETATM   17  C   UNL     1     -41.642  55.282 -51.683  1.00  0.00     0.021 C 
HETATM   18  C   UNL     1     -43.082  54.585 -53.605  1.00  0.00     0.021 C 
BRANCH  16  19
HETATM   19  C   UNL     1     -40.858  53.395 -53.107  1.00  0.00    -0.046 A 
HETATM   20  C   UNL     1     -40.181  52.954 -51.959  1.00  0.00     0.027 A 
HETATM   21  C   UNL     1     -39.515  51.735 -51.979  1.00  0.00     0.116 A 
HETATM   22  N   UNL     1     -39.479  50.916 -53.047  1.00  0.00    -0.273 NA
HETATM   23  C   UNL     1     -40.153  51.331 -54.138  1.00  0.00     0.116 A 
HETATM   24  C   UNL     1     -40.845  52.534 -54.213  1.00  0.00     0.027 A 
ENDBRANCH  16  19
ENDBRANCH  15  16
ENDBRANCH   2  15
TORSDOF 6
ENDMDL
MODEL 2
REMARK VINA RESULT:      -7.5      4.592      7.365
REMARK  6 active torsions:
REMARK  status: ('A' for Active; 'I' for Inactive)
REMARK    1  A    between atoms: C_2  and  C_3 
REMARK    2  A    between atoms: C_4  and  O_5 
REMARK    3  A    between atoms: C_6  and  C_7 
REMARK       I    between atoms: C_7  and  N_8 
REMARK    4  A    between atoms: N_8  and  C_9 
REMARK    5  A    between atoms: C_9  and  C_10 
REMARK    6  A    between atoms: C_10  and  C_11 
ROOT
HETATM    1  C   UNL     1     -41.194  54.187 -50.494  1.00  0.00     0.254 C 
HETATM    2  N   UNL     1     -42.433  54.546 -50.962  1.00  0.00    -0.356 N 
HETATM    3  O   UNL     1     -40.571  54.877 -49.693  1.00  0.00    -0.268 OA
HETATM    4  H   UNL     1     -42.896  53.902 -51.599  1.00  0.00     0.162 HD
ENDROOT
BRANCH   1   5
HETATM    5  C   UNL     1     -40.621  52.893 -50.998  1.00  0.00     0.065 A 
HETATM    6  C   UNL     1     -40.244  52.646 -52.334  1.00  0.00     0.087 A 
HETATM    7  C   UNL     1     -39.697  51.404 -52.713  1.00  0.00    -0.024 A 
HETATM    8  C   UNL     1     -39.570  50.399 -51.740  1.00  0.00     0.010 A 
HETATM    9  C   UNL     1     -39.955  50.626 -50.420  1.00  0.00     0.002 A 
HETATM   10  C   UNL     1     -40.471  51.866 -50.052  1.00  0.00     0.020 A 
BRANCH   6  11
HETATM   11  O   UNL     1     -40.412  53.637 -53.271  1.00  0.00    -0.359 OA
HETATM   12  H   UNL     1     -39.880  54.412 -53.024  1.00  0.00     0.218 HD
ENDBRANCH   6  11
BRANCH   7  13
HETATM   13  C   UNL     1     -39.237  51.092 -54.118  1.00  0.00     0.037 C 
HETATM   14  C   UNL     1     -39.827  49.789 -54.639  1.00  0.00     0.010 C 
ENDBRANCH   7  13
ENDBRANCH   1   5
BRANCH   2  15
HETATM   15  C   UNL     1     -43.115  55.746 -50.522  1.00  0.00     0.136 C 
BRANCH  15  16
HETATM   16  C   UNL     1     -43.224  56.843 -51.624  1.00  0.00    -0.004 C 
HETATM   17  C   UNL     1     -43.482  56.137 -52.972  1.00  0.00     0.021 C 
HETATM   18  C   UNL     1     -44.465  57.709 -51.294  1.00  0.00     0.021 C 
BRANCH  16  19
HETATM   19  C   UNL     1     -41.940  57.684 -51.776  1.00  0.00    -0.046 A 
HETATM   20  C   UNL     1     -41.352  57.902 -53.032  1.00  0.00     0.027 A 
HETATM   21  C   UNL     1     -40.198  58.669 -53.128  1.00  0.00     0.116 A 
HETATM   22  N   UNL     1     -39.591  59.248 -52.074  1.00  0.00    -0.273 NA
HETATM   23  C   UNL     1     -40.174  59.059 -50.874  1.00  0.00     0.116 A 
HETATM   24  C   UNL     1     -41.325  58.305 -50.679  1.00  0.00     0.027 A 
ENDBRANCH  16  19
ENDBRANCH  15  16
ENDBRANCH   2  15
TORSDOF 6
ENDMDL
MODEL 3
REMARK VINA RESULT:      -7.3      4.331      6.556
REMARK  6 active torsions:
REMARK  status: ('A' for Active; 'I' for Inactive)
REMARK    1  A    between atoms: C_2  and  C_3 
REMARK    2  A    between atoms: C_4  and  O_5 
REMARK    3  A    between atoms: C_6  and  C_7 
REMARK       I    between atoms: C_7  and  N_8 
REMARK    4  A    between atoms: N_8  and  C_9 
REMARK    5  A    between atoms: C_9  and  C_10 
REMARK    6  A    between atoms: C_10  and  C_11 
ROOT
HETATM    1  C   UNL     1     -41.867  55.431 -51.911  1.00  0.00     0.254 C 
HETATM    2  N   UNL     1     -42.911  56.165 -52.419  1.00  0.00    -0.356 N 
HETATM    3  O   UNL     1     -41.483  55.555 -50.752  1.00  0.00    -0.268 OA
HETATM    4  H   UNL     1     -43.188  55.978 -53.380  1.00  0.00     0.162 HD
ENDROOT
BRANCH   1   5
HETATM    5  C   UNL     1     -41.208  54.449 -52.836  1.00  0.00     0.065 A 
HETATM    6  C   UNL     1     -40.742  53.173 -52.457  1.00  0.00     0.087 A 
HETATM    7  C   UNL     1     -40.151  52.310 -53.401  1.00  0.00    -0.024 A 
HETATM    8  C   UNL     1     -39.998  52.760 -54.722  1.00  0.00     0.010 A 
HETATM    9  C   UNL     1     -40.439  54.026 -55.105  1.00  0.00     0.002 A 
HETATM   10  C   UNL     1     -41.044  54.860 -54.169  1.00  0.00     0.020 A 
BRANCH   6  11
HETATM   11  O   UNL     1     -40.875  52.774 -51.149  1.00  0.00    -0.359 OA
HETATM   12  H   UNL     1     -41.812  52.601 -50.955  1.00  0.00     0.218 HD
ENDBRANCH   6  11
BRANCH   7  13
HETATM   13  C   UNL     1     -39.669  50.917 -53.066  1.00  0.00     0.037 C 
HETATM   14  C   UNL     1     -39.759  49.977 -54.260  1.00  0.00     0.010 C 
ENDBRANCH   7  13
ENDBRANCH   1   5
BRANCH   2  15
HETATM   15  C   UNL     1     -43.660  57.113 -51.619  1.00  0.00     0.136 C 
BRANCH  15  16
HETATM   16  C   UNL     1     -43.305  58.601 -51.919  1.00  0.00    -0.004 C 
HETATM   17  C   UNL     1     -43.677  58.889 -53.390  1.00  0.00     0.021 C 
HETATM   18  C   UNL     1     -44.206  59.482 -51.019  1.00  0.00     0.021 C 
BRANCH  16  19
HETATM   19  C   UNL     1     -41.806  58.918 -51.747  1.00  0.00    -0.046 A 
HETATM   20  C   UNL     1     -41.279  59.313 -50.507  1.00  0.00     0.027 A 
HETATM   21  C   UNL     1     -39.921  59.584 -50.392  1.00  0.00     0.116 A 
HETATM   22  N   UNL     1     -39.045  59.480 -51.410  1.00  0.00    -0.273 NA
HETATM   23  C   UNL     1     -39.551  59.073 -52.590  1.00  0.00     0.116 A 
HETATM   24  C   UNL     1     -40.893  58.783 -52.803  1.00  0.00     0.027 A 
ENDBRANCH  16  19
ENDBRANCH  15  16
ENDBRANCH   2  15
TORSDOF 6
ENDMDL
MODEL 4
REMARK VINA RESULT:      -7.3      3.470      6.982
REMARK  6 active torsions:
REMARK  status: ('A' for Active; 'I' for Inactive)
REMARK    1  A    between atoms: C_2  and  C_3 
REMARK    2  A    between atoms: C_4  and  O_5 
REMARK    3  A    between atoms: C_6  and  C_7 
REMARK       I    between atoms: C_7  and  N_8 
REMARK    4  A    between atoms: N_8  and  C_9 
REMARK    5  A    between atoms: C_9  and  C_10 
REMARK    6  A    between atoms: C_10  and  C_11 
ROOT
HETATM    1  C   UNL     1     -41.284  54.259 -50.344  1.00  0.00     0.254 C 
HETATM    2  N   UNL     1     -41.010  55.384 -51.080  1.00  0.00    -0.356 N 
HETATM    3  O   UNL     1     -41.984  54.290 -49.336  1.00  0.00    -0.268 OA
HETATM    4  H   UNL     1     -40.448  55.267 -51.920  1.00  0.00     0.162 HD
ENDROOT
BRANCH   1   5
HETATM    5  C   UNL     1     -40.694  52.965 -50.828  1.00  0.00     0.065 A 
HETATM    6  C   UNL     1     -40.281  52.715 -52.153  1.00  0.00     0.087 A 
HETATM    7  C   UNL     1     -39.720  51.473 -52.513  1.00  0.00    -0.024 A 
HETATM    8  C   UNL     1     -39.615  50.473 -51.532  1.00  0.00     0.010 A 
HETATM    9  C   UNL     1     -40.035  50.703 -50.224  1.00  0.00     0.002 A 
HETATM   10  C   UNL     1     -40.565  51.943 -49.874  1.00  0.00     0.020 A 
BRANCH   6  11
HETATM   11  O   UNL     1     -40.429  53.702 -53.098  1.00  0.00    -0.359 OA
HETATM   12  H   UNL     1     -41.367  53.786 -53.335  1.00  0.00     0.218 HD
ENDBRANCH   6  11
BRANCH   7  13
HETATM   13  C   UNL     1     -39.222  51.157 -53.904  1.00  0.00     0.037 C 
HETATM   14  C   UNL     1     -39.885  49.915 -54.482  1.00  0.00     0.010 C 
ENDBRANCH   7  13
ENDBRANCH   1   5
BRANCH   2  15
HETATM   15  C   UNL     1     -41.553  56.686 -50.746  1.00  0.00     0.136 C 
BRANCH  15  16
HETATM   16  C   UNL     1     -42.732  57.126 -51.666  1.00  0.00    -0.004 C 
HETATM   17  C   UNL     1     -44.049  56.707 -50.979  1.00  0.00     0.021 C 
HETATM   18  C   UNL     1     -42.705  58.672 -51.745  1.00  0.00     0.021 C 
BRANCH  16  19
HETATM   19  C   UNL     1     -42.700  56.462 -53.058  1.00  0.00    -0.046 A 
HETATM   20  C   UNL     1     -41.816  56.897 -54.057  1.00  0.00     0.027 A 
HETATM   21  C   UNL     1     -41.814  56.269 -55.296  1.00  0.00     0.116 A 
HETATM   22  N   UNL     1     -42.614  55.234 -55.614  1.00  0.00    -0.273 NA
HETATM   23  C   UNL     1     -43.442  54.801 -54.643  1.00  0.00     0.116 A 
HETATM   24  C   UNL     1     -43.517  55.367 -53.376  1.00  0.00     0.027 A 
ENDBRANCH  16  19
ENDBRANCH  15  16
ENDBRANCH   2  15
TORSDOF 6
ENDMDL
MODEL 5
REMARK VINA RESULT:      -7.1      1.431      2.308
REMARK  6 active torsions:
REMARK  status: ('A' for Active; 'I' for Inactive)
REMARK    1  A    between atoms: C_2  and  C_3 
REMARK    2  A    between atoms: C_4  and  O_5 
REMARK    3  A    between atoms: C_6  and  C_7 
REMARK       I    between atoms: C_7  and  N_8 
REMARK    4  A    between atoms: N_8  and  C_9 
REMARK    5  A    between atoms: C_9  and  C_10 
REMARK    6  A    between atoms: C_10  and  C_11 
ROOT
HETATM    1  C   UNL     1     -42.117  56.936 -55.938  1.00  0.00     0.254 C 
HETATM    2  N   UNL     1     -41.362  55.888 -55.472  1.00  0.00    -0.356 N 
HETATM    3  O   UNL     1     -42.464  57.865 -55.216  1.00  0.00    -0.268 OA
HETATM    4  H   UNL     1     -41.088  55.175 -56.144  1.00  0.00     0.162 HD
ENDROOT
BRANCH   1   5
HETATM    5  C   UNL     1     -42.502  56.908 -57.390  1.00  0.00     0.065 A 
HETATM    6  C   UNL     1     -43.220  55.866 -58.012  1.00  0.00     0.087 A 
HETATM    7  C   UNL     1     -43.554  55.935 -59.380  1.00  0.00    -0.024 A 
HETATM    8  C   UNL     1     -43.122  57.046 -60.123  1.00  0.00     0.010 A 
HETATM    9  C   UNL     1     -42.397  58.074 -59.522  1.00  0.00     0.002 A 
HETATM   10  C   UNL     1     -42.095  58.006 -58.164  1.00  0.00     0.020 A 
BRANCH   6  11
HETATM   11  O   UNL     1     -43.599  54.776 -57.266  1.00  0.00    -0.359 OA
HETATM   12  H   UNL     1     -43.958  54.090 -57.854  1.00  0.00     0.218 HD
ENDBRANCH   6  11
BRANCH   7  13
HETATM   13  C   UNL     1     -44.356  54.872 -60.095  1.00  0.00     0.037 C 
HETATM   14  C   UNL     1     -45.659  55.419 -60.658  1.00  0.00     0.010 C 
ENDBRANCH   7  13
ENDBRANCH   1   5
BRANCH   2  15
HETATM   15  C   UNL     1     -40.888  55.816 -54.105  1.00  0.00     0.136 C 
BRANCH  15  16
HETATM   16  C   UNL     1     -41.262  54.487 -53.383  1.00  0.00    -0.004 C 
HETATM   17  C   UNL     1     -42.766  54.227 -53.618  1.00  0.00     0.021 C 
HETATM   18  C   UNL     1     -40.469  53.348 -54.069  1.00  0.00     0.021 C 
BRANCH  16  19
HETATM   19  C   UNL     1     -41.030  54.534 -51.859  1.00  0.00    -0.046 A 
HETATM   20  C   UNL     1     -41.640  55.510 -51.055  1.00  0.00     0.027 A 
HETATM   21  C   UNL     1     -41.410  55.515 -49.685  1.00  0.00     0.116 A 
HETATM   22  N   UNL     1     -40.631  54.618 -49.051  1.00  0.00    -0.273 NA
HETATM   23  C   UNL     1     -40.070  53.667 -49.823  1.00  0.00     0.116 A 
HETATM   24  C   UNL     1     -40.238  53.583 -51.199  1.00  0.00     0.027 A 
ENDBRANCH  16  19
ENDBRANCH  15  16
ENDBRANCH   2  15
TORSDOF 6
ENDMDL
MODEL 6
REMARK VINA RESULT:      -7.1      4.026      6.762
REMARK  6 active torsions:
REMARK  status: ('A' for Active; 'I' for Inactive)
REMARK    1  A    between atoms: C_2  and  C_3 
REMARK    2  A    between atoms: C_4  and  O_5 
REMARK    3  A    between atoms: C_6  and  C_7 
REMARK       I    between atoms: C_7  and  N_8 
REMARK    4  A    between atoms: N_8  and  C_9 
REMARK    5  A    between atoms: C_9  and  C_10 
REMARK    6  A    between atoms: C_10  and  C_11 
ROOT
HETATM    1  C   UNL     1     -43.035  55.068 -52.856  1.00  0.00     0.254 C 
HETATM    2  N   UNL     1     -43.206  56.113 -51.983  1.00  0.00    -0.356 N 
HETATM    3  O   UNL     1     -43.756  54.910 -53.837  1.00  0.00    -0.268 OA
HETATM    4  H   UNL     1     -42.545  56.190 -51.213  1.00  0.00     0.162 HD
ENDROOT
BRANCH   1   5
HETATM    5  C   UNL     1     -41.912  54.113 -52.569  1.00  0.00     0.065 A 
HETATM    6  C   UNL     1     -41.340  53.237 -53.514  1.00  0.00     0.087 A 
HETATM    7  C   UNL     1     -40.273  52.386 -53.158  1.00  0.00    -0.024 A 
HETATM    8  C   UNL     1     -39.816  52.401 -51.830  1.00  0.00     0.010 A 
HETATM    9  C   UNL     1     -40.386  53.250 -50.883  1.00  0.00     0.002 A 
HETATM   10  C   UNL     1     -41.422  54.104 -51.254  1.00  0.00     0.020 A 
BRANCH   6  11
HETATM   11  O   UNL     1     -41.831  53.221 -54.797  1.00  0.00    -0.359 OA
HETATM   12  H   UNL     1     -41.235  52.708 -55.367  1.00  0.00     0.218 HD
ENDBRANCH   6  11
BRANCH   7  13
HETATM   13  C   UNL     1     -39.591  51.455 -54.133  1.00  0.00     0.037 C 
HETATM   14  C   UNL     1     -40.280  50.100 -54.209  1.00  0.00     0.010 C 
ENDBRANCH   7  13
ENDBRANCH   1   5
BRANCH   2  15
HETATM   15  C   UNL     1     -44.223  57.128 -52.170  1.00  0.00     0.136 C 
BRANCH  15  16
HETATM   16  C   UNL     1     -43.669  58.471 -52.736  1.00  0.00    -0.004 C 
HETATM   17  C   UNL     1     -43.708  58.386 -54.277  1.00  0.00     0.021 C 
HETATM   18  C   UNL     1     -44.640  59.594 -52.296  1.00  0.00     0.021 C 
BRANCH  16  19
HETATM   19  C   UNL     1     -42.211  58.752 -52.321  1.00  0.00    -0.046 A 
HETATM   20  C   UNL     1     -41.147  58.578 -53.220  1.00  0.00     0.027 A 
HETATM   21  C   UNL     1     -39.848  58.849 -52.809  1.00  0.00     0.116 A 
HETATM   22  N   UNL     1     -39.526  59.290 -51.578  1.00  0.00    -0.273 NA
HETATM   23  C   UNL     1     -40.553  59.482 -50.728  1.00  0.00     0.116 A 
HETATM   24  C   UNL     1     -41.883  59.236 -51.047  1.00  0.00     0.027 A 
ENDBRANCH  16  19
ENDBRANCH  15  16
ENDBRANCH   2  15
TORSDOF 6
ENDMDL
MODEL 7
REMARK VINA RESULT:      -7.1      4.410      7.511
REMARK  6 active torsions:
REMARK  status: ('A' for Active; 'I' for Inactive)
REMARK    1  A    between atoms: C_2  and  C_3 
REMARK    2  A    between atoms: C_4  and  O_5 
REMARK    3  A    between atoms: C_6  and  C_7 
REMARK       I    between atoms: C_7  and  N_8 
REMARK    4  A    between atoms: N_8  and  C_9 
REMARK    5  A    between atoms: C_9  and  C_10 
REMARK    6  A    between atoms: C_10  and  C_11 
ROOT
HETATM    1  C   UNL     1     -41.344  55.556 -51.748  1.00  0.00     0.254 C 
HETATM    2  N   UNL     1     -41.816  56.743 -52.251  1.00  0.00    -0.356 N 
HETATM    3  O   UNL     1     -41.302  55.326 -50.543  1.00  0.00    -0.268 OA
HETATM    4  H   UNL     1     -41.848  56.840 -53.263  1.00  0.00     0.162 HD
ENDROOT
BRANCH   1   5
HETATM    5  C   UNL     1     -40.880  54.529 -52.740  1.00  0.00     0.065 A 
HETATM    6  C   UNL     1     -40.541  53.198 -52.422  1.00  0.00     0.087 A 
HETATM    7  C   UNL     1     -40.132  52.296 -53.425  1.00  0.00    -0.024 A 
HETATM    8  C   UNL     1     -40.031  52.761 -54.747  1.00  0.00     0.010 A 
HETATM    9  C   UNL     1     -40.347  54.079 -55.071  1.00  0.00     0.002 A 
HETATM   10  C   UNL     1     -40.774  54.953 -54.074  1.00  0.00     0.020 A 
BRANCH   6  11
HETATM   11  O   UNL     1     -40.617  52.782 -51.114  1.00  0.00    -0.359 OA
HETATM   12  H   UNL     1     -41.358  52.162 -51.013  1.00  0.00     0.218 HD
ENDBRANCH   6  11
BRANCH   7  13
HETATM   13  C   UNL     1     -39.794  50.848 -53.155  1.00  0.00     0.037 C 
HETATM   14  C   UNL     1     -39.855  50.000 -54.417  1.00  0.00     0.010 C 
ENDBRANCH   7  13
ENDBRANCH   1   5
BRANCH   2  15
HETATM   15  C   UNL     1     -42.334  57.798 -51.404  1.00  0.00     0.136 C 
BRANCH  15  16
HETATM   16  C   UNL     1     -41.461  59.090 -51.412  1.00  0.00    -0.004 C 
HETATM   17  C   UNL     1     -40.758  59.194 -50.041  1.00  0.00     0.021 C 
HETATM   18  C   UNL     1     -40.370  58.905 -52.495  1.00  0.00     0.021 C 
BRANCH  16  19
HETATM   19  C   UNL     1     -42.283  60.380 -51.613  1.00  0.00    -0.046 A 
HETATM   20  C   UNL     1     -42.620  61.210 -50.533  1.00  0.00     0.027 A 
HETATM   21  C   UNL     1     -43.357  62.366 -50.758  1.00  0.00     0.116 A 
HETATM   22  N   UNL     1     -43.773  62.767 -51.974  1.00  0.00    -0.273 NA
HETATM   23  C   UNL     1     -43.424  61.981 -53.011  1.00  0.00     0.116 A 
HETATM   24  C   UNL     1     -42.693  60.806 -52.885  1.00  0.00     0.027 A 
ENDBRANCH  16  19
ENDBRANCH  15  16
ENDBRANCH   2  15
TORSDOF 6
ENDMDL
MODEL 8
REMARK VINA RESULT:      -7.1      2.167      7.176
REMARK  6 active torsions:
REMARK  status: ('A' for Active; 'I' for Inactive)
REMARK    1  A    between atoms: C_2  and  C_3 
REMARK    2  A    between atoms: C_4  and  O_5 
REMARK    3  A    between atoms: C_6  and  C_7 
REMARK       I    between atoms: C_7  and  N_8 
REMARK    4  A    between atoms: N_8  and  C_9 
REMARK    5  A    between atoms: C_9  and  C_10 
REMARK    6  A    between atoms: C_10  and  C_11 
ROOT
HETATM    1  C   UNL     1     -41.057  55.598 -53.535  1.00  0.00     0.254 C 
HETATM    2  N   UNL     1     -41.225  56.054 -54.819  1.00  0.00    -0.356 N 
HETATM    3  O   UNL     1     -41.242  56.315 -52.556  1.00  0.00    -0.268 OA
HETATM    4  H   UNL     1     -41.083  55.387 -55.573  1.00  0.00     0.162 HD
ENDROOT
BRANCH   1   5
HETATM    5  C   UNL     1     -40.639  54.165 -53.368  1.00  0.00     0.065 A 
HETATM    6  C   UNL     1     -40.443  53.523 -52.128  1.00  0.00     0.087 A 
HETATM    7  C   UNL     1     -40.068  52.166 -52.068  1.00  0.00    -0.024 A 
HETATM    8  C   UNL     1     -39.855  51.473 -53.271  1.00  0.00     0.010 A 
HETATM    9  C   UNL     1     -40.030  52.101 -54.502  1.00  0.00     0.002 A 
HETATM   10  C   UNL     1     -40.425  53.436 -54.549  1.00  0.00     0.020 A 
BRANCH   6  11
HETATM   11  O   UNL     1     -40.626  54.237 -50.968  1.00  0.00    -0.359 OA
HETATM   12  H   UNL     1     -39.923  54.904 -50.883  1.00  0.00     0.218 HD
ENDBRANCH   6  11
BRANCH   7  13
HETATM   13  C   UNL     1     -39.881  51.411 -50.772  1.00  0.00     0.037 C 
HETATM   14  C   UNL     1     -39.575  49.939 -51.005  1.00  0.00     0.010 C 
ENDBRANCH   7  13
ENDBRANCH   1   5
BRANCH   2  15
HETATM   15  C   UNL     1     -41.667  57.402 -55.116  1.00  0.00     0.136 C 
BRANCH  15  16
HETATM   16  C   UNL     1     -42.976  57.458 -55.962  1.00  0.00    -0.004 C 
HETATM   17  C   UNL     1     -43.929  56.365 -55.432  1.00  0.00     0.021 C 
HETATM   18  C   UNL     1     -43.636  58.834 -55.701  1.00  0.00     0.021 C 
BRANCH  16  19
HETATM   19  C   UNL     1     -42.744  57.188 -57.462  1.00  0.00    -0.046 A 
HETATM   20  C   UNL     1     -42.103  58.127 -58.285  1.00  0.00     0.027 A 
HETATM   21  C   UNL     1     -41.908  57.843 -59.631  1.00  0.00     0.116 A 
HETATM   22  N   UNL     1     -42.289  56.693 -60.219  1.00  0.00    -0.273 NA
HETATM   23  C   UNL     1     -42.879  55.783 -59.419  1.00  0.00     0.116 A 
HETATM   24  C   UNL     1     -43.120  55.978 -58.065  1.00  0.00     0.027 A 
ENDBRANCH  16  19
ENDBRANCH  15  16
ENDBRANCH   2  15
TORSDOF 6
ENDMDL
MODEL 9
REMARK VINA RESULT:      -7.0      2.165      6.798
REMARK  6 active torsions:
REMARK  status: ('A' for Active; 'I' for Inactive)
REMARK    1  A    between atoms: C_2  and  C_3 
REMARK    2  A    between atoms: C_4  and  O_5 
REMARK    3  A    between atoms: C_6  and  C_7 
REMARK       I    between atoms: C_7  and  N_8 
REMARK    4  A    between atoms: N_8  and  C_9 
REMARK    5  A    between atoms: C_9  and  C_10 
REMARK    6  A    between atoms: C_10  and  C_11 
ROOT
HETATM    1  C   UNL     1     -41.170  57.035 -53.917  1.00  0.00     0.254 C 
HETATM    2  N   UNL     1     -41.992  57.214 -55.002  1.00  0.00    -0.356 N 
HETATM    3  O   UNL     1     -40.583  57.970 -53.380  1.00  0.00    -0.268 OA
HETATM    4  H   UNL     1     -42.467  56.392 -55.368  1.00  0.00     0.162 HD
ENDROOT
BRANCH   1   5
HETATM    5  C   UNL     1     -41.020  55.634 -53.397  1.00  0.00     0.065 A 
HETATM    6  C   UNL     1     -40.711  54.510 -54.191  1.00  0.00     0.087 A 
HETATM    7  C   UNL     1     -40.571  53.233 -53.611  1.00  0.00    -0.024 A 
HETATM    8  C   UNL     1     -40.783  53.094 -52.229  1.00  0.00     0.010 A 
HETATM    9  C   UNL     1     -41.105  54.195 -51.438  1.00  0.00     0.002 A 
HETATM   10  C   UNL     1     -41.216  55.456 -52.018  1.00  0.00     0.020 A 
BRANCH   6  11
HETATM   11  O   UNL     1     -40.543  54.672 -55.545  1.00  0.00    -0.359 OA
HETATM   12  H   UNL     1     -41.340  54.368 -56.009  1.00  0.00     0.218 HD
ENDBRANCH   6  11
BRANCH   7  13
HETATM   13  C   UNL     1     -40.202  51.998 -54.400  1.00  0.00     0.037 C 
HETATM   14  C   UNL     1     -39.576  50.923 -53.522  1.00  0.00     0.010 C 
ENDBRANCH   7  13
ENDBRANCH   1   5
BRANCH   2  15
HETATM   15  C   UNL     1     -42.257  58.519 -55.574  1.00  0.00     0.136 C 
BRANCH  15  16
HETATM   16  C   UNL     1     -43.376  58.510 -56.659  1.00  0.00    -0.004 C 
HETATM   17  C   UNL     1     -44.603  57.783 -56.069  1.00  0.00     0.021 C 
HETATM   18  C   UNL     1     -43.776  59.983 -56.923  1.00  0.00     0.021 C 
BRANCH  16  19
HETATM   19  C   UNL     1     -42.969  57.768 -57.948  1.00  0.00    -0.046 A 
HETATM   20  C   UNL     1     -42.125  58.361 -58.900  1.00  0.00     0.027 A 
HETATM   21  C   UNL     1     -41.777  57.656 -60.046  1.00  0.00     0.116 A 
HETATM   22  N   UNL     1     -42.194  56.404 -60.312  1.00  0.00    -0.273 NA
HETATM   23  C   UNL     1     -42.981  55.828 -59.383  1.00  0.00     0.116 A 
HETATM   24  C   UNL     1     -43.385  56.454 -58.210  1.00  0.00     0.027 A 
ENDBRANCH  16  19
ENDBRANCH  15  16
ENDBRANCH   2  15
TORSDOF 6
ENDMDL
MODEL 10
REMARK VINA RESULT:      -7.0      1.212      2.478
REMARK  6 active torsions:
REMARK  status: ('A' for Active; 'I' for Inactive)
REMARK    1  A    between atoms: C_2  and  C_3 
REMARK    2  A    between atoms: C_4  and  O_5 
REMARK    3  A    between atoms: C_6  and  C_7 
REMARK       I    between atoms: C_7  and  N_8 
REMARK    4  A    between atoms: N_8  and  C_9 
REMARK    5  A    between atoms: C_9  and  C_10 
REMARK    6  A    between atoms: C_10  and  C_11 
ROOT
HETATM    1  C   UNL     1     -42.251  56.876 -56.189  1.00  0.00     0.254 C 
HETATM    2  N   UNL     1     -41.526  55.773 -55.810  1.00  0.00    -0.356 N 
HETATM    3  O   UNL     1     -42.647  57.709 -55.379  1.00  0.00    -0.268 OA
HETATM    4  H   UNL     1     -41.208  55.149 -56.547  1.00  0.00     0.162 HD
ENDROOT
BRANCH   1   5
HETATM    5  C   UNL     1     -42.541  57.033 -57.654  1.00  0.00     0.065 A 
HETATM    6  C   UNL     1     -42.286  58.200 -58.403  1.00  0.00     0.087 A 
HETATM    7  C   UNL     1     -42.574  58.250 -59.782  1.00  0.00    -0.024 A 
HETATM    8  C   UNL     1     -43.157  57.126 -60.389  1.00  0.00     0.010 A 
HETATM    9  C   UNL     1     -43.429  55.974 -59.655  1.00  0.00     0.002 A 
HETATM   10  C   UNL     1     -43.117  55.927 -58.298  1.00  0.00     0.020 A 
BRANCH   6  11
HETATM   11  O   UNL     1     -41.746  59.296 -57.774  1.00  0.00    -0.359 OA
HETATM   12  H   UNL     1     -41.978  59.275 -56.831  1.00  0.00     0.218 HD
ENDBRANCH   6  11
BRANCH   7  13
HETATM   13  C   UNL     1     -42.287  59.456 -60.648  1.00  0.00     0.037 C 
HETATM   14  C   UNL     1     -43.563  60.112 -61.157  1.00  0.00     0.010 C 
ENDBRANCH   7  13
ENDBRANCH   1   5
BRANCH   2  15
HETATM   15  C   UNL     1     -41.142  55.527 -54.435  1.00  0.00     0.136 C 
BRANCH  15  16
HETATM   16  C   UNL     1     -41.924  54.355 -53.768  1.00  0.00    -0.004 C 
HETATM   17  C   UNL     1     -42.796  54.949 -52.641  1.00  0.00     0.021 C 
HETATM   18  C   UNL     1     -42.870  53.761 -54.840  1.00  0.00     0.021 C 
BRANCH  16  19
HETATM   19  C   UNL     1     -41.005  53.291 -53.135  1.00  0.00    -0.046 A 
HETATM   20  C   UNL     1     -40.308  52.362 -53.923  1.00  0.00     0.027 A 
HETATM   21  C   UNL     1     -39.485  51.423 -53.315  1.00  0.00     0.116 A 
HETATM   22  N   UNL     1     -39.292  51.343 -51.984  1.00  0.00    -0.273 NA
HETATM   23  C   UNL     1     -39.941  52.254 -51.233  1.00  0.00     0.116 A 
HETATM   24  C   UNL     1     -40.787  53.228 -51.750  1.00  0.00     0.027 A 
ENDBRANCH  16  19
ENDBRANCH  15  16
ENDBRANCH   2  15
TORSDOF 6
ENDMDL
