MODEL 1
REMARK VINA RESULT:      -8.3      0.000      0.000
REMARK  3 active torsions:
REMARK  status: ('A' for Active; 'I' for Inactive)
REMARK    1  A    between atoms: C_4  and  N_5 
REMARK       I    between atoms: N_5  and  C_6 
REMARK    2  A    between atoms: C_6  and  C_7 
REMARK    3  A    between atoms: C_7  and  C_8 
ROOT
HETATM    1  C   UNL     1     -43.128  55.658 -50.808  1.00  0.00     0.286 C 
HETATM    2  N   UNL     1     -42.159  56.811 -50.547  1.00  0.00    -0.056 N 
HETATM    3  H   UNL     1     -42.132  56.946 -49.514  1.00  0.00     0.278 HD
HETATM    4  H   UNL     1     -41.206  56.550 -50.826  1.00  0.00     0.278 HD
HETATM    5  C   UNL     1     -42.621  58.053 -51.243  1.00  0.00     0.209 C 
HETATM    6  C   UNL     1     -42.638  57.774 -52.764  1.00  0.00     0.115 C 
HETATM    7  N   UNL     1     -43.395  56.570 -53.103  1.00  0.00    -0.353 N 
HETATM    8  C   UNL     1     -43.351  55.433 -52.320  1.00  0.00     0.249 C 
HETATM    9  O   UNL     1     -43.562  54.331 -52.811  1.00  0.00    -0.271 OA
HETATM   10  C   UNL     1     -41.709  59.226 -50.912  1.00  0.00     0.035 C 
HETATM   11  C   UNL     1     -42.182  60.475 -51.658  1.00  0.00     0.002 C 
HETATM   12  C   UNL     1     -42.306  60.240 -53.166  1.00  0.00     0.002 C 
HETATM   13  C   UNL     1     -43.151  59.008 -53.506  1.00  0.00     0.027 C 
HETATM   14  H   UNL     1     -43.521  56.353 -54.090  1.00  0.00     0.163 HD
ENDROOT
BRANCH   1  15
HETATM   15  C   UNL     1     -42.681  54.380 -50.091  1.00  0.00     0.146 C 
BRANCH  15  16
HETATM   16  C   UNL     1     -41.243  54.519 -49.660  1.00  0.00     0.224 C 
HETATM   17  N   UNL     1     -40.216  53.943 -50.332  1.00  0.00    -0.327 N 
HETATM   18  H   UNL     1     -39.340  54.017 -49.820  1.00  0.00     0.169 HD
HETATM   19  O   UNL     1     -40.995  55.177 -48.638  1.00  0.00    -0.273 OA
BRANCH  17  20
HETATM   20  C   UNL     1     -40.132  53.238 -51.547  1.00  0.00     0.035 A 
HETATM   21  C   UNL     1     -39.894  51.869 -51.665  1.00  0.00     0.036 A 
HETATM   22  C   UNL     1     -39.824  51.258 -52.929  1.00  0.00    -0.059 A 
HETATM   23  C   UNL     1     -39.614  49.776 -53.049  1.00  0.00     0.048 C 
HETATM   24  C   UNL     1     -40.026  52.030 -54.078  1.00  0.00     0.013 A 
HETATM   25  C   UNL     1     -40.278  53.400 -53.981  1.00  0.00    -0.059 A 
HETATM   26  C   UNL     1     -40.351  53.988 -52.711  1.00  0.00     0.036 A 
HETATM   27  C   UNL     1     -40.522  54.215 -55.217  1.00  0.00     0.048 C 
ENDBRANCH  17  20
ENDBRANCH  15  16
ENDBRANCH   1  15
TORSDOF 3
ENDMDL
MODEL 2
REMARK VINA RESULT:      -8.3      2.340      3.204
REMARK  3 active torsions:
REMARK  status: ('A' for Active; 'I' for Inactive)
REMARK    1  A    between atoms: C_4  and  N_5 
REMARK       I    between atoms: N_5  and  C_6 
REMARK    2  A    between atoms: C_6  and  C_7 
REMARK    3  A    between atoms: C_7  and  C_8 
ROOT
HETATM    1  C   UNL     1     -43.346  56.224 -52.986  1.00  0.00     0.286 C 
HETATM    2  N   UNL     1     -41.984  56.772 -52.558  1.00  0.00    -0.056 N 
HETATM    3  H   UNL     1     -41.434  55.959 -52.211  1.00  0.00     0.278 HD
HETATM    4  H   UNL     1     -41.473  57.138 -53.370  1.00  0.00     0.278 HD
HETATM    5  C   UNL     1     -42.149  57.810 -51.491  1.00  0.00     0.209 C 
HETATM    6  C   UNL     1     -42.974  58.978 -52.080  1.00  0.00     0.115 C 
HETATM    7  N   UNL     1     -44.226  58.527 -52.687  1.00  0.00    -0.353 N 
HETATM    8  C   UNL     1     -44.307  57.355 -53.413  1.00  0.00     0.249 C 
HETATM    9  O   UNL     1     -45.156  57.221 -54.285  1.00  0.00    -0.271 OA
HETATM   10  C   UNL     1     -40.792  58.293 -50.998  1.00  0.00     0.035 C 
HETATM   11  C   UNL     1     -40.984  59.374 -49.933  1.00  0.00     0.002 C 
HETATM   12  C   UNL     1     -41.871  60.523 -50.423  1.00  0.00     0.002 C 
HETATM   13  C   UNL     1     -43.203  60.038 -51.002  1.00  0.00     0.027 C 
HETATM   14  H   UNL     1     -44.868  59.239 -53.032  1.00  0.00     0.163 HD
ENDROOT
BRANCH   1  15
HETATM   15  C   UNL     1     -43.199  55.148 -54.067  1.00  0.00     0.146 C 
BRANCH  15  16
HETATM   16  C   UNL     1     -41.923  55.377 -54.838  1.00  0.00     0.224 C 
HETATM   17  N   UNL     1     -40.784  54.684 -54.595  1.00  0.00    -0.327 N 
HETATM   18  H   UNL     1     -39.990  55.069 -55.102  1.00  0.00     0.169 HD
HETATM   19  O   UNL     1     -41.917  56.248 -55.721  1.00  0.00    -0.273 OA
BRANCH  17  20
HETATM   20  C   UNL     1     -40.478  53.591 -53.763  1.00  0.00     0.035 A 
HETATM   21  C   UNL     1     -40.498  53.614 -52.369  1.00  0.00     0.036 A 
HETATM   22  C   UNL     1     -40.171  52.466 -51.626  1.00  0.00    -0.059 A 
HETATM   23  C   UNL     1     -40.240  52.482 -50.127  1.00  0.00     0.048 C 
HETATM   24  C   UNL     1     -39.850  51.280 -52.297  1.00  0.00     0.013 A 
HETATM   25  C   UNL     1     -39.836  51.234 -53.693  1.00  0.00    -0.059 A 
HETATM   26  C   UNL     1     -40.172  52.387 -54.414  1.00  0.00     0.036 A 
HETATM   27  C   UNL     1     -39.520  49.950 -54.405  1.00  0.00     0.048 C 
ENDBRANCH  17  20
ENDBRANCH  15  16
ENDBRANCH   1  15
TORSDOF 3
ENDMDL
MODEL 3
REMARK VINA RESULT:      -8.2      4.100      5.969
REMARK  3 active torsions:
REMARK  status: ('A' for Active; 'I' for Inactive)
REMARK    1  A    between atoms: C_4  and  N_5 
REMARK       I    between atoms: N_5  and  C_6 
REMARK    2  A    between atoms: C_6  and  C_7 
REMARK    3  A    between atoms: C_7  and  C_8 
ROOT
HETATM    1  C   UNL     1     -42.408  56.545 -56.703  1.00  0.00     0.286 C 
HETATM    2  N   UNL     1     -43.282  55.409 -57.234  1.00  0.00    -0.056 N 
HETATM    3  H   UNL     1     -42.738  54.530 -57.099  1.00  0.00     0.278 HD
HETATM    4  H   UNL     1     -44.130  55.311 -56.664  1.00  0.00     0.278 HD
HETATM    5  C   UNL     1     -43.606  55.628 -58.680  1.00  0.00     0.209 C 
HETATM    6  C   UNL     1     -44.406  56.946 -58.798  1.00  0.00     0.115 C 
HETATM    7  N   UNL     1     -43.731  58.070 -58.150  1.00  0.00    -0.353 N 
HETATM    8  C   UNL     1     -43.053  57.926 -56.956  1.00  0.00     0.249 C 
HETATM    9  O   UNL     1     -42.918  58.879 -56.199  1.00  0.00    -0.271 OA
HETATM   10  C   UNL     1     -44.399  54.454 -59.236  1.00  0.00     0.035 C 
HETATM   11  C   UNL     1     -44.746  54.714 -60.704  1.00  0.00     0.002 C 
HETATM   12  C   UNL     1     -45.464  56.051 -60.904  1.00  0.00     0.002 C 
HETATM   13  C   UNL     1     -44.715  57.227 -60.270  1.00  0.00     0.027 C 
HETATM   14  H   UNL     1     -44.152  58.992 -58.246  1.00  0.00     0.163 HD
ENDROOT
BRANCH   1  15
HETATM   15  C   UNL     1     -42.051  56.332 -55.228  1.00  0.00     0.146 C 
BRANCH  15  16
HETATM   16  C   UNL     1     -43.230  55.732 -54.505  1.00  0.00     0.224 C 
HETATM   17  N   UNL     1     -43.137  54.606 -53.757  1.00  0.00    -0.327 N 
HETATM   18  H   UNL     1     -44.051  54.265 -53.468  1.00  0.00     0.169 HD
HETATM   19  O   UNL     1     -44.333  56.288 -54.614  1.00  0.00    -0.273 OA
BRANCH  17  20
HETATM   20  C   UNL     1     -42.054  53.803 -53.351  1.00  0.00     0.035 A 
HETATM   21  C   UNL     1     -41.499  52.766 -54.099  1.00  0.00     0.036 A 
HETATM   22  C   UNL     1     -40.417  52.020 -53.600  1.00  0.00    -0.059 A 
HETATM   23  C   UNL     1     -39.793  50.935 -54.430  1.00  0.00     0.048 C 
HETATM   24  C   UNL     1     -39.875  52.343 -52.352  1.00  0.00     0.013 A 
HETATM   25  C   UNL     1     -40.410  53.386 -51.592  1.00  0.00    -0.059 A 
HETATM   26  C   UNL     1     -41.482  54.122 -52.110  1.00  0.00     0.036 A 
HETATM   27  C   UNL     1     -39.803  53.745 -50.267  1.00  0.00     0.048 C 
ENDBRANCH  17  20
ENDBRANCH  15  16
ENDBRANCH   1  15
TORSDOF 3
ENDMDL
MODEL 4
REMARK VINA RESULT:      -8.1      2.366      3.903
REMARK  3 active torsions:
REMARK  status: ('A' for Active; 'I' for Inactive)
REMARK    1  A    between atoms: C_4  and  N_5 
REMARK       I    between atoms: N_5  and  C_6 
REMARK    2  A    between atoms: C_6  and  C_7 
REMARK    3  A    between atoms: C_7  and  C_8 
ROOT
HETATM    1  C   UNL     1     -41.907  57.863 -53.612  1.00  0.00     0.286 C 
HETATM    2  N   UNL     1     -43.010  57.367 -52.677  1.00  0.00    -0.056 N 
HETATM    3  H   UNL     1     -43.573  56.681 -53.222  1.00  0.00     0.278 HD
HETATM    4  H   UNL     1     -42.606  56.844 -51.890  1.00  0.00     0.278 HD
HETATM    5  C   UNL     1     -43.855  58.511 -52.208  1.00  0.00     0.209 C 
HETATM    6  C   UNL     1     -42.950  59.482 -51.414  1.00  0.00     0.115 C 
HETATM    7  N   UNL     1     -41.758  59.875 -52.163  1.00  0.00    -0.353 N 
HETATM    8  C   UNL     1     -41.066  58.982 -52.958  1.00  0.00     0.249 C 
HETATM    9  O   UNL     1     -39.873  59.142 -53.180  1.00  0.00    -0.271 OA
HETATM   10  C   UNL     1     -45.008  58.011 -51.350  1.00  0.00     0.035 C 
HETATM   11  C   UNL     1     -45.838  59.198 -50.858  1.00  0.00     0.002 C 
HETATM   12  C   UNL     1     -44.985  60.246 -50.137  1.00  0.00     0.002 C 
HETATM   13  C   UNL     1     -43.771  60.689 -50.959  1.00  0.00     0.027 C 
HETATM   14  H   UNL     1     -41.145  60.572 -51.744  1.00  0.00     0.163 HD
ENDROOT
BRANCH   1  15
HETATM   15  C   UNL     1     -41.040  56.705 -54.116  1.00  0.00     0.146 C 
BRANCH  15  16
HETATM   16  C   UNL     1     -41.888  55.748 -54.914  1.00  0.00     0.224 C 
HETATM   17  N   UNL     1     -41.813  54.402 -54.768  1.00  0.00    -0.327 N 
HETATM   18  H   UNL     1     -42.343  53.913 -55.485  1.00  0.00     0.169 HD
HETATM   19  O   UNL     1     -42.676  56.216 -55.749  1.00  0.00    -0.273 OA
BRANCH  17  20
HETATM   20  C   UNL     1     -41.123  53.566 -53.871  1.00  0.00     0.035 A 
HETATM   21  C   UNL     1     -40.913  53.838 -52.519  1.00  0.00     0.036 A 
HETATM   22  C   UNL     1     -40.205  52.936 -51.706  1.00  0.00    -0.059 A 
HETATM   23  C   UNL     1     -40.024  53.212 -50.241  1.00  0.00     0.048 C 
HETATM   24  C   UNL     1     -39.732  51.739 -52.255  1.00  0.00     0.013 A 
HETATM   25  C   UNL     1     -39.942  51.443 -53.604  1.00  0.00    -0.059 A 
HETATM   26  C   UNL     1     -40.656  52.351 -54.395  1.00  0.00     0.036 A 
HETATM   27  C   UNL     1     -39.457  50.144 -54.177  1.00  0.00     0.048 C 
ENDBRANCH  17  20
ENDBRANCH  15  16
ENDBRANCH   1  15
TORSDOF 3
ENDMDL
MODEL 5
REMARK VINA RESULT:      -7.9      3.488      5.343
REMARK  3 active torsions:
REMARK  status: ('A' for Active; 'I' for Inactive)
REMARK    1  A    between atoms: C_4  and  N_5 
REMARK       I    between atoms: N_5  and  C_6 
REMARK    2  A    between atoms: C_6  and  C_7 
REMARK    3  A    between atoms: C_7  and  C_8 
ROOT
HETATM    1  C   UNL     1     -42.074  57.494 -55.222  1.00  0.00     0.286 C 
HETATM    2  N   UNL     1     -43.031  56.656 -56.069  1.00  0.00    -0.056 N 
HETATM    3  H   UNL     1     -42.989  55.686 -55.691  1.00  0.00     0.278 HD
HETATM    4  H   UNL     1     -43.999  56.972 -55.937  1.00  0.00     0.278 HD
HETATM    5  C   UNL     1     -42.626  56.694 -57.511  1.00  0.00     0.209 C 
HETATM    6  C   UNL     1     -42.711  58.160 -57.995  1.00  0.00     0.115 C 
HETATM    7  N   UNL     1     -41.970  59.078 -57.132  1.00  0.00    -0.353 N 
HETATM    8  C   UNL     1     -41.953  58.937 -55.758  1.00  0.00     0.249 C 
HETATM    9  O   UNL     1     -41.768  59.908 -55.035  1.00  0.00    -0.271 OA
HETATM   10  C   UNL     1     -43.522  55.788 -58.344  1.00  0.00     0.035 C 
HETATM   11  C   UNL     1     -43.110  55.867 -59.816  1.00  0.00     0.002 C 
HETATM   12  C   UNL     1     -43.087  57.307 -60.337  1.00  0.00     0.002 C 
HETATM   13  C   UNL     1     -42.258  58.244 -59.453  1.00  0.00     0.027 C 
HETATM   14  H   UNL     1     -41.910  60.053 -57.420  1.00  0.00     0.163 HD
ENDROOT
BRANCH   1  15
HETATM   15  C   UNL     1     -42.462  57.456 -53.740  1.00  0.00     0.146 C 
BRANCH  15  16
HETATM   16  C   UNL     1     -43.671  56.575 -53.557  1.00  0.00     0.224 C 
HETATM   17  N   UNL     1     -43.586  55.288 -53.138  1.00  0.00    -0.327 N 
HETATM   18  H   UNL     1     -44.477  54.804 -53.214  1.00  0.00     0.169 HD
HETATM   19  O   UNL     1     -44.788  57.046 -53.815  1.00  0.00    -0.273 OA
BRANCH  17  20
HETATM   20  C   UNL     1     -42.521  54.492 -52.676  1.00  0.00     0.035 A 
HETATM   21  C   UNL     1     -42.092  54.416 -51.351  1.00  0.00     0.036 A 
HETATM   22  C   UNL     1     -41.012  53.591 -50.992  1.00  0.00    -0.059 A 
HETATM   23  C   UNL     1     -40.585  53.477 -49.557  1.00  0.00     0.048 C 
HETATM   24  C   UNL     1     -40.381  52.817 -51.971  1.00  0.00     0.013 A 
HETATM   25  C   UNL     1     -40.803  52.870 -53.302  1.00  0.00    -0.059 A 
HETATM   26  C   UNL     1     -41.886  53.692 -53.638  1.00  0.00     0.036 A 
HETATM   27  C   UNL     1     -40.140  52.014 -54.341  1.00  0.00     0.048 C 
ENDBRANCH  17  20
ENDBRANCH  15  16
ENDBRANCH   1  15
TORSDOF 3
ENDMDL
MODEL 6
REMARK VINA RESULT:      -7.9      3.351      5.263
REMARK  3 active torsions:
REMARK  status: ('A' for Active; 'I' for Inactive)
REMARK    1  A    between atoms: C_4  and  N_5 
REMARK       I    between atoms: N_5  and  C_6 
REMARK    2  A    between atoms: C_6  and  C_7 
REMARK    3  A    between atoms: C_7  and  C_8 
ROOT
HETATM    1  C   UNL     1     -42.085  57.621 -54.969  1.00  0.00     0.286 C 
HETATM    2  N   UNL     1     -42.929  56.699 -55.848  1.00  0.00    -0.056 N 
HETATM    3  H   UNL     1     -42.802  55.735 -55.474  1.00  0.00     0.278 HD
HETATM    4  H   UNL     1     -43.928  56.917 -55.742  1.00  0.00     0.278 HD
HETATM    5  C   UNL     1     -42.490  56.789 -57.277  1.00  0.00     0.209 C 
HETATM    6  C   UNL     1     -42.707  58.243 -57.756  1.00  0.00     0.115 C 
HETATM    7  N   UNL     1     -42.085  59.223 -56.866  1.00  0.00    -0.353 N 
HETATM    8  C   UNL     1     -42.092  59.073 -55.493  1.00  0.00     0.249 C 
HETATM    9  O   UNL     1     -42.025  60.052 -54.761  1.00  0.00    -0.271 OA
HETATM   10  C   UNL     1     -43.267  55.806 -58.141  1.00  0.00     0.035 C 
HETATM   11  C   UNL     1     -42.824  55.937 -59.599  1.00  0.00     0.002 C 
HETATM   12  C   UNL     1     -42.929  57.376 -60.112  1.00  0.00     0.002 C 
HETATM   13  C   UNL     1     -42.223  58.384 -59.200  1.00  0.00     0.027 C 
HETATM   14  H   UNL     1     -42.114  60.202 -57.147  1.00  0.00     0.163 HD
ENDROOT
BRANCH   1  15
HETATM   15  C   UNL     1     -42.509  57.532 -53.499  1.00  0.00     0.146 C 
BRANCH  15  16
HETATM   16  C   UNL     1     -43.720  56.643 -53.375  1.00  0.00     0.224 C 
HETATM   17  N   UNL     1     -43.634  55.322 -53.085  1.00  0.00    -0.327 N 
HETATM   18  H   UNL     1     -44.531  54.852 -53.188  1.00  0.00     0.169 HD
HETATM   19  O   UNL     1     -44.839  57.143 -53.561  1.00  0.00    -0.273 OA
BRANCH  17  20
HETATM   20  C   UNL     1     -42.565  54.480 -52.726  1.00  0.00     0.035 A 
HETATM   21  C   UNL     1     -41.847  53.674 -53.608  1.00  0.00     0.036 A 
HETATM   22  C   UNL     1     -40.795  52.863 -53.147  1.00  0.00    -0.059 A 
HETATM   23  C   UNL     1     -39.994  52.033 -54.109  1.00  0.00     0.048 C 
HETATM   24  C   UNL     1     -40.449  52.889 -51.792  1.00  0.00     0.013 A 
HETATM   25  C   UNL     1     -41.150  53.698 -50.894  1.00  0.00    -0.059 A 
HETATM   26  C   UNL     1     -42.189  54.504 -51.375  1.00  0.00     0.036 A 
HETATM   27  C   UNL     1     -40.753  53.742 -49.447  1.00  0.00     0.048 C 
ENDBRANCH  17  20
ENDBRANCH  15  16
ENDBRANCH   1  15
TORSDOF 3
ENDMDL
MODEL 7
REMARK VINA RESULT:      -7.8      1.967      3.061
REMARK  3 active torsions:
REMARK  status: ('A' for Active; 'I' for Inactive)
REMARK    1  A    between atoms: C_4  and  N_5 
REMARK       I    between atoms: N_5  and  C_6 
REMARK    2  A    between atoms: C_6  and  C_7 
REMARK    3  A    between atoms: C_7  and  C_8 
ROOT
HETATM    1  C   UNL     1     -43.024  55.897 -51.543  1.00  0.00     0.286 C 
HETATM    2  N   UNL     1     -42.902  55.306 -52.947  1.00  0.00    -0.056 N 
HETATM    3  H   UNL     1     -41.967  54.849 -52.996  1.00  0.00     0.278 HD
HETATM    4  H   UNL     1     -43.594  54.558 -53.084  1.00  0.00     0.278 HD
HETATM    5  C   UNL     1     -43.034  56.380 -53.982  1.00  0.00     0.209 C 
HETATM    6  C   UNL     1     -44.440  57.009 -53.845  1.00  0.00     0.115 C 
HETATM    7  N   UNL     1     -44.727  57.444 -52.478  1.00  0.00    -0.353 N 
HETATM    8  C   UNL     1     -44.326  56.711 -51.378  1.00  0.00     0.249 C 
HETATM    9  O   UNL     1     -44.941  56.788 -50.322  1.00  0.00    -0.271 OA
HETATM   10  C   UNL     1     -42.823  55.810 -55.378  1.00  0.00     0.035 C 
HETATM   11  C   UNL     1     -42.994  56.918 -56.419  1.00  0.00     0.002 C 
HETATM   12  C   UNL     1     -44.335  57.645 -56.282  1.00  0.00     0.002 C 
HETATM   13  C   UNL     1     -44.594  58.145 -54.857  1.00  0.00     0.027 C 
HETATM   14  H   UNL     1     -45.602  57.939 -52.313  1.00  0.00     0.163 HD
ENDROOT
BRANCH   1  15
HETATM   15  C   UNL     1     -42.876  54.816 -50.468  1.00  0.00     0.146 C 
BRANCH  15  16
HETATM   16  C   UNL     1     -41.497  54.890 -49.862  1.00  0.00     0.224 C 
HETATM   17  N   UNL     1     -40.451  54.164 -50.328  1.00  0.00    -0.327 N 
HETATM   18  H   UNL     1     -39.643  54.225 -49.713  1.00  0.00     0.169 HD
HETATM   19  O   UNL     1     -41.320  55.637 -48.889  1.00  0.00    -0.273 OA
BRANCH  17  20
HETATM   20  C   UNL     1     -40.280  53.322 -51.443  1.00  0.00     0.035 A 
HETATM   21  C   UNL     1     -40.353  53.728 -52.775  1.00  0.00     0.036 A 
HETATM   22  C   UNL     1     -40.172  52.805 -53.819  1.00  0.00    -0.059 A 
HETATM   23  C   UNL     1     -40.204  53.257 -55.250  1.00  0.00     0.048 C 
HETATM   24  C   UNL     1     -39.886  51.470 -53.515  1.00  0.00     0.013 A 
HETATM   25  C   UNL     1     -39.797  51.045 -52.187  1.00  0.00    -0.059 A 
HETATM   26  C   UNL     1     -39.974  51.982 -51.162  1.00  0.00     0.036 A 
HETATM   27  C   UNL     1     -39.461  49.617 -51.871  1.00  0.00     0.048 C 
ENDBRANCH  17  20
ENDBRANCH  15  16
ENDBRANCH   1  15
TORSDOF 3
ENDMDL
MODEL 8
REMARK VINA RESULT:      -7.8      1.870      6.769
REMARK  3 active torsions:
REMARK  status: ('A' for Active; 'I' for Inactive)
REMARK    1  A    between atoms: C_4  and  N_5 
REMARK       I    between atoms: N_5  and  C_6 
REMARK    2  A    between atoms: C_6  and  C_7 
REMARK    3  A    between atoms: C_7  and  C_8 
ROOT
HETATM    1  C   UNL     1     -42.990  55.276 -53.148  1.00  0.00     0.286 C 
HETATM    2  N   UNL     1     -41.913  54.669 -54.047  1.00  0.00    -0.056 N 
HETATM    3  H   UNL     1     -42.362  54.495 -54.971  1.00  0.00     0.278 HD
HETATM    4  H   UNL     1     -41.162  55.349 -54.218  1.00  0.00     0.278 HD
HETATM    5  C   UNL     1     -41.387  53.400 -53.452  1.00  0.00     0.209 C 
HETATM    6  C   UNL     1     -40.741  53.740 -52.089  1.00  0.00     0.115 C 
HETATM    7  N   UNL     1     -41.640  54.492 -51.216  1.00  0.00    -0.353 N 
HETATM    8  C   UNL     1     -42.481  55.474 -51.703  1.00  0.00     0.249 C 
HETATM    9  O   UNL     1     -42.850  56.392 -50.981  1.00  0.00    -0.271 OA
HETATM   10  C   UNL     1     -40.380  52.745 -54.387  1.00  0.00     0.035 C 
HETATM   11  C   UNL     1     -39.833  51.468 -53.746  1.00  0.00     0.002 C 
HETATM   12  C   UNL     1     -39.256  51.719 -52.349  1.00  0.00     0.002 C 
HETATM   13  C   UNL     1     -40.233  52.457 -51.429  1.00  0.00     0.027 C 
HETATM   14  H   UNL     1     -41.323  54.693 -50.269  1.00  0.00     0.163 HD
ENDROOT
BRANCH   1  15
HETATM   15  C   UNL     1     -43.553  56.569 -53.747  1.00  0.00     0.146 C 
BRANCH  15  16
HETATM   16  C   UNL     1     -42.503  57.227 -54.606  1.00  0.00     0.224 C 
HETATM   17  N   UNL     1     -41.739  58.258 -54.171  1.00  0.00    -0.327 N 
HETATM   18  H   UNL     1     -41.194  58.671 -54.924  1.00  0.00     0.169 HD
HETATM   19  O   UNL     1     -42.346  56.814 -55.765  1.00  0.00    -0.273 OA
BRANCH  17  20
HETATM   20  C   UNL     1     -41.589  58.888 -52.921  1.00  0.00     0.035 A 
HETATM   21  C   UNL     1     -42.605  59.540 -52.224  1.00  0.00     0.036 A 
HETATM   22  C   UNL     1     -42.351  60.143 -50.980  1.00  0.00    -0.059 A 
HETATM   23  C   UNL     1     -43.460  60.802 -50.212  1.00  0.00     0.048 C 
HETATM   24  C   UNL     1     -41.069  60.062 -50.425  1.00  0.00     0.013 A 
HETATM   25  C   UNL     1     -40.040  59.404 -51.102  1.00  0.00    -0.059 A 
HETATM   26  C   UNL     1     -40.317  58.803 -52.337  1.00  0.00     0.036 A 
HETATM   27  C   UNL     1     -38.676  59.296 -50.486  1.00  0.00     0.048 C 
ENDBRANCH  17  20
ENDBRANCH  15  16
ENDBRANCH   1  15
TORSDOF 3
ENDMDL
MODEL 9
REMARK VINA RESULT:      -7.8      1.901      6.012
REMARK  3 active torsions:
REMARK  status: ('A' for Active; 'I' for Inactive)
REMARK    1  A    between atoms: C_4  and  N_5 
REMARK       I    between atoms: N_5  and  C_6 
REMARK    2  A    between atoms: C_6  and  C_7 
REMARK    3  A    between atoms: C_7  and  C_8 
ROOT
HETATM    1  C   UNL     1     -42.224  55.222 -51.236  1.00  0.00     0.286 C 
HETATM    2  N   UNL     1     -41.613  54.950 -52.610  1.00  0.00    -0.056 N 
HETATM    3  H   UNL     1     -42.335  55.217 -53.313  1.00  0.00     0.278 HD
HETATM    4  H   UNL     1     -40.810  55.569 -52.776  1.00  0.00     0.278 HD
HETATM    5  C   UNL     1     -41.238  53.506 -52.742  1.00  0.00     0.209 C 
HETATM    6  C   UNL     1     -40.171  53.188 -51.669  1.00  0.00     0.115 C 
HETATM    7  N   UNL     1     -40.591  53.587 -50.327  1.00  0.00    -0.353 N 
HETATM    8  C   UNL     1     -41.293  54.754 -50.096  1.00  0.00     0.249 C 
HETATM    9  O   UNL     1     -41.224  55.317 -49.011  1.00  0.00    -0.271 OA
HETATM   10  C   UNL     1     -40.714  53.212 -54.140  1.00  0.00     0.035 C 
HETATM   11  C   UNL     1     -40.308  51.741 -54.241  1.00  0.00     0.002 C 
HETATM   12  C   UNL     1     -39.316  51.334 -53.148  1.00  0.00     0.002 C 
HETATM   13  C   UNL     1     -39.797  51.707 -51.742  1.00  0.00     0.027 C 
HETATM   14  H   UNL     1     -39.979  53.345 -49.548  1.00  0.00     0.163 HD
ENDROOT
BRANCH   1  15
HETATM   15  C   UNL     1     -42.629  56.692 -51.087  1.00  0.00     0.146 C 
BRANCH  15  16
HETATM   16  C   UNL     1     -44.091  56.850 -51.420  1.00  0.00     0.224 C 
HETATM   17  N   UNL     1     -44.530  57.172 -52.662  1.00  0.00    -0.327 N 
HETATM   18  H   UNL     1     -45.526  57.381 -52.670  1.00  0.00     0.169 HD
HETATM   19  O   UNL     1     -44.923  56.691 -50.514  1.00  0.00    -0.273 OA
BRANCH  17  20
HETATM   20  C   UNL     1     -43.887  57.319 -53.905  1.00  0.00     0.035 A 
HETATM   21  C   UNL     1     -43.727  56.307 -54.851  1.00  0.00     0.036 A 
HETATM   22  C   UNL     1     -43.064  56.556 -56.065  1.00  0.00    -0.059 A 
HETATM   23  C   UNL     1     -42.936  55.476 -57.099  1.00  0.00     0.048 C 
HETATM   24  C   UNL     1     -42.585  57.843 -56.336  1.00  0.00     0.013 A 
HETATM   25  C   UNL     1     -42.745  58.873 -55.407  1.00  0.00    -0.059 A 
HETATM   26  C   UNL     1     -43.416  58.606 -54.207  1.00  0.00     0.036 A 
HETATM   27  C   UNL     1     -42.255  60.257 -55.719  1.00  0.00     0.048 C 
ENDBRANCH  17  20
ENDBRANCH  15  16
ENDBRANCH   1  15
TORSDOF 3
ENDMDL
MODEL 10
REMARK VINA RESULT:      -7.7      3.932      6.981
REMARK  3 active torsions:
REMARK  status: ('A' for Active; 'I' for Inactive)
REMARK    1  A    between atoms: C_4  and  N_5 
REMARK       I    between atoms: N_5  and  C_6 
REMARK    2  A    between atoms: C_6  and  C_7 
REMARK    3  A    between atoms: C_7  and  C_8 
ROOT
HETATM    1  C   UNL     1     -43.064  54.939 -54.038  1.00  0.00     0.286 C 
HETATM    2  N   UNL     1     -41.770  54.320 -54.566  1.00  0.00    -0.056 N 
HETATM    3  H   UNL     1     -41.969  54.001 -55.537  1.00  0.00     0.278 HD
HETATM    4  H   UNL     1     -41.036  55.034 -54.644  1.00  0.00     0.278 HD
HETATM    5  C   UNL     1     -41.342  53.178 -53.697  1.00  0.00     0.209 C 
HETATM    6  C   UNL     1     -41.069  53.730 -52.278  1.00  0.00     0.115 C 
HETATM    7  N   UNL     1     -42.193  54.504 -51.754  1.00  0.00    -0.353 N 
HETATM    8  C   UNL     1     -42.937  55.349 -52.555  1.00  0.00     0.249 C 
HETATM    9  O   UNL     1     -43.518  56.312 -52.072  1.00  0.00    -0.271 OA
HETATM   10  C   UNL     1     -40.104  52.501 -54.269  1.00  0.00     0.035 C 
HETATM   11  C   UNL     1     -39.668  51.359 -53.349  1.00  0.00     0.002 C 
HETATM   12  C   UNL     1     -39.466  51.821 -51.903  1.00  0.00     0.002 C 
HETATM   13  C   UNL     1     -40.675  52.580 -51.349  1.00  0.00     0.027 C 
HETATM   14  H   UNL     1     -42.128  54.841 -50.794  1.00  0.00     0.163 HD
ENDROOT
BRANCH   1  15
HETATM   15  C   UNL     1     -43.527  56.101 -54.923  1.00  0.00     0.146 C 
BRANCH  15  16
HETATM   16  C   UNL     1     -42.327  56.852 -55.441  1.00  0.00     0.224 C 
HETATM   17  N   UNL     1     -42.119  57.085 -56.760  1.00  0.00    -0.327 N 
HETATM   18  H   UNL     1     -41.194  57.470 -56.936  1.00  0.00     0.169 HD
HETATM   19  O   UNL     1     -41.489  57.260 -54.622  1.00  0.00    -0.273 OA
BRANCH  17  20
HETATM   20  C   UNL     1     -42.893  56.858 -57.914  1.00  0.00     0.035 A 
HETATM   21  C   UNL     1     -43.389  55.619 -58.317  1.00  0.00     0.036 A 
HETATM   22  C   UNL     1     -44.150  55.498 -59.492  1.00  0.00    -0.059 A 
HETATM   23  C   UNL     1     -44.721  54.170 -59.897  1.00  0.00     0.048 C 
HETATM   24  C   UNL     1     -44.437  56.640 -60.248  1.00  0.00     0.013 A 
HETATM   25  C   UNL     1     -43.959  57.892 -59.854  1.00  0.00    -0.059 A 
HETATM   26  C   UNL     1     -43.209  57.993 -58.676  1.00  0.00     0.036 A 
HETATM   27  C   UNL     1     -44.297  59.117 -60.654  1.00  0.00     0.048 C 
ENDBRANCH  17  20
ENDBRANCH  15  16
ENDBRANCH   1  15
TORSDOF 3
ENDMDL
