MODEL 1
REMARK VINA RESULT:      -8.7      0.000      0.000
REMARK  6 active torsions:
REMARK  status: ('A' for Active; 'I' for Inactive)
REMARK    1  A    between atoms: C_2  and  C_3 
REMARK    2  A    between atoms: C_2  and  C_9 
REMARK    3  A    between atoms: C_9  and  C_10 
REMARK    4  A    between atoms: C_10  and  C_11 
REMARK       I    between atoms: C_11  and  N_12 
REMARK    5  A    between atoms: N_12  and  C_13 
REMARK    6  A    between atoms: C_20  and  C_21 
REMARK       I    between atoms: C_21  and  N_22 
ROOT
HETATM    1  C   UNL     1     -42.938  57.134 -57.152  1.00  0.00     0.035 A 
HETATM    2  C   UNL     1     -43.445  56.296 -58.160  1.00  0.00     0.046 A 
HETATM    3  C   UNL     1     -44.507  56.741 -58.974  1.00  0.00     0.030 A 
HETATM    4  C   UNL     1     -45.032  58.008 -58.756  1.00  0.00     0.063 A 
HETATM    5  N   UNL     1     -46.026  58.155 -59.682  1.00  0.00    -0.277 N 
HETATM    6  H   UNL     1     -46.623  58.963 -59.817  1.00  0.00     0.189 HD
HETATM    7  N   UNL     1     -46.197  57.092 -60.487  1.00  0.00    -0.168 NA
HETATM    8  C   UNL     1     -45.266  56.209 -60.059  1.00  0.00     0.156 A 
HETATM    9  C   UNL     1     -44.556  58.866 -57.763  1.00  0.00     0.034 A 
HETATM   10  C   UNL     1     -43.499  58.401 -56.967  1.00  0.00     0.032 A 
ENDROOT
BRANCH   1  11
HETATM   11  N   UNL     1     -41.864  56.631 -56.384  1.00  0.00    -0.327 N 
HETATM   12  C   UNL     1     -41.900  56.199 -55.072  1.00  0.00     0.222 C 
HETATM   13  O   UNL     1     -42.890  56.135 -54.349  1.00  0.00    -0.273 OA
HETATM   14  H   UNL     1     -40.974  56.567 -56.864  1.00  0.00     0.169 HD
BRANCH  12  15
HETATM   15  C   UNL     1     -40.536  55.783 -54.545  1.00  0.00     0.103 C 
BRANCH  15  16
HETATM   16  C   UNL     1     -40.348  54.265 -54.611  1.00  0.00     0.018 C 
BRANCH  16  17
HETATM   17  C   UNL     1     -40.943  53.516 -53.398  1.00  0.00     0.015 C 
HETATM   18  C   UNL     1     -40.711  54.315 -52.110  1.00  0.00     0.015 C 
BRANCH  17  19
HETATM   19  C   UNL     1     -40.394  52.104 -53.254  1.00  0.00    -0.054 A 
HETATM   20  C   UNL     1     -40.375  51.209 -54.335  1.00  0.00     0.007 A 
HETATM   21  C   UNL     1     -39.875  49.915 -54.180  1.00  0.00     0.001 A 
HETATM   22  C   UNL     1     -39.384  49.500 -52.946  1.00  0.00     0.000 A 
HETATM   23  C   UNL     1     -39.390  50.379 -51.865  1.00  0.00     0.001 A 
HETATM   24  C   UNL     1     -39.891  51.673 -52.017  1.00  0.00     0.007 A 
ENDBRANCH  17  19
ENDBRANCH  16  17
ENDBRANCH  15  16
ENDBRANCH  12  15
ENDBRANCH   1  11
BRANCH   8  25
HETATM   25  C   UNL     1     -45.116  54.890 -60.686  1.00  0.00     0.270 C 
HETATM   26  N   UNL     1     -45.185  53.843 -59.808  1.00  0.00    -0.365 N 
HETATM   27  H   UNL     1     -45.330  54.044 -58.825  1.00  0.00     0.159 HD
HETATM   28  H   UNL     1     -45.095  52.898 -60.144  1.00  0.00     0.159 HD
HETATM   29  O   UNL     1     -44.943  54.708 -61.887  1.00  0.00    -0.266 OA
ENDBRANCH   8  25
TORSDOF 6
ENDMDL
MODEL 2
REMARK VINA RESULT:      -8.6      1.382      2.784
REMARK  6 active torsions:
REMARK  status: ('A' for Active; 'I' for Inactive)
REMARK    1  A    between atoms: C_2  and  C_3 
REMARK    2  A    between atoms: C_2  and  C_9 
REMARK    3  A    between atoms: C_9  and  C_10 
REMARK    4  A    between atoms: C_10  and  C_11 
REMARK       I    between atoms: C_11  and  N_12 
REMARK    5  A    between atoms: N_12  and  C_13 
REMARK    6  A    between atoms: C_20  and  C_21 
REMARK       I    between atoms: C_21  and  N_22 
ROOT
HETATM    1  C   UNL     1     -42.505  56.197 -56.828  1.00  0.00     0.035 A 
HETATM    2  C   UNL     1     -43.134  55.602 -57.936  1.00  0.00     0.046 A 
HETATM    3  C   UNL     1     -44.113  56.319 -58.656  1.00  0.00     0.030 A 
HETATM    4  C   UNL     1     -44.434  57.607 -58.248  1.00  0.00     0.063 A 
HETATM    5  N   UNL     1     -45.390  58.038 -59.124  1.00  0.00    -0.277 N 
HETATM    6  H   UNL     1     -45.854  58.939 -59.130  1.00  0.00     0.189 HD
HETATM    7  N   UNL     1     -45.723  57.142 -60.069  1.00  0.00    -0.168 NA
HETATM    8  C   UNL     1     -44.943  56.073 -59.790  1.00  0.00     0.156 A 
HETATM    9  C   UNL     1     -43.832  58.228 -57.153  1.00  0.00     0.034 A 
HETATM   10  C   UNL     1     -42.862  57.496 -56.453  1.00  0.00     0.032 A 
ENDROOT
BRANCH   1  11
HETATM   11  N   UNL     1     -41.525  55.429 -56.162  1.00  0.00    -0.327 N 
HETATM   12  C   UNL     1     -41.731  54.351 -55.322  1.00  0.00     0.222 C 
HETATM   13  O   UNL     1     -42.810  53.841 -55.037  1.00  0.00    -0.273 OA
HETATM   14  H   UNL     1     -40.564  55.695 -56.340  1.00  0.00     0.169 HD
BRANCH  12  15
HETATM   15  C   UNL     1     -40.443  53.806 -54.727  1.00  0.00     0.103 C 
BRANCH  15  16
HETATM   16  C   UNL     1     -40.704  52.574 -53.856  1.00  0.00     0.018 C 
BRANCH  16  17
HETATM   17  C   UNL     1     -39.830  52.521 -52.583  1.00  0.00     0.015 C 
HETATM   18  C   UNL     1     -39.602  51.067 -52.152  1.00  0.00     0.015 C 
BRANCH  17  19
HETATM   19  C   UNL     1     -40.415  53.331 -51.436  1.00  0.00    -0.054 A 
HETATM   20  C   UNL     1     -39.641  53.693 -50.322  1.00  0.00     0.007 A 
HETATM   21  C   UNL     1     -40.199  54.429 -49.276  1.00  0.00     0.001 A 
HETATM   22  C   UNL     1     -41.535  54.817 -49.330  1.00  0.00     0.000 A 
HETATM   23  C   UNL     1     -42.314  54.471 -50.433  1.00  0.00     0.001 A 
HETATM   24  C   UNL     1     -41.758  53.733 -51.480  1.00  0.00     0.007 A 
ENDBRANCH  17  19
ENDBRANCH  16  17
ENDBRANCH  15  16
ENDBRANCH  12  15
ENDBRANCH   1  11
BRANCH   8  25
HETATM   25  C   UNL     1     -44.998  54.851 -60.602  1.00  0.00     0.270 C 
HETATM   26  N   UNL     1     -45.146  53.703 -59.873  1.00  0.00    -0.365 N 
HETATM   27  H   UNL     1     -45.204  53.773 -58.864  1.00  0.00     0.159 HD
HETATM   28  H   UNL     1     -45.196  52.812 -60.342  1.00  0.00     0.159 HD
HETATM   29  O   UNL     1     -44.923  54.827 -61.826  1.00  0.00    -0.266 OA
ENDBRANCH   8  25
TORSDOF 6
ENDMDL
MODEL 3
REMARK VINA RESULT:      -8.6      5.130      7.120
REMARK  6 active torsions:
REMARK  status: ('A' for Active; 'I' for Inactive)
REMARK    1  A    between atoms: C_2  and  C_3 
REMARK    2  A    between atoms: C_2  and  C_9 
REMARK    3  A    between atoms: C_9  and  C_10 
REMARK    4  A    between atoms: C_10  and  C_11 
REMARK       I    between atoms: C_11  and  N_12 
REMARK    5  A    between atoms: N_12  and  C_13 
REMARK    6  A    between atoms: C_20  and  C_21 
REMARK       I    between atoms: C_21  and  N_22 
ROOT
HETATM    1  C   UNL     1     -42.214  54.818 -51.139  1.00  0.00     0.035 A 
HETATM    2  C   UNL     1     -41.399  55.928 -51.422  1.00  0.00     0.046 A 
HETATM    3  C   UNL     1     -41.945  57.228 -51.381  1.00  0.00     0.030 A 
HETATM    4  C   UNL     1     -43.287  57.380 -51.061  1.00  0.00     0.063 A 
HETATM    5  N   UNL     1     -43.519  58.726 -51.097  1.00  0.00    -0.277 N 
HETATM    6  H   UNL     1     -44.395  59.202 -50.910  1.00  0.00     0.189 HD
HETATM    7  N   UNL     1     -42.445  59.468 -51.415  1.00  0.00    -0.168 NA
HETATM    8  C   UNL     1     -41.464  58.554 -51.595  1.00  0.00     0.156 A 
HETATM    9  C   UNL     1     -44.126  56.302 -50.777  1.00  0.00     0.034 A 
HETATM   10  C   UNL     1     -43.561  55.019 -50.823  1.00  0.00     0.032 A 
ENDROOT
BRANCH   1  11
HETATM   11  N   UNL     1     -41.600  53.547 -51.183  1.00  0.00    -0.327 N 
HETATM   12  C   UNL     1     -40.365  53.193 -50.674  1.00  0.00     0.222 C 
HETATM   13  O   UNL     1     -39.595  53.917 -50.050  1.00  0.00    -0.273 OA
HETATM   14  H   UNL     1     -42.141  52.813 -51.625  1.00  0.00     0.169 HD
BRANCH  12  15
HETATM   15  C   UNL     1     -39.995  51.747 -50.963  1.00  0.00     0.103 C 
BRANCH  15  16
HETATM   16  C   UNL     1     -39.321  51.602 -52.331  1.00  0.00     0.018 C 
BRANCH  16  17
HETATM   17  C   UNL     1     -40.316  51.354 -53.486  1.00  0.00     0.015 C 
HETATM   18  C   UNL     1     -39.701  50.412 -54.528  1.00  0.00     0.015 C 
BRANCH  17  19
HETATM   19  C   UNL     1     -40.784  52.642 -54.144  1.00  0.00    -0.054 A 
HETATM   20  C   UNL     1     -42.132  52.850 -54.479  1.00  0.00     0.007 A 
HETATM   21  C   UNL     1     -42.539  54.037 -55.091  1.00  0.00     0.001 A 
HETATM   22  C   UNL     1     -41.608  55.032 -55.372  1.00  0.00     0.000 A 
HETATM   23  C   UNL     1     -40.268  54.844 -55.039  1.00  0.00     0.001 A 
HETATM   24  C   UNL     1     -39.858  53.657 -54.429  1.00  0.00     0.007 A 
ENDBRANCH  17  19
ENDBRANCH  16  17
ENDBRANCH  15  16
ENDBRANCH  12  15
ENDBRANCH   1  11
BRANCH   8  25
HETATM   25  C   UNL     1     -40.100  58.956 -51.963  1.00  0.00     0.270 C 
HETATM   26  N   UNL     1     -39.302  59.264 -50.895  1.00  0.00    -0.365 N 
HETATM   27  H   UNL     1     -39.692  59.197 -49.963  1.00  0.00     0.159 HD
HETATM   28  H   UNL     1     -38.347  59.550 -51.047  1.00  0.00     0.159 HD
HETATM   29  O   UNL     1     -39.682  59.019 -53.114  1.00  0.00    -0.266 OA
ENDBRANCH   8  25
TORSDOF 6
ENDMDL
MODEL 4
REMARK VINA RESULT:      -8.4      4.955      6.782
REMARK  6 active torsions:
REMARK  status: ('A' for Active; 'I' for Inactive)
REMARK    1  A    between atoms: C_2  and  C_3 
REMARK    2  A    between atoms: C_2  and  C_9 
REMARK    3  A    between atoms: C_9  and  C_10 
REMARK    4  A    between atoms: C_10  and  C_11 
REMARK       I    between atoms: C_11  and  N_12 
REMARK    5  A    between atoms: N_12  and  C_13 
REMARK    6  A    between atoms: C_20  and  C_21 
REMARK       I    between atoms: C_21  and  N_22 
ROOT
HETATM    1  C   UNL     1     -42.058  55.547 -52.489  1.00  0.00     0.035 A 
HETATM    2  C   UNL     1     -41.098  56.560 -52.324  1.00  0.00     0.046 A 
HETATM    3  C   UNL     1     -41.449  57.763 -51.678  1.00  0.00     0.030 A 
HETATM    4  C   UNL     1     -42.750  57.919 -51.217  1.00  0.00     0.063 A 
HETATM    5  N   UNL     1     -42.786  59.159 -50.644  1.00  0.00    -0.277 N 
HETATM    6  H   UNL     1     -43.581  59.606 -50.200  1.00  0.00     0.189 HD
HETATM    7  N   UNL     1     -41.622  59.829 -50.693  1.00  0.00    -0.168 NA
HETATM    8  C   UNL     1     -40.786  58.978 -51.331  1.00  0.00     0.156 A 
HETATM    9  C   UNL     1     -43.730  56.937 -51.365  1.00  0.00     0.034 A 
HETATM   10  C   UNL     1     -43.357  55.749 -52.010  1.00  0.00     0.032 A 
ENDROOT
BRANCH   1  11
HETATM   11  N   UNL     1     -41.634  54.363 -53.132  1.00  0.00    -0.327 N 
HETATM   12  C   UNL     1     -42.160  53.794 -54.276  1.00  0.00     0.222 C 
HETATM   13  O   UNL     1     -43.069  54.244 -54.966  1.00  0.00    -0.273 OA
HETATM   14  H   UNL     1     -40.842  53.893 -52.708  1.00  0.00     0.169 HD
BRANCH  12  15
HETATM   15  C   UNL     1     -41.494  52.479 -54.647  1.00  0.00     0.103 C 
BRANCH  15  16
HETATM   16  C   UNL     1     -39.978  52.538 -54.438  1.00  0.00     0.018 C 
BRANCH  16  17
HETATM   17  C   UNL     1     -39.381  51.232 -53.869  1.00  0.00     0.015 C 
HETATM   18  C   UNL     1     -39.867  50.025 -54.679  1.00  0.00     0.015 C 
BRANCH  17  19
HETATM   19  C   UNL     1     -39.690  51.041 -52.392  1.00  0.00    -0.054 A 
HETATM   20  C   UNL     1     -39.678  49.769 -51.797  1.00  0.00     0.007 A 
HETATM   21  C   UNL     1     -39.973  49.615 -50.441  1.00  0.00     0.001 A 
HETATM   22  C   UNL     1     -40.280  50.727 -49.662  1.00  0.00     0.000 A 
HETATM   23  C   UNL     1     -40.289  51.996 -50.237  1.00  0.00     0.001 A 
HETATM   24  C   UNL     1     -39.996  52.153 -51.593  1.00  0.00     0.007 A 
ENDBRANCH  17  19
ENDBRANCH  16  17
ENDBRANCH  15  16
ENDBRANCH  12  15
ENDBRANCH   1  11
BRANCH   8  25
HETATM   25  C   UNL     1     -39.386  59.332 -51.594  1.00  0.00     0.270 C 
HETATM   26  N   UNL     1     -38.693  59.733 -50.485  1.00  0.00    -0.365 N 
HETATM   27  H   UNL     1     -39.175  59.756 -49.594  1.00  0.00     0.159 HD
HETATM   28  H   UNL     1     -37.723  59.995 -50.565  1.00  0.00     0.159 HD
HETATM   29  O   UNL     1     -38.854  59.284 -52.699  1.00  0.00    -0.266 OA
ENDBRANCH   8  25
TORSDOF 6
ENDMDL
MODEL 5
REMARK VINA RESULT:      -8.4      1.778      2.673
REMARK  6 active torsions:
REMARK  status: ('A' for Active; 'I' for Inactive)
REMARK    1  A    between atoms: C_2  and  C_3 
REMARK    2  A    between atoms: C_2  and  C_9 
REMARK    3  A    between atoms: C_9  and  C_10 
REMARK    4  A    between atoms: C_10  and  C_11 
REMARK       I    between atoms: C_11  and  N_12 
REMARK    5  A    between atoms: N_12  and  C_13 
REMARK    6  A    between atoms: C_20  and  C_21 
REMARK       I    between atoms: C_21  and  N_22 
ROOT
HETATM    1  C   UNL     1     -43.529  56.006 -58.444  1.00  0.00     0.035 A 
HETATM    2  C   UNL     1     -44.503  57.017 -58.380  1.00  0.00     0.046 A 
HETATM    3  C   UNL     1     -45.517  57.078 -59.358  1.00  0.00     0.030 A 
HETATM    4  C   UNL     1     -45.526  56.130 -60.372  1.00  0.00     0.063 A 
HETATM    5  N   UNL     1     -46.607  56.439 -61.150  1.00  0.00    -0.277 N 
HETATM    6  H   UNL     1     -46.922  55.952 -61.982  1.00  0.00     0.189 HD
HETATM    7  N   UNL     1     -47.304  57.509 -60.733  1.00  0.00    -0.168 NA
HETATM    8  C   UNL     1     -46.640  57.916 -59.627  1.00  0.00     0.156 A 
HETATM    9  C   UNL     1     -44.575  55.114 -60.469  1.00  0.00     0.034 A 
HETATM   10  C   UNL     1     -43.577  55.073 -59.485  1.00  0.00     0.032 A 
ENDROOT
BRANCH   1  11
HETATM   11  N   UNL     1     -42.552  55.994 -57.424  1.00  0.00    -0.327 N 
HETATM   12  C   UNL     1     -42.504  55.170 -56.316  1.00  0.00     0.222 C 
HETATM   13  O   UNL     1     -43.287  54.265 -56.043  1.00  0.00    -0.273 OA
HETATM   14  H   UNL     1     -41.794  56.658 -57.535  1.00  0.00     0.169 HD
BRANCH  12  15
HETATM   15  C   UNL     1     -41.340  55.484 -55.391  1.00  0.00     0.103 C 
BRANCH  15  16
HETATM   16  C   UNL     1     -40.587  54.213 -54.985  1.00  0.00     0.018 C 
BRANCH  16  17
HETATM   17  C   UNL     1     -41.083  53.598 -53.658  1.00  0.00     0.015 C 
HETATM   18  C   UNL     1     -40.771  54.535 -52.485  1.00  0.00     0.015 C 
BRANCH  17  19
HETATM   19  C   UNL     1     -40.506  52.214 -53.402  1.00  0.00    -0.054 A 
HETATM   20  C   UNL     1     -40.496  51.225 -54.398  1.00  0.00     0.007 A 
HETATM   21  C   UNL     1     -39.969  49.959 -54.140  1.00  0.00     0.001 A 
HETATM   22  C   UNL     1     -39.442  49.665 -52.886  1.00  0.00     0.000 A 
HETATM   23  C   UNL     1     -39.438  50.638 -51.888  1.00  0.00     0.001 A 
HETATM   24  C   UNL     1     -39.966  51.905 -52.144  1.00  0.00     0.007 A 
ENDBRANCH  17  19
ENDBRANCH  16  17
ENDBRANCH  15  16
ENDBRANCH  12  15
ENDBRANCH   1  11
BRANCH   8  25
HETATM   25  C   UNL     1     -47.084  59.082 -58.852  1.00  0.00     0.270 C 
HETATM   26  N   UNL     1     -47.571  58.775 -57.611  1.00  0.00    -0.365 N 
HETATM   27  H   UNL     1     -47.590  57.804 -57.324  1.00  0.00     0.159 HD
HETATM   28  H   UNL     1     -47.898  59.510 -57.003  1.00  0.00     0.159 HD
HETATM   29  O   UNL     1     -47.036  60.240 -59.253  1.00  0.00    -0.266 OA
ENDBRANCH   8  25
TORSDOF 6
ENDMDL
MODEL 6
REMARK VINA RESULT:      -8.3      1.796      2.141
REMARK  6 active torsions:
REMARK  status: ('A' for Active; 'I' for Inactive)
REMARK    1  A    between atoms: C_2  and  C_3 
REMARK    2  A    between atoms: C_2  and  C_9 
REMARK    3  A    between atoms: C_9  and  C_10 
REMARK    4  A    between atoms: C_10  and  C_11 
REMARK       I    between atoms: C_11  and  N_12 
REMARK    5  A    between atoms: N_12  and  C_13 
REMARK    6  A    between atoms: C_20  and  C_21 
REMARK       I    between atoms: C_21  and  N_22 
ROOT
HETATM    1  C   UNL     1     -42.713  56.835 -56.101  1.00  0.00     0.035 A 
HETATM    2  C   UNL     1     -43.265  55.990 -57.080  1.00  0.00     0.046 A 
HETATM    3  C   UNL     1     -43.263  56.389 -58.433  1.00  0.00     0.030 A 
HETATM    4  C   UNL     1     -42.712  57.619 -58.767  1.00  0.00     0.063 A 
HETATM    5  N   UNL     1     -42.850  57.724 -60.122  1.00  0.00    -0.277 N 
HETATM    6  H   UNL     1     -42.554  58.495 -60.711  1.00  0.00     0.189 HD
HETATM    7  N   UNL     1     -43.446  56.669 -60.704  1.00  0.00    -0.168 NA
HETATM    8  C   UNL     1     -43.708  55.836 -59.671  1.00  0.00     0.156 A 
HETATM    9  C   UNL     1     -42.158  58.484 -57.822  1.00  0.00     0.034 A 
HETATM   10  C   UNL     1     -42.171  58.065 -56.484  1.00  0.00     0.032 A 
ENDROOT
BRANCH   1  11
HETATM   11  N   UNL     1     -42.734  56.366 -54.769  1.00  0.00    -0.327 N 
HETATM   12  C   UNL     1     -43.749  56.514 -53.843  1.00  0.00     0.222 C 
HETATM   13  O   UNL     1     -44.839  57.047 -54.030  1.00  0.00    -0.273 OA
HETATM   14  H   UNL     1     -41.915  55.849 -54.473  1.00  0.00     0.169 HD
BRANCH  12  15
HETATM   15  C   UNL     1     -43.400  55.938 -52.480  1.00  0.00     0.103 C 
BRANCH  15  16
HETATM   16  C   UNL     1     -41.896  55.683 -52.347  1.00  0.00     0.018 C 
BRANCH  16  17
HETATM   17  C   UNL     1     -41.552  54.465 -51.461  1.00  0.00     0.015 C 
HETATM   18  C   UNL     1     -40.686  54.896 -50.272  1.00  0.00     0.015 C 
BRANCH  17  19
HETATM   19  C   UNL     1     -40.870  53.349 -52.239  1.00  0.00    -0.054 A 
HETATM   20  C   UNL     1     -41.107  53.156 -53.609  1.00  0.00     0.007 A 
HETATM   21  C   UNL     1     -40.478  52.121 -54.302  1.00  0.00     0.001 A 
HETATM   22  C   UNL     1     -39.601  51.268 -53.638  1.00  0.00     0.000 A 
HETATM   23  C   UNL     1     -39.350  51.451 -52.279  1.00  0.00     0.001 A 
HETATM   24  C   UNL     1     -39.979  52.485 -51.583  1.00  0.00     0.007 A 
ENDBRANCH  17  19
ENDBRANCH  16  17
ENDBRANCH  15  16
ENDBRANCH  12  15
ENDBRANCH   1  11
BRANCH   8  25
HETATM   25  C   UNL     1     -44.370  54.542 -59.879  1.00  0.00     0.270 C 
HETATM   26  N   UNL     1     -44.944  54.400 -61.112  1.00  0.00    -0.365 N 
HETATM   27  H   UNL     1     -44.875  55.166 -61.770  1.00  0.00     0.159 HD
HETATM   28  H   UNL     1     -45.420  53.544 -61.349  1.00  0.00     0.159 HD
HETATM   29  O   UNL     1     -44.420  53.647 -59.041  1.00  0.00    -0.266 OA
ENDBRANCH   8  25
TORSDOF 6
ENDMDL
MODEL 7
REMARK VINA RESULT:      -8.2      4.319      6.483
REMARK  6 active torsions:
REMARK  status: ('A' for Active; 'I' for Inactive)
REMARK    1  A    between atoms: C_2  and  C_3 
REMARK    2  A    between atoms: C_2  and  C_9 
REMARK    3  A    between atoms: C_9  and  C_10 
REMARK    4  A    between atoms: C_10  and  C_11 
REMARK       I    between atoms: C_11  and  N_12 
REMARK    5  A    between atoms: N_12  and  C_13 
REMARK    6  A    between atoms: C_20  and  C_21 
REMARK       I    between atoms: C_21  and  N_22 
ROOT
HETATM    1  C   UNL     1     -42.565  57.969 -53.001  1.00  0.00     0.035 A 
HETATM    2  C   UNL     1     -43.494  58.318 -52.007  1.00  0.00     0.046 A 
HETATM    3  C   UNL     1     -43.705  59.676 -51.688  1.00  0.00     0.030 A 
HETATM    4  C   UNL     1     -42.980  60.643 -52.371  1.00  0.00     0.063 A 
HETATM    5  N   UNL     1     -43.395  61.840 -51.857  1.00  0.00    -0.277 N 
HETATM    6  H   UNL     1     -43.078  62.765 -52.125  1.00  0.00     0.189 HD
HETATM    7  N   UNL     1     -44.328  61.738 -50.895  1.00  0.00    -0.168 NA
HETATM    8  C   UNL     1     -44.528  60.405 -50.778  1.00  0.00     0.156 A 
HETATM    9  C   UNL     1     -42.048  60.334 -53.363  1.00  0.00     0.034 A 
HETATM   10  C   UNL     1     -41.857  58.977 -53.662  1.00  0.00     0.032 A 
ENDROOT
BRANCH   1  11
HETATM   11  N   UNL     1     -42.415  56.593 -53.280  1.00  0.00    -0.327 N 
HETATM   12  C   UNL     1     -43.213  55.808 -54.091  1.00  0.00     0.222 C 
HETATM   13  O   UNL     1     -44.177  56.182 -54.752  1.00  0.00    -0.273 OA
HETATM   14  H   UNL     1     -41.619  56.141 -52.845  1.00  0.00     0.169 HD
BRANCH  12  15
HETATM   15  C   UNL     1     -42.791  54.348 -54.107  1.00  0.00     0.103 C 
BRANCH  15  16
HETATM   16  C   UNL     1     -41.757  54.050 -53.017  1.00  0.00     0.018 C 
BRANCH  16  17
HETATM   17  C   UNL     1     -40.388  53.596 -53.572  1.00  0.00     0.015 C 
HETATM   18  C   UNL     1     -40.307  53.865 -55.079  1.00  0.00     0.015 C 
BRANCH  17  19
HETATM   19  C   UNL     1     -40.092  52.134 -53.276  1.00  0.00    -0.054 A 
HETATM   20  C   UNL     1     -39.731  51.702 -51.990  1.00  0.00     0.007 A 
HETATM   21  C   UNL     1     -39.455  50.357 -51.741  1.00  0.00     0.001 A 
HETATM   22  C   UNL     1     -39.539  49.425 -52.772  1.00  0.00     0.000 A 
HETATM   23  C   UNL     1     -39.903  49.837 -54.052  1.00  0.00     0.001 A 
HETATM   24  C   UNL     1     -40.178  51.182 -54.304  1.00  0.00     0.007 A 
ENDBRANCH  17  19
ENDBRANCH  16  17
ENDBRANCH  15  16
ENDBRANCH  12  15
ENDBRANCH   1  11
BRANCH   8  25
HETATM   25  C   UNL     1     -45.490  59.856 -49.815  1.00  0.00     0.270 C 
HETATM   26  N   UNL     1     -45.389  60.390 -48.559  1.00  0.00    -0.365 N 
HETATM   27  H   UNL     1     -44.686  61.099 -48.388  1.00  0.00     0.159 HD
HETATM   28  H   UNL     1     -46.009  60.077 -47.828  1.00  0.00     0.159 HD
HETATM   29  O   UNL     1     -46.322  58.995 -50.080  1.00  0.00    -0.266 OA
ENDBRANCH   8  25
TORSDOF 6
ENDMDL
MODEL 8
REMARK VINA RESULT:      -8.2      4.912      6.841
REMARK  6 active torsions:
REMARK  status: ('A' for Active; 'I' for Inactive)
REMARK    1  A    between atoms: C_2  and  C_3 
REMARK    2  A    between atoms: C_2  and  C_9 
REMARK    3  A    between atoms: C_9  and  C_10 
REMARK    4  A    between atoms: C_10  and  C_11 
REMARK       I    between atoms: C_11  and  N_12 
REMARK    5  A    between atoms: N_12  and  C_13 
REMARK    6  A    between atoms: C_20  and  C_21 
REMARK       I    between atoms: C_21  and  N_22 
ROOT
HETATM    1  C   UNL     1     -44.524  57.774 -52.397  1.00  0.00     0.035 A 
HETATM    2  C   UNL     1     -44.760  58.483 -51.206  1.00  0.00     0.046 A 
HETATM    3  C   UNL     1     -45.271  59.796 -51.260  1.00  0.00     0.030 A 
HETATM    4  C   UNL     1     -45.529  60.362 -52.502  1.00  0.00     0.063 A 
HETATM    5  N   UNL     1     -46.011  61.613 -52.238  1.00  0.00    -0.277 N 
HETATM    6  H   UNL     1     -46.307  62.311 -52.912  1.00  0.00     0.189 HD
HETATM    7  N   UNL     1     -46.088  61.915 -50.931  1.00  0.00    -0.168 NA
HETATM    8  C   UNL     1     -45.631  60.801 -50.314  1.00  0.00     0.156 A 
HETATM    9  C   UNL     1     -45.306  59.690 -53.704  1.00  0.00     0.034 A 
HETATM   10  C   UNL     1     -44.797  58.385 -53.624  1.00  0.00     0.032 A 
ENDROOT
BRANCH   1  11
HETATM   11  N   UNL     1     -44.025  56.458 -52.268  1.00  0.00    -0.327 N 
HETATM   12  C   UNL     1     -42.702  56.061 -52.234  1.00  0.00     0.222 C 
HETATM   13  O   UNL     1     -41.717  56.793 -52.267  1.00  0.00    -0.273 OA
HETATM   14  H   UNL     1     -44.725  55.731 -52.173  1.00  0.00     0.169 HD
BRANCH  12  15
HETATM   15  C   UNL     1     -42.535  54.552 -52.153  1.00  0.00     0.103 C 
BRANCH  15  16
HETATM   16  C   UNL     1     -42.134  53.958 -53.506  1.00  0.00     0.018 C 
BRANCH  16  17
HETATM   17  C   UNL     1     -40.617  53.695 -53.640  1.00  0.00     0.015 C 
HETATM   18  C   UNL     1     -40.124  54.107 -55.032  1.00  0.00     0.015 C 
BRANCH  17  19
HETATM   19  C   UNL     1     -40.246  52.248 -53.351  1.00  0.00    -0.054 A 
HETATM   20  C   UNL     1     -40.318  51.258 -54.344  1.00  0.00     0.007 A 
HETATM   21  C   UNL     1     -39.981  49.935 -54.056  1.00  0.00     0.001 A 
HETATM   22  C   UNL     1     -39.564  49.583 -52.776  1.00  0.00     0.000 A 
HETATM   23  C   UNL     1     -39.481  50.556 -51.781  1.00  0.00     0.001 A 
HETATM   24  C   UNL     1     -39.819  51.880 -52.066  1.00  0.00     0.007 A 
ENDBRANCH  17  19
ENDBRANCH  16  17
ENDBRANCH  15  16
ENDBRANCH  12  15
ENDBRANCH   1  11
BRANCH   8  25
HETATM   25  C   UNL     1     -45.549  60.714 -48.851  1.00  0.00     0.270 C 
HETATM   26  N   UNL     1     -44.793  61.697 -48.274  1.00  0.00    -0.365 N 
HETATM   27  H   UNL     1     -44.359  62.389 -48.873  1.00  0.00     0.159 HD
HETATM   28  H   UNL     1     -44.679  61.722 -47.273  1.00  0.00     0.159 HD
HETATM   29  O   UNL     1     -46.099  59.849 -48.176  1.00  0.00    -0.266 OA
ENDBRANCH   8  25
TORSDOF 6
ENDMDL
MODEL 9
REMARK VINA RESULT:      -8.1      2.208      3.544
REMARK  6 active torsions:
REMARK  status: ('A' for Active; 'I' for Inactive)
REMARK    1  A    between atoms: C_2  and  C_3 
REMARK    2  A    between atoms: C_2  and  C_9 
REMARK    3  A    between atoms: C_9  and  C_10 
REMARK    4  A    between atoms: C_10  and  C_11 
REMARK       I    between atoms: C_11  and  N_12 
REMARK    5  A    between atoms: N_12  and  C_13 
REMARK    6  A    between atoms: C_20  and  C_21 
REMARK       I    between atoms: C_21  and  N_22 
ROOT
HETATM    1  C   UNL     1     -43.181  56.113 -57.686  1.00  0.00     0.035 A 
HETATM    2  C   UNL     1     -42.621  57.378 -57.438  1.00  0.00     0.046 A 
HETATM    3  C   UNL     1     -42.832  58.432 -58.351  1.00  0.00     0.030 A 
HETATM    4  C   UNL     1     -43.596  58.189 -59.485  1.00  0.00     0.063 A 
HETATM    5  N   UNL     1     -43.628  59.376 -60.163  1.00  0.00    -0.277 N 
HETATM    6  H   UNL     1     -44.100  59.569 -61.039  1.00  0.00     0.189 HD
HETATM    7  N   UNL     1     -42.948  60.372 -59.571  1.00  0.00    -0.168 NA
HETATM    8  C   UNL     1     -42.449  59.802 -58.450  1.00  0.00     0.156 A 
HETATM    9  C   UNL     1     -44.166  56.947 -59.766  1.00  0.00     0.034 A 
HETATM   10  C   UNL     1     -43.942  55.915 -58.842  1.00  0.00     0.032 A 
ENDROOT
BRANCH   1  11
HETATM   11  N   UNL     1     -42.941  55.108 -56.723  1.00  0.00    -0.327 N 
HETATM   12  C   UNL     1     -43.271  55.135 -55.381  1.00  0.00     0.222 C 
HETATM   13  O   UNL     1     -43.875  56.027 -54.794  1.00  0.00    -0.273 OA
HETATM   14  H   UNL     1     -42.491  54.268 -57.068  1.00  0.00     0.169 HD
BRANCH  12  15
HETATM   15  C   UNL     1     -42.800  53.902 -54.628  1.00  0.00     0.103 C 
BRANCH  15  16
HETATM   16  C   UNL     1     -41.861  54.273 -53.476  1.00  0.00     0.018 C 
BRANCH  16  17
HETATM   17  C   UNL     1     -40.393  53.855 -53.716  1.00  0.00     0.015 C 
HETATM   18  C   UNL     1     -39.987  54.143 -55.166  1.00  0.00     0.015 C 
BRANCH  17  19
HETATM   19  C   UNL     1     -40.135  52.396 -53.372  1.00  0.00    -0.054 A 
HETATM   20  C   UNL     1     -40.271  51.379 -54.330  1.00  0.00     0.007 A 
HETATM   21  C   UNL     1     -40.037  50.045 -53.991  1.00  0.00     0.001 A 
HETATM   22  C   UNL     1     -39.661  49.710 -52.693  1.00  0.00     0.000 A 
HETATM   23  C   UNL     1     -39.515  50.709 -51.733  1.00  0.00     0.001 A 
HETATM   24  C   UNL     1     -39.750  52.044 -52.069  1.00  0.00     0.007 A 
ENDBRANCH  17  19
ENDBRANCH  16  17
ENDBRANCH  15  16
ENDBRANCH  12  15
ENDBRANCH   1  11
BRANCH   8  25
HETATM   25  C   UNL     1     -41.628  60.565 -57.502  1.00  0.00     0.270 C 
HETATM   26  N   UNL     1     -42.137  60.613 -56.234  1.00  0.00    -0.365 N 
HETATM   27  H   UNL     1     -43.011  60.138 -56.044  1.00  0.00     0.159 HD
HETATM   28  H   UNL     1     -41.643  61.113 -55.511  1.00  0.00     0.159 HD
HETATM   29  O   UNL     1     -40.573  61.121 -57.790  1.00  0.00    -0.266 OA
ENDBRANCH   8  25
TORSDOF 6
ENDMDL
MODEL 10
REMARK VINA RESULT:      -8.0      5.275      6.646
REMARK  6 active torsions:
REMARK  status: ('A' for Active; 'I' for Inactive)
REMARK    1  A    between atoms: C_2  and  C_3 
REMARK    2  A    between atoms: C_2  and  C_9 
REMARK    3  A    between atoms: C_9  and  C_10 
REMARK    4  A    between atoms: C_10  and  C_11 
REMARK       I    between atoms: C_11  and  N_12 
REMARK    5  A    between atoms: N_12  and  C_13 
REMARK    6  A    between atoms: C_20  and  C_21 
REMARK       I    between atoms: C_21  and  N_22 
ROOT
HETATM    1  C   UNL     1     -42.136  57.614 -51.425  1.00  0.00     0.035 A 
HETATM    2  C   UNL     1     -43.248  58.394 -51.786  1.00  0.00     0.046 A 
HETATM    3  C   UNL     1     -43.318  59.745 -51.389  1.00  0.00     0.030 A 
HETATM    4  C   UNL     1     -42.275  60.277 -50.642  1.00  0.00     0.063 A 
HETATM    5  N   UNL     1     -42.617  61.581 -50.416  1.00  0.00    -0.277 N 
HETATM    6  H   UNL     1     -42.084  62.274 -49.904  1.00  0.00     0.189 HD
HETATM    7  N   UNL     1     -43.795  61.947 -50.950  1.00  0.00    -0.168 NA
HETATM    8  C   UNL     1     -44.241  60.821 -51.553  1.00  0.00     0.156 A 
HETATM    9  C   UNL     1     -41.157  59.533 -50.264  1.00  0.00     0.034 A 
HETATM   10  C   UNL     1     -41.110  58.192 -50.670  1.00  0.00     0.032 A 
ENDROOT
BRANCH   1  11
HETATM   11  N   UNL     1     -42.125  56.273 -51.868  1.00  0.00    -0.327 N 
HETATM   12  C   UNL     1     -42.892  55.226 -51.395  1.00  0.00     0.222 C 
HETATM   13  O   UNL     1     -43.757  55.286 -50.526  1.00  0.00    -0.273 OA
HETATM   14  H   UNL     1     -41.491  56.069 -52.632  1.00  0.00     0.169 HD
BRANCH  12  15
HETATM   15  C   UNL     1     -42.567  53.900 -52.064  1.00  0.00     0.103 C 
BRANCH  15  16
HETATM   16  C   UNL     1     -42.046  54.104 -53.489  1.00  0.00     0.018 C 
BRANCH  16  17
HETATM   17  C   UNL     1     -40.543  53.785 -53.649  1.00  0.00     0.015 C 
HETATM   18  C   UNL     1     -40.061  54.171 -55.053  1.00  0.00     0.015 C 
BRANCH  17  19
HETATM   19  C   UNL     1     -40.218  52.328 -53.358  1.00  0.00    -0.054 A 
HETATM   20  C   UNL     1     -39.735  51.918 -52.105  1.00  0.00     0.007 A 
HETATM   21  C   UNL     1     -39.436  50.577 -51.860  1.00  0.00     0.001 A 
HETATM   22  C   UNL     1     -39.618  49.628 -52.862  1.00  0.00     0.000 A 
HETATM   23  C   UNL     1     -40.104  50.017 -54.108  1.00  0.00     0.001 A 
HETATM   24  C   UNL     1     -40.403  51.358 -54.356  1.00  0.00     0.007 A 
ENDBRANCH  17  19
ENDBRANCH  16  17
ENDBRANCH  15  16
ENDBRANCH  12  15
ENDBRANCH   1  11
BRANCH   8  25
HETATM   25  C   UNL     1     -45.523  60.791 -52.268  1.00  0.00     0.270 C 
HETATM   26  N   UNL     1     -45.542  61.541 -53.412  1.00  0.00    -0.365 N 
HETATM   27  H   UNL     1     -44.704  62.046 -53.675  1.00  0.00     0.159 HD
HETATM   28  H   UNL     1     -46.378  61.582 -53.973  1.00  0.00     0.159 HD
HETATM   29  O   UNL     1     -46.507  60.158 -51.900  1.00  0.00    -0.266 OA
ENDBRANCH   8  25
TORSDOF 6
ENDMDL
