MODEL 1
REMARK VINA RESULT:      -8.7      0.000      0.000
REMARK  10 active torsions:
REMARK  status: ('A' for Active; 'I' for Inactive)
REMARK    1  A    between atoms: C_2  and  C_5 
REMARK    2  A    between atoms: C_5  and  C_6 
REMARK    3  A    between atoms: C_6  and  N_7 
REMARK    4  A    between atoms: N_7  and  C_10 
REMARK    5  A    between atoms: C_16  and  N_17 
REMARK       I    between atoms: N_17  and  C_18 
REMARK    6  A    between atoms: C_18  and  C_20 
REMARK    7  A    between atoms: C_24  and  C_25 
REMARK    8  A    between atoms: C_25  and  O_26 
REMARK    9  A    between atoms: O_26  and  C_27 
REMARK       I    between atoms: C_27  and  N_29 
REMARK   10  A    between atoms: N_29  and  C_30 
ROOT
HETATM    1  C   UNL     1     -41.343  57.545 -50.800  1.00  0.00     0.036 A 
HETATM    2  C   UNL     1     -42.645  57.643 -51.297  1.00  0.00     0.031 A 
HETATM    3  C   UNL     1     -43.304  58.879 -51.318  1.00  0.00     0.025 A 
HETATM    4  C   UNL     1     -42.663  60.028 -50.849  1.00  0.00     0.044 A 
HETATM    5  C   UNL     1     -41.360  59.937 -50.357  1.00  0.00     0.025 A 
HETATM    6  C   UNL     1     -40.706  58.700 -50.330  1.00  0.00     0.031 A 
HETATM    7  C   UNL     1     -43.346  61.288 -50.869  1.00  0.00     0.099 C 
HETATM    8  N   UNL     1     -43.916  62.299 -50.882  1.00  0.00    -0.191 NA
ENDROOT
BRANCH   1   9
HETATM    9  N   UNL     1     -40.626  56.340 -50.730  1.00  0.00    -0.303 N 
HETATM   10  C   UNL     1     -40.607  55.419 -49.724  1.00  0.00     0.365 C 
HETATM   11  O   UNL     1     -41.240  55.435 -48.678  1.00  0.00    -0.238 OA
HETATM   12  H   UNL     1     -40.061  56.080 -51.529  1.00  0.00     0.171 HD
BRANCH  10  13
HETATM   13  O   UNL     1     -39.737  54.433 -50.072  1.00  0.00    -0.299 OA
BRANCH  13  14
HETATM   14  C   UNL     1     -40.322  53.148 -50.322  1.00  0.00     0.219 C 
BRANCH  14  15
HETATM   15  C   UNL     1     -40.316  52.810 -51.794  1.00  0.00    -0.033 A 
HETATM   16  C   UNL     1     -39.517  51.772 -52.290  1.00  0.00     0.009 A 
HETATM   17  C   UNL     1     -39.537  51.449 -53.648  1.00  0.00     0.002 A 
HETATM   18  C   UNL     1     -40.364  52.150 -54.529  1.00  0.00     0.017 A 
HETATM   19  C   UNL     1     -41.179  53.178 -54.041  1.00  0.00     0.033 A 
HETATM   20  C   UNL     1     -41.139  53.515 -52.682  1.00  0.00     0.026 A 
BRANCH  19  21
HETATM   21  C   UNL     1     -42.078  53.964 -54.918  1.00  0.00     0.257 C 
HETATM   22  N   UNL     1     -41.603  55.224 -55.387  1.00  0.00    -0.303 N 
HETATM   23  H   UNL     1     -40.696  55.567 -55.122  1.00  0.00     0.171 HD
HETATM   24  O   UNL     1     -43.194  53.580 -55.213  1.00  0.00    -0.267 OA
BRANCH  22  25
HETATM   25  C   UNL     1     -42.295  56.000 -56.214  1.00  0.00     0.152 A 
HETATM   26  N   UNL     1     -42.572  55.603 -57.474  1.00  0.00    -0.339 N 
HETATM   27  C   UNL     1     -43.253  56.548 -58.212  1.00  0.00     0.024 A 
HETATM   28  H   UNL     1     -42.272  54.691 -57.812  1.00  0.00     0.168 HD
HETATM   29  C   UNL     1     -43.551  56.335 -59.650  1.00  0.00     0.060 C 
HETATM   30  C   UNL     1     -43.554  57.685 -57.512  1.00  0.00     0.011 A 
HETATM   31  C   UNL     1     -44.520  57.418 -60.176  1.00  0.00     0.039 C 
HETATM   32  C   UNL     1     -44.287  58.844 -59.612  1.00  0.00     0.191 C 
HETATM   33  C   UNL     1     -44.322  58.851 -58.055  1.00  0.00     0.081 C 
HETATM   34  S   UNL     1     -42.973  57.585 -55.917  1.00  0.00    -0.056 SA
BRANCH  32  35
HETATM   35  N   UNL     1     -42.959  59.429 -60.075  1.00  0.00    -0.070 N 
HETATM   36  H   UNL     1     -42.660  59.027 -60.974  1.00  0.00     0.277 HD
HETATM   37  H   UNL     1     -42.242  59.122 -59.395  1.00  0.00     0.277 HD
BRANCH  35  38
HETATM   38  C   UNL     1     -42.877  60.939 -60.140  1.00  0.00     0.241 C 
BRANCH  38  39
HETATM   39  C   UNL     1     -41.422  61.365 -60.087  1.00  0.00     0.144 C 
BRANCH  39  40
HETATM   40  C   UNL     1     -41.034  61.587 -58.644  1.00  0.00     0.389 C 
HETATM   41  F   UNL     1     -39.792  62.102 -58.575  1.00  0.00    -0.171 F 
HETATM   42  F   UNL     1     -41.040  60.409 -57.989  1.00  0.00    -0.171 F 
HETATM   43  F   UNL     1     -41.892  62.424 -58.041  1.00  0.00    -0.171 F 
ENDBRANCH  39  40
ENDBRANCH  38  39
ENDBRANCH  35  38
ENDBRANCH  32  35
ENDBRANCH  22  25
ENDBRANCH  19  21
ENDBRANCH  14  15
ENDBRANCH  13  14
ENDBRANCH  10  13
ENDBRANCH   1   9
TORSDOF 10
ENDMDL
MODEL 2
REMARK VINA RESULT:      -8.7      6.371     10.342
REMARK  10 active torsions:
REMARK  status: ('A' for Active; 'I' for Inactive)
REMARK    1  A    between atoms: C_2  and  C_5 
REMARK    2  A    between atoms: C_5  and  C_6 
REMARK    3  A    between atoms: C_6  and  N_7 
REMARK    4  A    between atoms: N_7  and  C_10 
REMARK    5  A    between atoms: C_16  and  N_17 
REMARK       I    between atoms: N_17  and  C_18 
REMARK    6  A    between atoms: C_18  and  C_20 
REMARK    7  A    between atoms: C_24  and  C_25 
REMARK    8  A    between atoms: C_25  and  O_26 
REMARK    9  A    between atoms: O_26  and  C_27 
REMARK       I    between atoms: C_27  and  N_29 
REMARK   10  A    between atoms: N_29  and  C_30 
ROOT
HETATM    1  C   UNL     1     -50.292  63.215 -51.956  1.00  0.00     0.036 A 
HETATM    2  C   UNL     1     -51.675  63.183 -51.760  1.00  0.00     0.031 A 
HETATM    3  C   UNL     1     -52.504  62.518 -52.671  1.00  0.00     0.025 A 
HETATM    4  C   UNL     1     -51.957  61.875 -53.784  1.00  0.00     0.044 A 
HETATM    5  C   UNL     1     -50.576  61.899 -53.982  1.00  0.00     0.025 A 
HETATM    6  C   UNL     1     -49.749  62.569 -53.074  1.00  0.00     0.031 A 
HETATM    7  C   UNL     1     -52.813  61.201 -54.716  1.00  0.00     0.099 C 
HETATM    8  N   UNL     1     -53.521  60.670 -55.467  1.00  0.00    -0.191 NA
ENDROOT
BRANCH   1   9
HETATM    9  N   UNL     1     -49.398  63.875 -51.097  1.00  0.00    -0.303 N 
HETATM   10  C   UNL     1     -49.489  64.046 -49.746  1.00  0.00     0.365 C 
HETATM   11  O   UNL     1     -50.357  63.630 -48.991  1.00  0.00    -0.238 OA
HETATM   12  H   UNL     1     -48.554  64.260 -51.499  1.00  0.00     0.171 HD
BRANCH  10  13
HETATM   13  O   UNL     1     -48.419  64.782 -49.342  1.00  0.00    -0.299 OA
BRANCH  13  14
HETATM   14  C   UNL     1     -47.207  64.571 -50.077  1.00  0.00     0.219 C 
BRANCH  14  15
HETATM   15  C   UNL     1     -46.325  63.540 -49.411  1.00  0.00    -0.033 A 
HETATM   16  C   UNL     1     -45.645  63.836 -48.224  1.00  0.00     0.009 A 
HETATM   17  C   UNL     1     -44.853  62.869 -47.601  1.00  0.00     0.002 A 
HETATM   18  C   UNL     1     -44.741  61.588 -48.148  1.00  0.00     0.017 A 
HETATM   19  C   UNL     1     -45.430  61.277 -49.326  1.00  0.00     0.033 A 
HETATM   20  C   UNL     1     -46.205  62.256 -49.960  1.00  0.00     0.026 A 
BRANCH  19  21
HETATM   21  C   UNL     1     -45.355  59.941 -49.962  1.00  0.00     0.257 C 
HETATM   22  N   UNL     1     -44.216  59.663 -50.774  1.00  0.00    -0.303 N 
HETATM   23  H   UNL     1     -43.500  60.354 -50.916  1.00  0.00     0.171 HD
HETATM   24  O   UNL     1     -46.234  59.111 -49.833  1.00  0.00    -0.267 OA
BRANCH  22  25
HETATM   25  C   UNL     1     -44.011  58.489 -51.362  1.00  0.00     0.152 A 
HETATM   26  N   UNL     1     -43.822  57.369 -50.632  1.00  0.00    -0.339 N 
HETATM   27  C   UNL     1     -43.572  56.250 -51.397  1.00  0.00     0.024 A 
HETATM   28  H   UNL     1     -43.850  57.398 -49.615  1.00  0.00     0.168 HD
HETATM   29  C   UNL     1     -43.232  54.948 -50.770  1.00  0.00     0.060 C 
HETATM   30  C   UNL     1     -43.608  56.482 -52.745  1.00  0.00     0.011 A 
HETATM   31  C   UNL     1     -43.238  53.815 -51.822  1.00  0.00     0.039 C 
HETATM   32  C   UNL     1     -42.673  54.202 -53.213  1.00  0.00     0.191 C 
HETATM   33  C   UNL     1     -43.415  55.437 -53.803  1.00  0.00     0.081 C 
HETATM   34  S   UNL     1     -43.946  58.116 -53.070  1.00  0.00    -0.056 SA
BRANCH  32  35
HETATM   35  N   UNL     1     -41.182  54.506 -53.158  1.00  0.00    -0.070 N 
HETATM   36  H   UNL     1     -40.958  55.166 -52.401  1.00  0.00     0.277 HD
HETATM   37  H   UNL     1     -40.945  55.010 -54.030  1.00  0.00     0.277 HD
BRANCH  35  38
HETATM   38  C   UNL     1     -40.256  53.311 -53.082  1.00  0.00     0.241 C 
BRANCH  38  39
HETATM   39  C   UNL     1     -40.833  52.175 -53.906  1.00  0.00     0.144 C 
BRANCH  39  40
HETATM   40  C   UNL     1     -39.860  51.020 -53.891  1.00  0.00     0.389 C 
HETATM   41  F   UNL     1     -40.225  50.122 -52.956  1.00  0.00    -0.171 F 
HETATM   42  F   UNL     1     -38.628  51.473 -53.584  1.00  0.00    -0.171 F 
HETATM   43  F   UNL     1     -39.815  50.417 -55.088  1.00  0.00    -0.171 F 
ENDBRANCH  39  40
ENDBRANCH  38  39
ENDBRANCH  35  38
ENDBRANCH  32  35
ENDBRANCH  22  25
ENDBRANCH  19  21
ENDBRANCH  14  15
ENDBRANCH  13  14
ENDBRANCH  10  13
ENDBRANCH   1   9
TORSDOF 10
ENDMDL
MODEL 3
REMARK VINA RESULT:      -8.7      6.433     10.111
REMARK  10 active torsions:
REMARK  status: ('A' for Active; 'I' for Inactive)
REMARK    1  A    between atoms: C_2  and  C_5 
REMARK    2  A    between atoms: C_5  and  C_6 
REMARK    3  A    between atoms: C_6  and  N_7 
REMARK    4  A    between atoms: N_7  and  C_10 
REMARK    5  A    between atoms: C_16  and  N_17 
REMARK       I    between atoms: N_17  and  C_18 
REMARK    6  A    between atoms: C_18  and  C_20 
REMARK    7  A    between atoms: C_24  and  C_25 
REMARK    8  A    between atoms: C_25  and  O_26 
REMARK    9  A    between atoms: O_26  and  C_27 
REMARK       I    between atoms: C_27  and  N_29 
REMARK   10  A    between atoms: N_29  and  C_30 
ROOT
HETATM    1  C   UNL     1     -44.792  64.218 -43.389  1.00  0.00     0.036 A 
HETATM    2  C   UNL     1     -45.873  64.440 -42.533  1.00  0.00     0.031 A 
HETATM    3  C   UNL     1     -45.724  64.287 -41.149  1.00  0.00     0.025 A 
HETATM    4  C   UNL     1     -44.490  63.917 -40.609  1.00  0.00     0.044 A 
HETATM    5  C   UNL     1     -43.404  63.700 -41.459  1.00  0.00     0.025 A 
HETATM    6  C   UNL     1     -43.557  63.847 -42.842  1.00  0.00     0.031 A 
HETATM    7  C   UNL     1     -44.346  63.756 -39.192  1.00  0.00     0.099 C 
HETATM    8  N   UNL     1     -44.249  63.620 -38.043  1.00  0.00    -0.191 NA
ENDROOT
BRANCH   1   9
HETATM    9  N   UNL     1     -44.868  64.336 -44.786  1.00  0.00    -0.303 N 
HETATM   10  C   UNL     1     -45.162  63.370 -45.705  1.00  0.00     0.365 C 
HETATM   11  O   UNL     1     -45.453  62.200 -45.500  1.00  0.00    -0.238 OA
HETATM   12  H   UNL     1     -44.718  65.250 -45.192  1.00  0.00     0.171 HD
BRANCH  10  13
HETATM   13  O   UNL     1     -45.079  63.929 -46.943  1.00  0.00    -0.299 OA
BRANCH  13  14
HETATM   14  C   UNL     1     -45.572  63.124 -48.022  1.00  0.00     0.219 C 
BRANCH  14  15
HETATM   15  C   UNL     1     -44.554  62.998 -49.132  1.00  0.00    -0.033 A 
HETATM   16  C   UNL     1     -44.015  64.135 -49.745  1.00  0.00     0.009 A 
HETATM   17  C   UNL     1     -43.055  64.010 -50.752  1.00  0.00     0.002 A 
HETATM   18  C   UNL     1     -42.612  62.747 -51.151  1.00  0.00     0.017 A 
HETATM   19  C   UNL     1     -43.133  61.604 -50.533  1.00  0.00     0.033 A 
HETATM   20  C   UNL     1     -44.111  61.732 -49.540  1.00  0.00     0.026 A 
BRANCH  19  21
HETATM   21  C   UNL     1     -42.709  60.235 -50.908  1.00  0.00     0.257 C 
HETATM   22  N   UNL     1     -43.716  59.225 -50.954  1.00  0.00    -0.303 N 
HETATM   23  H   UNL     1     -44.672  59.437 -50.728  1.00  0.00     0.171 HD
HETATM   24  O   UNL     1     -41.549  59.955 -51.142  1.00  0.00    -0.267 OA
BRANCH  22  25
HETATM   25  C   UNL     1     -43.472  57.971 -51.319  1.00  0.00     0.152 A 
HETATM   26  N   UNL     1     -42.703  57.161 -50.559  1.00  0.00    -0.339 N 
HETATM   27  C   UNL     1     -42.510  55.912 -51.109  1.00  0.00     0.024 A 
HETATM   28  H   UNL     1     -42.308  57.490 -49.681  1.00  0.00     0.168 HD
HETATM   29  C   UNL     1     -41.606  54.921 -50.473  1.00  0.00     0.060 C 
HETATM   30  C   UNL     1     -43.171  55.719 -52.291  1.00  0.00     0.011 A 
HETATM   31  C   UNL     1     -41.752  53.536 -51.143  1.00  0.00     0.039 C 
HETATM   32  C   UNL     1     -41.950  53.562 -52.680  1.00  0.00     0.191 C 
HETATM   33  C   UNL     1     -43.171  54.444 -53.079  1.00  0.00     0.081 C 
HETATM   34  S   UNL     1     -44.035  57.114 -52.736  1.00  0.00    -0.056 SA
BRANCH  32  35
HETATM   35  N   UNL     1     -40.715  54.079 -53.405  1.00  0.00    -0.070 N 
HETATM   36  H   UNL     1     -39.955  54.303 -52.747  1.00  0.00     0.277 HD
HETATM   37  H   UNL     1     -40.973  54.986 -53.831  1.00  0.00     0.277 HD
BRANCH  35  38
HETATM   38  C   UNL     1     -40.180  53.210 -54.523  1.00  0.00     0.241 C 
BRANCH  38  39
HETATM   39  C   UNL     1     -40.744  51.808 -54.382  1.00  0.00     0.144 C 
BRANCH  39  40
HETATM   40  C   UNL     1     -39.654  50.896 -53.871  1.00  0.00     0.389 C 
HETATM   41  F   UNL     1     -39.984  50.420 -52.655  1.00  0.00    -0.171 F 
HETATM   42  F   UNL     1     -38.504  51.589 -53.756  1.00  0.00    -0.171 F 
HETATM   43  F   UNL     1     -39.459  49.867 -54.709  1.00  0.00    -0.171 F 
ENDBRANCH  39  40
ENDBRANCH  38  39
ENDBRANCH  35  38
ENDBRANCH  32  35
ENDBRANCH  22  25
ENDBRANCH  19  21
ENDBRANCH  14  15
ENDBRANCH  13  14
ENDBRANCH  10  13
ENDBRANCH   1   9
TORSDOF 10
ENDMDL
MODEL 4
REMARK VINA RESULT:      -8.4      6.494      9.732
REMARK  10 active torsions:
REMARK  status: ('A' for Active; 'I' for Inactive)
REMARK    1  A    between atoms: C_2  and  C_5 
REMARK    2  A    between atoms: C_5  and  C_6 
REMARK    3  A    between atoms: C_6  and  N_7 
REMARK    4  A    between atoms: N_7  and  C_10 
REMARK    5  A    between atoms: C_16  and  N_17 
REMARK       I    between atoms: N_17  and  C_18 
REMARK    6  A    between atoms: C_18  and  C_20 
REMARK    7  A    between atoms: C_24  and  C_25 
REMARK    8  A    between atoms: C_25  and  O_26 
REMARK    9  A    between atoms: O_26  and  C_27 
REMARK       I    between atoms: C_27  and  N_29 
REMARK   10  A    between atoms: N_29  and  C_30 
ROOT
HETATM    1  C   UNL     1     -44.680  63.799 -43.834  1.00  0.00     0.036 A 
HETATM    2  C   UNL     1     -45.596  64.541 -43.084  1.00  0.00     0.031 A 
HETATM    3  C   UNL     1     -45.461  64.635 -41.693  1.00  0.00     0.025 A 
HETATM    4  C   UNL     1     -44.403  63.995 -41.042  1.00  0.00     0.044 A 
HETATM    5  C   UNL     1     -43.482  63.258 -41.788  1.00  0.00     0.025 A 
HETATM    6  C   UNL     1     -43.622  63.159 -43.176  1.00  0.00     0.031 A 
HETATM    7  C   UNL     1     -44.275  64.091 -39.618  1.00  0.00     0.099 C 
HETATM    8  N   UNL     1     -44.190  64.170 -38.463  1.00  0.00    -0.191 NA
ENDROOT
BRANCH   1   9
HETATM    9  N   UNL     1     -44.760  63.645 -45.228  1.00  0.00    -0.303 N 
HETATM   10  C   UNL     1     -45.774  63.109 -45.967  1.00  0.00     0.365 C 
HETATM   11  O   UNL     1     -46.848  62.678 -45.570  1.00  0.00    -0.238 OA
HETATM   12  H   UNL     1     -43.991  63.992 -45.786  1.00  0.00     0.171 HD
BRANCH  10  13
HETATM   13  O   UNL     1     -45.398  63.127 -47.274  1.00  0.00    -0.299 OA
BRANCH  13  14
HETATM   14  C   UNL     1     -45.093  61.850 -47.850  1.00  0.00     0.219 C 
BRANCH  14  15
HETATM   15  C   UNL     1     -45.584  61.751 -49.275  1.00  0.00    -0.033 A 
HETATM   16  C   UNL     1     -46.508  62.672 -49.782  1.00  0.00     0.009 A 
HETATM   17  C   UNL     1     -46.937  62.589 -51.108  1.00  0.00     0.002 A 
HETATM   18  C   UNL     1     -46.439  61.592 -51.951  1.00  0.00     0.017 A 
HETATM   19  C   UNL     1     -45.503  60.676 -51.458  1.00  0.00     0.033 A 
HETATM   20  C   UNL     1     -45.092  60.748 -50.121  1.00  0.00     0.026 A 
BRANCH  19  21
HETATM   21  C   UNL     1     -44.935  59.592 -52.294  1.00  0.00     0.257 C 
HETATM   22  N   UNL     1     -43.706  59.009 -51.868  1.00  0.00    -0.303 N 
HETATM   23  H   UNL     1     -43.240  59.331 -51.037  1.00  0.00     0.171 HD
HETATM   24  O   UNL     1     -45.466  59.222 -53.324  1.00  0.00    -0.267 OA
BRANCH  22  25
HETATM   25  C   UNL     1     -43.119  58.002 -52.505  1.00  0.00     0.152 A 
HETATM   26  N   UNL     1     -43.847  57.011 -53.061  1.00  0.00    -0.339 N 
HETATM   27  C   UNL     1     -43.080  56.021 -53.637  1.00  0.00     0.024 A 
HETATM   28  H   UNL     1     -44.864  57.023 -53.019  1.00  0.00     0.168 HD
HETATM   29  C   UNL     1     -43.699  54.797 -54.203  1.00  0.00     0.060 C 
HETATM   30  C   UNL     1     -41.734  56.256 -53.573  1.00  0.00     0.011 A 
HETATM   31  C   UNL     1     -42.659  53.970 -54.994  1.00  0.00     0.039 C 
HETATM   32  C   UNL     1     -41.237  53.932 -54.376  1.00  0.00     0.191 C 
HETATM   33  C   UNL     1     -40.676  55.368 -54.156  1.00  0.00     0.081 C 
HETATM   34  S   UNL     1     -41.413  57.723 -52.776  1.00  0.00    -0.056 SA
BRANCH  32  35
HETATM   35  N   UNL     1     -41.213  53.188 -53.048  1.00  0.00    -0.070 N 
HETATM   36  H   UNL     1     -42.063  52.621 -52.916  1.00  0.00     0.277 HD
HETATM   37  H   UNL     1     -41.252  53.903 -52.301  1.00  0.00     0.277 HD
BRANCH  35  38
HETATM   38  C   UNL     1     -39.989  52.341 -52.775  1.00  0.00     0.241 C 
BRANCH  38  39
HETATM   39  C   UNL     1     -39.554  51.659 -54.060  1.00  0.00     0.144 C 
BRANCH  39  40
HETATM   40  C   UNL     1     -40.019  50.223 -54.029  1.00  0.00     0.389 C 
HETATM   41  F   UNL     1     -41.260  50.129 -54.544  1.00  0.00    -0.171 F 
HETATM   42  F   UNL     1     -40.057  49.789 -52.754  1.00  0.00    -0.171 F 
HETATM   43  F   UNL     1     -39.190  49.436 -54.731  1.00  0.00    -0.171 F 
ENDBRANCH  39  40
ENDBRANCH  38  39
ENDBRANCH  35  38
ENDBRANCH  32  35
ENDBRANCH  22  25
ENDBRANCH  19  21
ENDBRANCH  14  15
ENDBRANCH  13  14
ENDBRANCH  10  13
ENDBRANCH   1   9
TORSDOF 10
ENDMDL
MODEL 5
REMARK VINA RESULT:      -8.4      1.842      2.217
REMARK  10 active torsions:
REMARK  status: ('A' for Active; 'I' for Inactive)
REMARK    1  A    between atoms: C_2  and  C_5 
REMARK    2  A    between atoms: C_5  and  C_6 
REMARK    3  A    between atoms: C_6  and  N_7 
REMARK    4  A    between atoms: N_7  and  C_10 
REMARK    5  A    between atoms: C_16  and  N_17 
REMARK       I    between atoms: N_17  and  C_18 
REMARK    6  A    between atoms: C_18  and  C_20 
REMARK    7  A    between atoms: C_24  and  C_25 
REMARK    8  A    between atoms: C_25  and  O_26 
REMARK    9  A    between atoms: O_26  and  C_27 
REMARK       I    between atoms: C_27  and  N_29 
REMARK   10  A    between atoms: N_29  and  C_30 
ROOT
HETATM    1  C   UNL     1     -42.434  57.098 -51.138  1.00  0.00     0.036 A 
HETATM    2  C   UNL     1     -43.745  56.638 -51.282  1.00  0.00     0.031 A 
HETATM    3  C   UNL     1     -44.799  57.544 -51.454  1.00  0.00     0.025 A 
HETATM    4  C   UNL     1     -44.550  58.918 -51.489  1.00  0.00     0.044 A 
HETATM    5  C   UNL     1     -43.241  59.383 -51.352  1.00  0.00     0.025 A 
HETATM    6  C   UNL     1     -42.190  58.477 -51.173  1.00  0.00     0.031 A 
HETATM    7  C   UNL     1     -45.634  59.840 -51.659  1.00  0.00     0.099 C 
HETATM    8  N   UNL     1     -46.525  60.573 -51.787  1.00  0.00    -0.191 NA
ENDROOT
BRANCH   1   9
HETATM    9  N   UNL     1     -41.329  56.253 -50.945  1.00  0.00    -0.303 N 
HETATM   10  C   UNL     1     -41.106  55.362 -49.936  1.00  0.00     0.365 C 
HETATM   11  O   UNL     1     -41.843  55.087 -48.999  1.00  0.00    -0.238 OA
HETATM   12  H   UNL     1     -40.599  56.264 -51.645  1.00  0.00     0.171 HD
BRANCH  10  13
HETATM   13  O   UNL     1     -39.886  54.796 -50.137  1.00  0.00    -0.299 OA
BRANCH  13  14
HETATM   14  C   UNL     1     -39.870  53.365 -50.222  1.00  0.00     0.219 C 
BRANCH  14  15
HETATM   15  C   UNL     1     -40.014  52.891 -51.649  1.00  0.00    -0.033 A 
HETATM   16  C   UNL     1     -39.335  51.752 -52.100  1.00  0.00     0.009 A 
HETATM   17  C   UNL     1     -39.494  51.305 -53.413  1.00  0.00     0.002 A 
HETATM   18  C   UNL     1     -40.342  51.983 -54.292  1.00  0.00     0.017 A 
HETATM   19  C   UNL     1     -41.038  53.114 -53.847  1.00  0.00     0.033 A 
HETATM   20  C   UNL     1     -40.859  53.572 -52.536  1.00  0.00     0.026 A 
BRANCH  19  21
HETATM   21  C   UNL     1     -41.952  53.881 -54.725  1.00  0.00     0.257 C 
HETATM   22  N   UNL     1     -41.773  55.295 -54.784  1.00  0.00    -0.303 N 
HETATM   23  H   UNL     1     -41.059  55.750 -54.242  1.00  0.00     0.171 HD
HETATM   24  O   UNL     1     -42.846  53.349 -55.354  1.00  0.00    -0.267 OA
BRANCH  22  25
HETATM   25  C   UNL     1     -42.497  56.088 -55.567  1.00  0.00     0.152 A 
HETATM   26  N   UNL     1     -42.172  56.272 -56.864  1.00  0.00    -0.339 N 
HETATM   27  C   UNL     1     -42.997  57.163 -57.516  1.00  0.00     0.024 A 
HETATM   28  H   UNL     1     -41.373  55.793 -57.275  1.00  0.00     0.168 HD
HETATM   29  C   UNL     1     -42.731  57.576 -58.917  1.00  0.00     0.060 C 
HETATM   30  C   UNL     1     -44.010  57.652 -56.738  1.00  0.00     0.011 A 
HETATM   31  C   UNL     1     -43.921  58.382 -59.487  1.00  0.00     0.039 C 
HETATM   32  C   UNL     1     -44.604  59.349 -58.486  1.00  0.00     0.191 C 
HETATM   33  C   UNL     1     -45.072  58.601 -57.204  1.00  0.00     0.081 C 
HETATM   34  S   UNL     1     -43.932  57.006 -55.167  1.00  0.00    -0.056 SA
BRANCH  32  35
HETATM   35  N   UNL     1     -43.682  60.491 -58.078  1.00  0.00    -0.070 N 
HETATM   36  H   UNL     1     -43.502  61.132 -58.864  1.00  0.00     0.277 HD
HETATM   37  H   UNL     1     -42.761  60.071 -57.862  1.00  0.00     0.277 HD
BRANCH  35  38
HETATM   38  C   UNL     1     -44.096  61.284 -56.858  1.00  0.00     0.241 C 
BRANCH  38  39
HETATM   39  C   UNL     1     -42.863  61.638 -56.047  1.00  0.00     0.144 C 
BRANCH  39  40
HETATM   40  C   UNL     1     -42.867  60.822 -54.776  1.00  0.00     0.389 C 
HETATM   41  F   UNL     1     -44.103  60.345 -54.538  1.00  0.00    -0.171 F 
HETATM   42  F   UNL     1     -42.508  61.604 -53.738  1.00  0.00    -0.171 F 
HETATM   43  F   UNL     1     -42.008  59.795 -54.863  1.00  0.00    -0.171 F 
ENDBRANCH  39  40
ENDBRANCH  38  39
ENDBRANCH  35  38
ENDBRANCH  32  35
ENDBRANCH  22  25
ENDBRANCH  19  21
ENDBRANCH  14  15
ENDBRANCH  13  14
ENDBRANCH  10  13
ENDBRANCH   1   9
TORSDOF 10
ENDMDL
MODEL 6
REMARK VINA RESULT:      -8.2      1.767      2.187
REMARK  10 active torsions:
REMARK  status: ('A' for Active; 'I' for Inactive)
REMARK    1  A    between atoms: C_2  and  C_5 
REMARK    2  A    between atoms: C_5  and  C_6 
REMARK    3  A    between atoms: C_6  and  N_7 
REMARK    4  A    between atoms: N_7  and  C_10 
REMARK    5  A    between atoms: C_16  and  N_17 
REMARK       I    between atoms: N_17  and  C_18 
REMARK    6  A    between atoms: C_18  and  C_20 
REMARK    7  A    between atoms: C_24  and  C_25 
REMARK    8  A    between atoms: C_25  and  O_26 
REMARK    9  A    between atoms: O_26  and  C_27 
REMARK       I    between atoms: C_27  and  N_29 
REMARK   10  A    between atoms: N_29  and  C_30 
ROOT
HETATM    1  C   UNL     1     -44.503  57.715 -51.460  1.00  0.00     0.036 A 
HETATM    2  C   UNL     1     -44.406  58.087 -52.803  1.00  0.00     0.031 A 
HETATM    3  C   UNL     1     -45.036  59.249 -53.263  1.00  0.00     0.025 A 
HETATM    4  C   UNL     1     -45.763  60.054 -52.383  1.00  0.00     0.044 A 
HETATM    5  C   UNL     1     -45.858  59.691 -51.038  1.00  0.00     0.025 A 
HETATM    6  C   UNL     1     -45.233  58.525 -50.581  1.00  0.00     0.031 A 
HETATM    7  C   UNL     1     -46.410  61.240 -52.862  1.00  0.00     0.099 C 
HETATM    8  N   UNL     1     -46.937  62.191 -53.268  1.00  0.00    -0.191 NA
ENDROOT
BRANCH   1   9
HETATM    9  N   UNL     1     -43.913  56.556 -50.928  1.00  0.00    -0.303 N 
HETATM   10  C   UNL     1     -42.614  56.355 -50.563  1.00  0.00     0.365 C 
HETATM   11  O   UNL     1     -41.691  57.157 -50.592  1.00  0.00    -0.238 OA
HETATM   12  H   UNL     1     -44.512  55.759 -50.756  1.00  0.00     0.171 HD
BRANCH  10  13
HETATM   13  O   UNL     1     -42.491  55.068 -50.140  1.00  0.00    -0.299 OA
BRANCH  13  14
HETATM   14  C   UNL     1     -41.194  54.479 -50.310  1.00  0.00     0.219 C 
BRANCH  14  15
HETATM   15  C   UNL     1     -41.044  53.846 -51.673  1.00  0.00    -0.033 A 
HETATM   16  C   UNL     1     -40.146  52.793 -51.881  1.00  0.00     0.009 A 
HETATM   17  C   UNL     1     -40.032  52.196 -53.138  1.00  0.00     0.002 A 
HETATM   18  C   UNL     1     -40.824  52.635 -54.203  1.00  0.00     0.017 A 
HETATM   19  C   UNL     1     -41.737  53.676 -54.001  1.00  0.00     0.033 A 
HETATM   20  C   UNL     1     -41.832  54.288 -52.745  1.00  0.00     0.026 A 
BRANCH  19  21
HETATM   21  C   UNL     1     -42.606  54.193 -55.085  1.00  0.00     0.257 C 
HETATM   22  N   UNL     1     -42.455  55.563 -55.452  1.00  0.00    -0.303 N 
HETATM   23  H   UNL     1     -41.791  56.154 -54.983  1.00  0.00     0.171 HD
HETATM   24  O   UNL     1     -43.442  53.500 -55.631  1.00  0.00    -0.267 OA
BRANCH  22  25
HETATM   25  C   UNL     1     -43.142  56.132 -56.436  1.00  0.00     0.152 A 
HETATM   26  N   UNL     1     -43.309  55.506 -57.621  1.00  0.00    -0.339 N 
HETATM   27  C   UNL     1     -44.001  56.258 -58.546  1.00  0.00     0.024 A 
HETATM   28  H   UNL     1     -42.926  54.577 -57.779  1.00  0.00     0.168 HD
HETATM   29  C   UNL     1     -44.190  55.782 -59.939  1.00  0.00     0.060 C 
HETATM   30  C   UNL     1     -44.423  57.470 -58.072  1.00  0.00     0.011 A 
HETATM   31  C   UNL     1     -45.193  56.682 -60.696  1.00  0.00     0.039 C 
HETATM   32  C   UNL     1     -45.093  58.197 -60.377  1.00  0.00     0.191 C 
HETATM   33  C   UNL     1     -45.231  58.464 -58.849  1.00  0.00     0.081 C 
HETATM   34  S   UNL     1     -43.943  57.687 -56.455  1.00  0.00    -0.056 SA
BRANCH  32  35
HETATM   35  N   UNL     1     -43.781  58.796 -60.863  1.00  0.00    -0.070 N 
HETATM   36  H   UNL     1     -43.674  58.699 -61.882  1.00  0.00     0.277 HD
HETATM   37  H   UNL     1     -43.020  58.221 -60.460  1.00  0.00     0.277 HD
BRANCH  35  38
HETATM   38  C   UNL     1     -43.505  60.227 -60.457  1.00  0.00     0.241 C 
BRANCH  38  39
HETATM   39  C   UNL     1     -42.023  60.392 -60.175  1.00  0.00     0.144 C 
BRANCH  39  40
HETATM   40  C   UNL     1     -41.794  60.266 -58.687  1.00  0.00     0.389 C 
HETATM   41  F   UNL     1     -41.504  58.989 -58.372  1.00  0.00    -0.171 F 
HETATM   42  F   UNL     1     -42.915  60.620 -58.027  1.00  0.00    -0.171 F 
HETATM   43  F   UNL     1     -40.787  61.058 -58.289  1.00  0.00    -0.171 F 
ENDBRANCH  39  40
ENDBRANCH  38  39
ENDBRANCH  35  38
ENDBRANCH  32  35
ENDBRANCH  22  25
ENDBRANCH  19  21
ENDBRANCH  14  15
ENDBRANCH  13  14
ENDBRANCH  10  13
ENDBRANCH   1   9
TORSDOF 10
ENDMDL
MODEL 7
REMARK VINA RESULT:      -7.9      6.590      9.638
REMARK  10 active torsions:
REMARK  status: ('A' for Active; 'I' for Inactive)
REMARK    1  A    between atoms: C_2  and  C_5 
REMARK    2  A    between atoms: C_5  and  C_6 
REMARK    3  A    between atoms: C_6  and  N_7 
REMARK    4  A    between atoms: N_7  and  C_10 
REMARK    5  A    between atoms: C_16  and  N_17 
REMARK       I    between atoms: N_17  and  C_18 
REMARK    6  A    between atoms: C_18  and  C_20 
REMARK    7  A    between atoms: C_24  and  C_25 
REMARK    8  A    between atoms: C_25  and  O_26 
REMARK    9  A    between atoms: O_26  and  C_27 
REMARK       I    between atoms: C_27  and  N_29 
REMARK   10  A    between atoms: N_29  and  C_30 
ROOT
HETATM    1  C   UNL     1     -41.162  54.168 -52.476  1.00  0.00     0.036 A 
HETATM    2  C   UNL     1     -40.334  53.352 -51.701  1.00  0.00     0.031 A 
HETATM    3  C   UNL     1     -39.856  52.139 -52.211  1.00  0.00     0.025 A 
HETATM    4  C   UNL     1     -40.197  51.733 -53.503  1.00  0.00     0.044 A 
HETATM    5  C   UNL     1     -41.019  52.547 -54.285  1.00  0.00     0.025 A 
HETATM    6  C   UNL     1     -41.501  53.756 -53.771  1.00  0.00     0.031 A 
HETATM    7  C   UNL     1     -39.709  50.487 -54.016  1.00  0.00     0.099 C 
HETATM    8  N   UNL     1     -39.314  49.470 -54.413  1.00  0.00    -0.191 NA
ENDROOT
BRANCH   1   9
HETATM    9  N   UNL     1     -41.693  55.388 -52.029  1.00  0.00    -0.303 N 
HETATM   10  C   UNL     1     -42.797  55.602 -51.256  1.00  0.00     0.365 C 
HETATM   11  O   UNL     1     -43.542  54.767 -50.761  1.00  0.00    -0.238 OA
HETATM   12  H   UNL     1     -41.197  56.236 -52.272  1.00  0.00     0.171 HD
BRANCH  10  13
HETATM   13  O   UNL     1     -42.954  56.945 -51.109  1.00  0.00    -0.299 OA
BRANCH  13  14
HETATM   14  C   UNL     1     -44.260  57.454 -51.411  1.00  0.00     0.219 C 
BRANCH  14  15
HETATM   15  C   UNL     1     -44.229  58.941 -51.677  1.00  0.00    -0.033 A 
HETATM   16  C   UNL     1     -43.014  59.615 -51.850  1.00  0.00     0.009 A 
HETATM   17  C   UNL     1     -42.996  60.985 -52.122  1.00  0.00     0.002 A 
HETATM   18  C   UNL     1     -44.192  61.698 -52.237  1.00  0.00     0.017 A 
HETATM   19  C   UNL     1     -45.412  61.030 -52.083  1.00  0.00     0.033 A 
HETATM   20  C   UNL     1     -45.426  59.661 -51.787  1.00  0.00     0.026 A 
BRANCH  19  21
HETATM   21  C   UNL     1     -46.717  61.724 -52.190  1.00  0.00     0.257 C 
HETATM   22  N   UNL     1     -47.430  61.596 -53.419  1.00  0.00    -0.303 N 
HETATM   23  H   UNL     1     -47.053  61.063 -54.183  1.00  0.00     0.171 HD
HETATM   24  O   UNL     1     -47.165  62.406 -51.289  1.00  0.00    -0.267 OA
BRANCH  22  25
HETATM   25  C   UNL     1     -48.628  62.132 -53.624  1.00  0.00     0.152 A 
HETATM   26  N   UNL     1     -49.597  62.051 -52.686  1.00  0.00    -0.339 N 
HETATM   27  C   UNL     1     -50.792  62.613 -53.081  1.00  0.00     0.024 A 
HETATM   28  H   UNL     1     -49.423  61.592 -51.795  1.00  0.00     0.168 HD
HETATM   29  C   UNL     1     -52.004  62.525 -52.228  1.00  0.00     0.060 C 
HETATM   30  C   UNL     1     -50.752  63.183 -54.324  1.00  0.00     0.011 A 
HETATM   31  C   UNL     1     -53.129  63.432 -52.778  1.00  0.00     0.039 C 
HETATM   32  C   UNL     1     -53.243  63.479 -54.324  1.00  0.00     0.191 C 
HETATM   33  C   UNL     1     -51.894  63.899 -54.979  1.00  0.00     0.081 C 
HETATM   34  S   UNL     1     -49.212  63.008 -55.021  1.00  0.00    -0.056 SA
BRANCH  32  35
HETATM   35  N   UNL     1     -53.674  62.140 -54.904  1.00  0.00    -0.070 N 
HETATM   36  H   UNL     1     -54.659  61.932 -54.688  1.00  0.00     0.277 HD
HETATM   37  H   UNL     1     -53.134  61.409 -54.410  1.00  0.00     0.277 HD
BRANCH  35  38
HETATM   38  C   UNL     1     -53.425  61.938 -56.384  1.00  0.00     0.241 C 
BRANCH  38  39
HETATM   39  C   UNL     1     -54.064  60.635 -56.827  1.00  0.00     0.144 C 
BRANCH  39  40
HETATM   40  C   UNL     1     -53.005  59.559 -56.857  1.00  0.00     0.389 C 
HETATM   41  F   UNL     1     -51.781  60.118 -56.912  1.00  0.00    -0.171 F 
HETATM   42  F   UNL     1     -53.170  58.795 -57.955  1.00  0.00    -0.171 F 
HETATM   43  F   UNL     1     -53.084  58.778 -55.769  1.00  0.00    -0.171 F 
ENDBRANCH  39  40
ENDBRANCH  38  39
ENDBRANCH  35  38
ENDBRANCH  32  35
ENDBRANCH  22  25
ENDBRANCH  19  21
ENDBRANCH  14  15
ENDBRANCH  13  14
ENDBRANCH  10  13
ENDBRANCH   1   9
TORSDOF 10
ENDMDL
MODEL 8
REMARK VINA RESULT:      -7.7      6.405     10.024
REMARK  10 active torsions:
REMARK  status: ('A' for Active; 'I' for Inactive)
REMARK    1  A    between atoms: C_2  and  C_5 
REMARK    2  A    between atoms: C_5  and  C_6 
REMARK    3  A    between atoms: C_6  and  N_7 
REMARK    4  A    between atoms: N_7  and  C_10 
REMARK    5  A    between atoms: C_16  and  N_17 
REMARK       I    between atoms: N_17  and  C_18 
REMARK    6  A    between atoms: C_18  and  C_20 
REMARK    7  A    between atoms: C_24  and  C_25 
REMARK    8  A    between atoms: C_25  and  O_26 
REMARK    9  A    between atoms: O_26  and  C_27 
REMARK       I    between atoms: C_27  and  N_29 
REMARK   10  A    between atoms: N_29  and  C_30 
ROOT
HETATM    1  C   UNL     1     -50.161  63.141 -52.682  1.00  0.00     0.036 A 
HETATM    2  C   UNL     1     -50.694  61.857 -52.820  1.00  0.00     0.031 A 
HETATM    3  C   UNL     1     -51.900  61.661 -53.504  1.00  0.00     0.025 A 
HETATM    4  C   UNL     1     -52.580  62.747 -54.061  1.00  0.00     0.044 A 
HETATM    5  C   UNL     1     -52.049  64.031 -53.931  1.00  0.00     0.025 A 
HETATM    6  C   UNL     1     -50.847  64.226 -53.241  1.00  0.00     0.031 A 
HETATM    7  C   UNL     1     -53.817  62.540 -54.754  1.00  0.00     0.099 C 
HETATM    8  N   UNL     1     -54.823  62.356 -55.303  1.00  0.00    -0.191 NA
ENDROOT
BRANCH   1   9
HETATM    9  N   UNL     1     -48.966  63.418 -51.996  1.00  0.00    -0.303 N 
HETATM   10  C   UNL     1     -48.805  63.882 -50.723  1.00  0.00     0.365 C 
HETATM   11  O   UNL     1     -49.673  64.124 -49.896  1.00  0.00    -0.238 OA
HETATM   12  H   UNL     1     -48.094  63.232 -52.474  1.00  0.00     0.171 HD
BRANCH  10  13
HETATM   13  O   UNL     1     -47.474  64.042 -50.499  1.00  0.00    -0.299 OA
BRANCH  13  14
HETATM   14  C   UNL     1     -46.625  63.856 -51.639  1.00  0.00     0.219 C 
BRANCH  14  15
HETATM   15  C   UNL     1     -45.301  63.239 -51.253  1.00  0.00    -0.033 A 
HETATM   16  C   UNL     1     -44.377  63.949 -50.476  1.00  0.00     0.009 A 
HETATM   17  C   UNL     1     -43.167  63.362 -50.102  1.00  0.00     0.002 A 
HETATM   18  C   UNL     1     -42.867  62.053 -50.487  1.00  0.00     0.017 A 
HETATM   19  C   UNL     1     -43.791  61.329 -51.250  1.00  0.00     0.033 A 
HETATM   20  C   UNL     1     -44.994  61.929 -51.644  1.00  0.00     0.026 A 
BRANCH  19  21
HETATM   21  C   UNL     1     -43.538  59.939 -51.695  1.00  0.00     0.257 C 
HETATM   22  N   UNL     1     -42.540  59.740 -52.695  1.00  0.00    -0.303 N 
HETATM   23  H   UNL     1     -42.037  60.517 -53.087  1.00  0.00     0.171 HD
HETATM   24  O   UNL     1     -44.167  58.994 -51.260  1.00  0.00    -0.267 OA
BRANCH  22  25
HETATM   25  C   UNL     1     -42.189  58.540 -53.144  1.00  0.00     0.152 A 
HETATM   26  N   UNL     1     -43.112  57.575 -53.346  1.00  0.00    -0.339 N 
HETATM   27  C   UNL     1     -42.573  56.377 -53.764  1.00  0.00     0.024 A 
HETATM   28  H   UNL     1     -44.099  57.753 -53.174  1.00  0.00     0.168 HD
HETATM   29  C   UNL     1     -43.418  55.169 -53.934  1.00  0.00     0.060 C 
HETATM   30  C   UNL     1     -41.216  56.411 -53.937  1.00  0.00     0.011 A 
HETATM   31  C   UNL     1     -42.627  54.040 -54.634  1.00  0.00     0.039 C 
HETATM   32  C   UNL     1     -41.138  53.920 -54.218  1.00  0.00     0.191 C 
HETATM   33  C   UNL     1     -40.382  55.265 -54.424  1.00  0.00     0.081 C 
HETATM   34  S   UNL     1     -40.596  57.950 -53.563  1.00  0.00    -0.056 SA
BRANCH  32  35
HETATM   35  N   UNL     1     -40.985  53.489 -52.766  1.00  0.00    -0.070 N 
HETATM   36  H   UNL     1     -41.859  53.623 -52.237  1.00  0.00     0.277 HD
HETATM   37  H   UNL     1     -40.308  54.138 -52.329  1.00  0.00     0.277 HD
BRANCH  35  38
HETATM   38  C   UNL     1     -40.459  52.090 -52.533  1.00  0.00     0.241 C 
BRANCH  38  39
HETATM   39  C   UNL     1     -39.619  51.665 -53.723  1.00  0.00     0.144 C 
BRANCH  39  40
HETATM   40  C   UNL     1     -40.125  50.332 -54.224  1.00  0.00     0.389 C 
HETATM   41  F   UNL     1     -41.430  50.424 -54.540  1.00  0.00    -0.171 F 
HETATM   42  F   UNL     1     -39.988  49.406 -53.254  1.00  0.00    -0.171 F 
HETATM   43  F   UNL     1     -39.437  49.934 -55.304  1.00  0.00    -0.171 F 
ENDBRANCH  39  40
ENDBRANCH  38  39
ENDBRANCH  35  38
ENDBRANCH  32  35
ENDBRANCH  22  25
ENDBRANCH  19  21
ENDBRANCH  14  15
ENDBRANCH  13  14
ENDBRANCH  10  13
ENDBRANCH   1   9
TORSDOF 10
ENDMDL
MODEL 9
REMARK VINA RESULT:      -7.7      4.448      9.941
REMARK  10 active torsions:
REMARK  status: ('A' for Active; 'I' for Inactive)
REMARK    1  A    between atoms: C_2  and  C_5 
REMARK    2  A    between atoms: C_5  and  C_6 
REMARK    3  A    between atoms: C_6  and  N_7 
REMARK    4  A    between atoms: N_7  and  C_10 
REMARK    5  A    between atoms: C_16  and  N_17 
REMARK       I    between atoms: N_17  and  C_18 
REMARK    6  A    between atoms: C_18  and  C_20 
REMARK    7  A    between atoms: C_24  and  C_25 
REMARK    8  A    between atoms: C_25  and  O_26 
REMARK    9  A    between atoms: O_26  and  C_27 
REMARK       I    between atoms: C_27  and  N_29 
REMARK   10  A    between atoms: N_29  and  C_30 
ROOT
HETATM    1  C   UNL     1     -43.227  58.190 -58.805  1.00  0.00     0.036 A 
HETATM    2  C   UNL     1     -42.718  57.116 -58.072  1.00  0.00     0.031 A 
HETATM    3  C   UNL     1     -43.172  55.814 -58.315  1.00  0.00     0.025 A 
HETATM    4  C   UNL     1     -44.135  55.574 -59.298  1.00  0.00     0.044 A 
HETATM    5  C   UNL     1     -44.643  56.643 -60.038  1.00  0.00     0.025 A 
HETATM    6  C   UNL     1     -44.193  57.944 -59.790  1.00  0.00     0.031 A 
HETATM    7  C   UNL     1     -44.600  54.239 -59.536  1.00  0.00     0.099 C 
HETATM    8  N   UNL     1     -44.973  53.154 -59.710  1.00  0.00    -0.191 NA
ENDROOT
BRANCH   1   9
HETATM    9  N   UNL     1     -42.833  59.524 -58.608  1.00  0.00    -0.303 N 
HETATM   10  C   UNL     1     -42.132  60.336 -59.451  1.00  0.00     0.365 C 
HETATM   11  O   UNL     1     -41.723  60.081 -60.575  1.00  0.00    -0.238 OA
HETATM   12  H   UNL     1     -43.117  59.978 -57.750  1.00  0.00     0.171 HD
BRANCH  10  13
HETATM   13  O   UNL     1     -41.944  61.529 -58.825  1.00  0.00    -0.299 OA
BRANCH  13  14
HETATM   14  C   UNL     1     -43.114  62.114 -58.238  1.00  0.00     0.219 C 
BRANCH  14  15
HETATM   15  C   UNL     1     -43.032  62.129 -56.730  1.00  0.00    -0.033 A 
HETATM   16  C   UNL     1     -43.396  63.268 -56.002  1.00  0.00     0.009 A 
HETATM   17  C   UNL     1     -43.342  63.265 -54.606  1.00  0.00     0.002 A 
HETATM   18  C   UNL     1     -42.936  62.119 -53.918  1.00  0.00     0.017 A 
HETATM   19  C   UNL     1     -42.586  60.970 -54.636  1.00  0.00     0.033 A 
HETATM   20  C   UNL     1     -42.619  60.984 -56.036  1.00  0.00     0.026 A 
BRANCH  19  21
HETATM   21  C   UNL     1     -42.144  59.721 -53.971  1.00  0.00     0.257 C 
HETATM   22  N   UNL     1     -43.151  58.894 -53.392  1.00  0.00    -0.303 N 
HETATM   23  H   UNL     1     -44.121  59.157 -53.426  1.00  0.00     0.171 HD
HETATM   24  O   UNL     1     -40.972  59.412 -53.886  1.00  0.00    -0.267 OA
BRANCH  22  25
HETATM   25  C   UNL     1     -42.889  57.730 -52.808  1.00  0.00     0.152 A 
HETATM   26  N   UNL     1     -41.950  57.630 -51.844  1.00  0.00    -0.339 N 
HETATM   27  C   UNL     1     -41.770  56.343 -51.382  1.00  0.00     0.024 A 
HETATM   28  H   UNL     1     -41.434  58.449 -51.531  1.00  0.00     0.168 HD
HETATM   29  C   UNL     1     -40.706  56.019 -50.400  1.00  0.00     0.060 C 
HETATM   30  C   UNL     1     -42.607  55.427 -51.957  1.00  0.00     0.011 A 
HETATM   31  C   UNL     1     -40.869  54.576 -49.870  1.00  0.00     0.039 C 
HETATM   32  C   UNL     1     -41.328  53.534 -50.922  1.00  0.00     0.191 C 
HETATM   33  C   UNL     1     -42.654  53.969 -51.611  1.00  0.00     0.081 C 
HETATM   34  S   UNL     1     -43.626  56.169 -53.097  1.00  0.00    -0.056 SA
BRANCH  32  35
HETATM   35  N   UNL     1     -40.271  53.304 -51.994  1.00  0.00    -0.070 N 
HETATM   36  H   UNL     1     -39.486  53.965 -51.900  1.00  0.00     0.277 HD
HETATM   37  H   UNL     1     -40.708  53.539 -52.903  1.00  0.00     0.277 HD
BRANCH  35  38
HETATM   38  C   UNL     1     -39.737  51.894 -52.120  1.00  0.00     0.241 C 
BRANCH  38  39
HETATM   39  C   UNL     1     -39.338  51.635 -53.561  1.00  0.00     0.144 C 
BRANCH  39  40
HETATM   40  C   UNL     1     -40.022  50.375 -54.037  1.00  0.00     0.389 C 
HETATM   41  F   UNL     1     -40.100  49.485 -53.029  1.00  0.00    -0.171 F 
HETATM   42  F   UNL     1     -39.304  49.822 -55.034  1.00  0.00    -0.171 F 
HETATM   43  F   UNL     1     -41.257  50.641 -54.487  1.00  0.00    -0.171 F 
ENDBRANCH  39  40
ENDBRANCH  38  39
ENDBRANCH  35  38
ENDBRANCH  32  35
ENDBRANCH  22  25
ENDBRANCH  19  21
ENDBRANCH  14  15
ENDBRANCH  13  14
ENDBRANCH  10  13
ENDBRANCH   1   9
TORSDOF 10
ENDMDL
MODEL 10
REMARK VINA RESULT:      -7.6     17.837     21.033
REMARK  10 active torsions:
REMARK  status: ('A' for Active; 'I' for Inactive)
REMARK    1  A    between atoms: C_2  and  C_5 
REMARK    2  A    between atoms: C_5  and  C_6 
REMARK    3  A    between atoms: C_6  and  N_7 
REMARK    4  A    between atoms: N_7  and  C_10 
REMARK    5  A    between atoms: C_16  and  N_17 
REMARK       I    between atoms: N_17  and  C_18 
REMARK    6  A    between atoms: C_18  and  C_20 
REMARK    7  A    between atoms: C_24  and  C_25 
REMARK    8  A    between atoms: C_25  and  O_26 
REMARK    9  A    between atoms: O_26  and  C_27 
REMARK       I    between atoms: C_27  and  N_29 
REMARK   10  A    between atoms: N_29  and  C_30 
ROOT
HETATM    1  C   UNL     1     -34.479  40.996 -55.478  1.00  0.00     0.036 A 
HETATM    2  C   UNL     1     -34.759  40.008 -56.424  1.00  0.00     0.031 A 
HETATM    3  C   UNL     1     -35.543  40.304 -57.546  1.00  0.00     0.025 A 
HETATM    4  C   UNL     1     -36.048  41.593 -57.734  1.00  0.00     0.044 A 
HETATM    5  C   UNL     1     -35.765  42.586 -56.795  1.00  0.00     0.025 A 
HETATM    6  C   UNL     1     -34.987  42.287 -55.671  1.00  0.00     0.031 A 
HETATM    7  C   UNL     1     -36.854  41.888 -58.882  1.00  0.00     0.099 C 
HETATM    8  N   UNL     1     -37.514  42.107 -59.811  1.00  0.00    -0.191 NA
ENDROOT
BRANCH   1   9
HETATM    9  N   UNL     1     -33.715  40.771 -54.320  1.00  0.00    -0.303 N 
HETATM   10  C   UNL     1     -32.403  40.408 -54.225  1.00  0.00     0.365 C 
HETATM   11  O   UNL     1     -31.604  40.232 -55.133  1.00  0.00    -0.238 OA
HETATM   12  H   UNL     1     -34.162  40.918 -53.424  1.00  0.00     0.171 HD
BRANCH  10  13
HETATM   13  O   UNL     1     -32.102  40.264 -52.907  1.00  0.00    -0.299 OA
BRANCH  13  14
HETATM   14  C   UNL     1     -33.078  40.770 -51.987  1.00  0.00     0.219 C 
BRANCH  14  15
HETATM   15  C   UNL     1     -33.095  39.977 -50.701  1.00  0.00    -0.033 A 
HETATM   16  C   UNL     1     -31.959  39.903 -49.887  1.00  0.00     0.009 A 
HETATM   17  C   UNL     1     -31.992  39.190 -48.687  1.00  0.00     0.002 A 
HETATM   18  C   UNL     1     -33.165  38.550 -48.278  1.00  0.00     0.017 A 
HETATM   19  C   UNL     1     -34.311  38.631 -49.077  1.00  0.00     0.033 A 
HETATM   20  C   UNL     1     -34.268  39.328 -50.290  1.00  0.00     0.026 A 
BRANCH  19  21
HETATM   21  C   UNL     1     -35.587  37.976 -48.705  1.00  0.00     0.257 C 
HETATM   22  N   UNL     1     -36.688  38.821 -48.378  1.00  0.00    -0.303 N 
HETATM   23  H   UNL     1     -36.595  39.822 -48.390  1.00  0.00     0.171 HD
HETATM   24  O   UNL     1     -35.702  36.767 -48.646  1.00  0.00    -0.267 OA
BRANCH  22  25
HETATM   25  C   UNL     1     -37.895  38.357 -48.073  1.00  0.00     0.152 A 
HETATM   26  N   UNL     1     -38.948  38.562 -48.893  1.00  0.00    -0.339 N 
HETATM   27  C   UNL     1     -40.134  38.059 -48.402  1.00  0.00     0.024 A 
HETATM   28  H   UNL     1     -38.835  39.061 -49.772  1.00  0.00     0.168 HD
HETATM   29  C   UNL     1     -41.418  38.282 -49.111  1.00  0.00     0.060 C 
HETATM   30  C   UNL     1     -40.007  37.413 -47.203  1.00  0.00     0.011 A 
HETATM   31  C   UNL     1     -42.544  37.423 -48.492  1.00  0.00     0.039 C 
HETATM   32  C   UNL     1     -42.499  37.288 -46.948  1.00  0.00     0.191 C 
HETATM   33  C   UNL     1     -41.124  36.738 -46.467  1.00  0.00     0.081 C 
HETATM   34  S   UNL     1     -38.393  37.439 -46.669  1.00  0.00    -0.056 SA
BRANCH  32  35
HETATM   35  N   UNL     1     -42.765  38.616 -46.252  1.00  0.00    -0.070 N 
HETATM   36  H   UNL     1     -43.727  38.945 -46.418  1.00  0.00     0.277 HD
HETATM   37  H   UNL     1     -42.161  39.322 -46.708  1.00  0.00     0.277 HD
BRANCH  35  38
HETATM   38  C   UNL     1     -42.457  38.672 -44.771  1.00  0.00     0.241 C 
BRANCH  38  39
HETATM   39  C   UNL     1     -41.413  39.743 -44.516  1.00  0.00     0.144 C 
BRANCH  39  40
HETATM   40  C   UNL     1     -40.902  39.597 -43.102  1.00  0.00     0.389 C 
HETATM   41  F   UNL     1     -39.754  38.893 -43.097  1.00  0.00    -0.171 F 
HETATM   42  F   UNL     1     -41.810  38.929 -42.362  1.00  0.00    -0.171 F 
HETATM   43  F   UNL     1     -40.686  40.797 -42.544  1.00  0.00    -0.171 F 
ENDBRANCH  39  40
ENDBRANCH  38  39
ENDBRANCH  35  38
ENDBRANCH  32  35
ENDBRANCH  22  25
ENDBRANCH  19  21
ENDBRANCH  14  15
ENDBRANCH  13  14
ENDBRANCH  10  13
ENDBRANCH   1   9
TORSDOF 10
ENDMDL
