MODEL 1
REMARK VINA RESULT:      -7.4      0.000      0.000
REMARK  8 active torsions:
REMARK  status: ('A' for Active; 'I' for Inactive)
REMARK    1  A    between atoms: C_2  and  S_3 
REMARK    2  A    between atoms: S_3  and  C_4 
REMARK    3  A    between atoms: C_4  and  C_5 
REMARK    4  A    between atoms: C_5  and  N_6 
REMARK       I    between atoms: N_6  and  C_7 
REMARK    5  A    between atoms: N_6  and  C_22 
REMARK    6  A    between atoms: C_7  and  C_8 
REMARK    7  A    between atoms: C_12  and  C_13 
REMARK    8  A    between atoms: C_16  and  O_17 
ROOT
HETATM    1  C   UNL     1     -41.958  54.807 -55.552  1.00  0.00     0.120 A 
HETATM    2  N   UNL     1     -40.610  55.026 -55.627  1.00  0.00    -0.272 N 
HETATM    3  H   UNL     1     -40.144  55.778 -56.126  1.00  0.00     0.189 HD
HETATM    4  N   UNL     1     -39.865  54.127 -54.971  1.00  0.00    -0.174 NA
HETATM    5  C   UNL     1     -40.756  53.332 -54.358  1.00  0.00     0.089 A 
HETATM    6  C   UNL     1     -42.080  53.747 -54.678  1.00  0.00     0.071 A 
ENDROOT
BRANCH   1   7
HETATM    7  C   UNL     1     -42.887  55.692 -56.209  1.00  0.00     0.272 C 
HETATM    8  N   UNL     1     -43.384  56.837 -55.551  1.00  0.00    -0.341 N 
HETATM    9  O   UNL     1     -43.264  55.411 -57.347  1.00  0.00    -0.266 OA
BRANCH   8  10
HETATM   10  C   UNL     1     -44.300  57.663 -56.353  1.00  0.00     0.136 C 
BRANCH  10  11
HETATM   11  C   UNL     1     -43.578  58.866 -56.970  1.00  0.00     0.093 C 
BRANCH  11  12
HETATM   12  S   UNL     1     -43.727  58.860 -58.786  1.00  0.00    -0.168 SA
BRANCH  12  13
HETATM   13  C   UNL     1     -42.025  58.357 -59.188  1.00  0.00     0.069 C 
HETATM   14  C   UNL     1     -42.038  57.155 -60.115  1.00  0.00     0.016 C 
ENDBRANCH  12  13
ENDBRANCH  11  12
ENDBRANCH  10  11
ENDBRANCH   8  10
BRANCH   8  15
HETATM   15  C   UNL     1     -43.237  57.094 -54.092  1.00  0.00     0.087 C 
HETATM   16  C   UNL     1     -42.091  58.036 -53.658  1.00  0.00     0.025 C 
HETATM   17  C   UNL     1     -42.435  59.521 -53.512  1.00  0.00     0.002 C 
HETATM   18  C   UNL     1     -43.778  59.759 -52.835  1.00  0.00     0.000 C 
HETATM   19  C   UNL     1     -44.888  58.953 -53.495  1.00  0.00     0.002 C 
HETATM   20  C   UNL     1     -44.579  57.462 -53.437  1.00  0.00     0.025 C 
ENDBRANCH   8  15
ENDBRANCH   1   7
BRANCH   5  21
HETATM   21  C   UNL     1     -40.333  52.232 -53.484  1.00  0.00    -0.005 A 
HETATM   22  C   UNL     1     -40.106  50.952 -54.016  1.00  0.00     0.016 A 
HETATM   23  C   UNL     1     -39.694  49.894 -53.199  1.00  0.00     0.037 A 
HETATM   24  C   UNL     1     -39.512  50.115 -51.840  1.00  0.00     0.065 A 
HETATM   25  C   UNL     1     -39.736  51.370 -51.288  1.00  0.00     0.037 A 
HETATM   26  C   UNL     1     -40.145  52.427 -52.108  1.00  0.00     0.016 A 
BRANCH  24  27
HETATM   27  O   UNL     1     -39.113  49.117 -51.003  1.00  0.00    -0.361 OA
HETATM   28  H   UNL     1     -38.550  49.502 -50.311  1.00  0.00     0.217 HD
ENDBRANCH  24  27
ENDBRANCH   5  21
TORSDOF 8
ENDMDL
MODEL 2
REMARK VINA RESULT:      -7.0      2.428      4.076
REMARK  8 active torsions:
REMARK  status: ('A' for Active; 'I' for Inactive)
REMARK    1  A    between atoms: C_2  and  S_3 
REMARK    2  A    between atoms: S_3  and  C_4 
REMARK    3  A    between atoms: C_4  and  C_5 
REMARK    4  A    between atoms: C_5  and  N_6 
REMARK       I    between atoms: N_6  and  C_7 
REMARK    5  A    between atoms: N_6  and  C_22 
REMARK    6  A    between atoms: C_7  and  C_8 
REMARK    7  A    between atoms: C_12  and  C_13 
REMARK    8  A    between atoms: C_16  and  O_17 
ROOT
HETATM    1  C   UNL     1     -41.220  56.626 -53.469  1.00  0.00     0.120 A 
HETATM    2  N   UNL     1     -41.797  56.221 -52.296  1.00  0.00    -0.272 N 
HETATM    3  H   UNL     1     -42.359  56.788 -51.668  1.00  0.00     0.189 HD
HETATM    4  N   UNL     1     -41.563  54.941 -51.976  1.00  0.00    -0.174 NA
HETATM    5  C   UNL     1     -40.881  54.450 -53.023  1.00  0.00     0.089 A 
HETATM    6  C   UNL     1     -40.671  55.472 -53.991  1.00  0.00     0.071 A 
ENDROOT
BRANCH   1   7
HETATM    7  C   UNL     1     -41.383  57.976 -53.943  1.00  0.00     0.272 C 
HETATM    8  N   UNL     1     -42.476  58.327 -54.764  1.00  0.00    -0.341 N 
HETATM    9  O   UNL     1     -40.532  58.814 -53.644  1.00  0.00    -0.266 OA
BRANCH   8  10
HETATM   10  C   UNL     1     -42.531  59.747 -55.149  1.00  0.00     0.136 C 
BRANCH  10  11
HETATM   11  C   UNL     1     -43.584  60.508 -54.336  1.00  0.00     0.093 C 
BRANCH  11  12
HETATM   12  S   UNL     1     -42.806  61.489 -53.012  1.00  0.00    -0.168 SA
BRANCH  12  13
HETATM   13  C   UNL     1     -43.160  60.375 -51.617  1.00  0.00     0.069 C 
HETATM   14  C   UNL     1     -41.992  60.363 -50.647  1.00  0.00     0.016 C 
ENDBRANCH  12  13
ENDBRANCH  11  12
ENDBRANCH  10  11
ENDBRANCH   8  10
BRANCH   8  15
HETATM   15  C   UNL     1     -43.374  57.342 -55.428  1.00  0.00     0.087 C 
HETATM   16  C   UNL     1     -44.873  57.711 -55.519  1.00  0.00     0.025 C 
HETATM   17  C   UNL     1     -45.331  58.433 -56.790  1.00  0.00     0.002 C 
HETATM   18  C   UNL     1     -44.713  57.860 -58.058  1.00  0.00     0.000 C 
HETATM   19  C   UNL     1     -43.199  57.756 -57.945  1.00  0.00     0.002 C 
HETATM   20  C   UNL     1     -42.805  56.864 -56.775  1.00  0.00     0.025 C 
ENDBRANCH   8  15
ENDBRANCH   1   7
BRANCH   5  21
HETATM   21  C   UNL     1     -40.471  53.042 -53.081  1.00  0.00    -0.005 A 
HETATM   22  C   UNL     1     -40.636  52.304 -54.264  1.00  0.00     0.016 A 
HETATM   23  C   UNL     1     -40.243  50.964 -54.339  1.00  0.00     0.037 A 
HETATM   24  C   UNL     1     -39.685  50.355 -53.222  1.00  0.00     0.065 A 
HETATM   25  C   UNL     1     -39.516  51.062 -52.038  1.00  0.00     0.037 A 
HETATM   26  C   UNL     1     -39.908  52.402 -51.967  1.00  0.00     0.016 A 
BRANCH  24  27
HETATM   27  O   UNL     1     -39.288  49.052 -53.246  1.00  0.00    -0.361 OA
HETATM   28  H   UNL     1     -39.656  48.633 -54.042  1.00  0.00     0.217 HD
ENDBRANCH  24  27
ENDBRANCH   5  21
TORSDOF 8
ENDMDL
MODEL 3
REMARK VINA RESULT:      -7.0      1.446      1.635
REMARK  8 active torsions:
REMARK  status: ('A' for Active; 'I' for Inactive)
REMARK    1  A    between atoms: C_2  and  S_3 
REMARK    2  A    between atoms: S_3  and  C_4 
REMARK    3  A    between atoms: C_4  and  C_5 
REMARK    4  A    between atoms: C_5  and  N_6 
REMARK       I    between atoms: N_6  and  C_7 
REMARK    5  A    between atoms: N_6  and  C_22 
REMARK    6  A    between atoms: C_7  and  C_8 
REMARK    7  A    between atoms: C_12  and  C_13 
REMARK    8  A    between atoms: C_16  and  O_17 
ROOT
HETATM    1  C   UNL     1     -41.984  55.402 -54.933  1.00  0.00     0.120 A 
HETATM    2  N   UNL     1     -40.675  55.450 -55.330  1.00  0.00    -0.272 N 
HETATM    3  H   UNL     1     -40.215  56.217 -55.811  1.00  0.00     0.189 HD
HETATM    4  N   UNL     1     -39.968  54.348 -55.044  1.00  0.00    -0.174 NA
HETATM    5  C   UNL     1     -40.815  53.574 -54.347  1.00  0.00     0.089 A 
HETATM    6  C   UNL     1     -42.082  54.216 -54.234  1.00  0.00     0.071 A 
ENDROOT
BRANCH   1   7
HETATM    7  C   UNL     1     -42.869  56.514 -55.172  1.00  0.00     0.272 C 
HETATM    8  N   UNL     1     -43.038  57.525 -54.202  1.00  0.00    -0.341 N 
HETATM    9  O   UNL     1     -43.500  56.548 -56.229  1.00  0.00    -0.266 OA
BRANCH   8  10
HETATM   10  C   UNL     1     -43.949  58.612 -54.595  1.00  0.00     0.136 C 
BRANCH  10  11
HETATM   11  C   UNL     1     -43.179  59.814 -55.155  1.00  0.00     0.093 C 
BRANCH  11  12
HETATM   12  S   UNL     1     -44.078  60.578 -56.543  1.00  0.00    -0.168 SA
BRANCH  12  13
HETATM   13  C   UNL     1     -43.389  59.567 -57.890  1.00  0.00     0.069 C 
HETATM   14  C   UNL     1     -41.873  59.645 -57.881  1.00  0.00     0.016 C 
ENDBRANCH  12  13
ENDBRANCH  11  12
ENDBRANCH  10  11
ENDBRANCH   8  10
BRANCH   8  15
HETATM   15  C   UNL     1     -42.571  57.419 -52.793  1.00  0.00     0.087 C 
HETATM   16  C   UNL     1     -41.206  58.063 -52.457  1.00  0.00     0.025 C 
HETATM   17  C   UNL     1     -41.229  59.509 -51.955  1.00  0.00     0.002 C 
HETATM   18  C   UNL     1     -42.349  59.779 -50.960  1.00  0.00     0.000 C 
HETATM   19  C   UNL     1     -43.696  59.313 -51.494  1.00  0.00     0.002 C 
HETATM   20  C   UNL     1     -43.671  57.820 -51.794  1.00  0.00     0.025 C 
ENDBRANCH   8  15
ENDBRANCH   1   7
BRANCH   5  21
HETATM   21  C   UNL     1     -40.400  52.277 -53.801  1.00  0.00    -0.005 A 
HETATM   22  C   UNL     1     -40.442  51.124 -54.602  1.00  0.00     0.016 A 
HETATM   23  C   UNL     1     -40.042  49.882 -54.099  1.00  0.00     0.037 A 
HETATM   24  C   UNL     1     -39.601  49.790 -52.785  1.00  0.00     0.065 A 
HETATM   25  C   UNL     1     -39.556  50.914 -51.971  1.00  0.00     0.037 A 
HETATM   26  C   UNL     1     -39.954  52.156 -52.476  1.00  0.00     0.016 A 
BRANCH  24  27
HETATM   27  O   UNL     1     -39.201  48.602 -52.250  1.00  0.00    -0.361 OA
HETATM   28  H   UNL     1     -38.235  48.540 -52.327  1.00  0.00     0.217 HD
ENDBRANCH  24  27
ENDBRANCH   5  21
TORSDOF 8
ENDMDL
MODEL 4
REMARK VINA RESULT:      -6.9      2.354      3.514
REMARK  8 active torsions:
REMARK  status: ('A' for Active; 'I' for Inactive)
REMARK    1  A    between atoms: C_2  and  S_3 
REMARK    2  A    between atoms: S_3  and  C_4 
REMARK    3  A    between atoms: C_4  and  C_5 
REMARK    4  A    between atoms: C_5  and  N_6 
REMARK       I    between atoms: N_6  and  C_7 
REMARK    5  A    between atoms: N_6  and  C_22 
REMARK    6  A    between atoms: C_7  and  C_8 
REMARK    7  A    between atoms: C_12  and  C_13 
REMARK    8  A    between atoms: C_16  and  O_17 
ROOT
HETATM    1  C   UNL     1     -41.116  56.673 -53.405  1.00  0.00     0.120 A 
HETATM    2  N   UNL     1     -41.607  56.287 -52.188  1.00  0.00    -0.272 N 
HETATM    3  H   UNL     1     -42.105  56.870 -51.522  1.00  0.00     0.189 HD
HETATM    4  N   UNL     1     -41.376  55.004 -51.878  1.00  0.00    -0.174 NA
HETATM    5  C   UNL     1     -40.789  54.492 -52.972  1.00  0.00     0.089 A 
HETATM    6  C   UNL     1     -40.635  55.505 -53.961  1.00  0.00     0.071 A 
ENDROOT
BRANCH   1   7
HETATM    7  C   UNL     1     -41.287  58.024 -53.875  1.00  0.00     0.272 C 
HETATM    8  N   UNL     1     -42.409  58.382 -54.653  1.00  0.00    -0.341 N 
HETATM    9  O   UNL     1     -40.418  58.855 -53.611  1.00  0.00    -0.266 OA
BRANCH   8  10
HETATM   10  C   UNL     1     -42.468  59.802 -55.037  1.00  0.00     0.136 C 
BRANCH  10  11
HETATM   11  C   UNL     1     -43.286  60.621 -54.033  1.00  0.00     0.093 C 
BRANCH  11  12
HETATM   12  S   UNL     1     -44.294  61.880 -54.881  1.00  0.00    -0.168 SA
BRANCH  12  13
HETATM   13  C   UNL     1     -43.555  61.736 -56.538  1.00  0.00     0.069 C 
HETATM   14  C   UNL     1     -44.632  61.840 -57.603  1.00  0.00     0.016 C 
ENDBRANCH  12  13
ENDBRANCH  11  12
ENDBRANCH  10  11
ENDBRANCH   8  10
BRANCH   8  15
HETATM   15  C   UNL     1     -43.340  57.404 -55.280  1.00  0.00     0.087 C 
HETATM   16  C   UNL     1     -44.853  57.671 -55.112  1.00  0.00     0.025 C 
HETATM   17  C   UNL     1     -45.540  58.477 -56.219  1.00  0.00     0.002 C 
HETATM   18  C   UNL     1     -45.091  58.074 -57.617  1.00  0.00     0.000 C 
HETATM   19  C   UNL     1     -43.573  58.070 -57.737  1.00  0.00     0.002 C 
HETATM   20  C   UNL     1     -42.956  57.100 -56.738  1.00  0.00     0.025 C 
ENDBRANCH   8  15
ENDBRANCH   1   7
BRANCH   5  21
HETATM   21  C   UNL     1     -40.415  53.076 -53.053  1.00  0.00    -0.005 A 
HETATM   22  C   UNL     1     -39.892  52.415 -51.930  1.00  0.00     0.016 A 
HETATM   23  C   UNL     1     -39.538  51.063 -51.988  1.00  0.00     0.037 A 
HETATM   24  C   UNL     1     -39.704  50.367 -53.179  1.00  0.00     0.065 A 
HETATM   25  C   UNL     1     -40.214  50.999 -54.306  1.00  0.00     0.037 A 
HETATM   26  C   UNL     1     -40.569  52.350 -54.244  1.00  0.00     0.016 A 
BRANCH  24  27
HETATM   27  O   UNL     1     -39.373  49.050 -53.284  1.00  0.00    -0.361 OA
HETATM   28  H   UNL     1     -40.005  48.621 -53.885  1.00  0.00     0.217 HD
ENDBRANCH  24  27
ENDBRANCH   5  21
TORSDOF 8
ENDMDL
MODEL 5
REMARK VINA RESULT:      -6.5      2.136      3.847
REMARK  8 active torsions:
REMARK  status: ('A' for Active; 'I' for Inactive)
REMARK    1  A    between atoms: C_2  and  S_3 
REMARK    2  A    between atoms: S_3  and  C_4 
REMARK    3  A    between atoms: C_4  and  C_5 
REMARK    4  A    between atoms: C_5  and  N_6 
REMARK       I    between atoms: N_6  and  C_7 
REMARK    5  A    between atoms: N_6  and  C_22 
REMARK    6  A    between atoms: C_7  and  C_8 
REMARK    7  A    between atoms: C_12  and  C_13 
REMARK    8  A    between atoms: C_16  and  O_17 
ROOT
HETATM    1  C   UNL     1     -43.593  56.504 -54.683  1.00  0.00     0.120 A 
HETATM    2  N   UNL     1     -44.421  55.416 -54.639  1.00  0.00    -0.272 N 
HETATM    3  H   UNL     1     -45.379  55.368 -54.975  1.00  0.00     0.189 HD
HETATM    4  N   UNL     1     -43.878  54.327 -54.078  1.00  0.00    -0.174 NA
HETATM    5  C   UNL     1     -42.607  54.677 -53.823  1.00  0.00     0.089 A 
HETATM    6  C   UNL     1     -42.385  56.028 -54.215  1.00  0.00     0.071 A 
ENDROOT
BRANCH   1   7
HETATM    7  C   UNL     1     -44.039  57.748 -55.257  1.00  0.00     0.272 C 
HETATM    8  N   UNL     1     -43.669  58.112 -56.569  1.00  0.00    -0.341 N 
HETATM    9  O   UNL     1     -44.726  58.503 -54.568  1.00  0.00    -0.266 OA
BRANCH   8  10
HETATM   10  C   UNL     1     -44.222  59.395 -57.034  1.00  0.00     0.136 C 
BRANCH  10  11
HETATM   11  C   UNL     1     -45.672  59.243 -57.506  1.00  0.00     0.093 C 
BRANCH  11  12
HETATM   12  S   UNL     1     -45.931  60.073 -59.107  1.00  0.00    -0.168 SA
BRANCH  12  13
HETATM   13  C   UNL     1     -46.288  58.598 -60.112  1.00  0.00     0.069 C 
HETATM   14  C   UNL     1     -46.827  57.483 -59.234  1.00  0.00     0.016 C 
ENDBRANCH  12  13
ENDBRANCH  11  12
ENDBRANCH  10  11
ENDBRANCH   8  10
BRANCH   8  15
HETATM   15  C   UNL     1     -42.608  57.431 -57.359  1.00  0.00     0.087 C 
HETATM   16  C   UNL     1     -42.993  56.104 -58.053  1.00  0.00     0.025 C 
HETATM   17  C   UNL     1     -43.494  56.200 -59.498  1.00  0.00     0.002 C 
HETATM   18  C   UNL     1     -42.693  57.179 -60.344  1.00  0.00     0.000 C 
HETATM   19  C   UNL     1     -42.571  58.536 -59.664  1.00  0.00     0.002 C 
HETATM   20  C   UNL     1     -41.888  58.402 -58.310  1.00  0.00     0.025 C 
ENDBRANCH   8  15
ENDBRANCH   1   7
BRANCH   5  21
HETATM   21  C   UNL     1     -41.650  53.729 -53.242  1.00  0.00    -0.005 A 
HETATM   22  C   UNL     1     -40.998  52.789 -54.057  1.00  0.00     0.016 A 
HETATM   23  C   UNL     1     -40.077  51.884 -53.520  1.00  0.00     0.037 A 
HETATM   24  C   UNL     1     -39.809  51.915 -52.157  1.00  0.00     0.065 A 
HETATM   25  C   UNL     1     -40.445  52.830 -51.328  1.00  0.00     0.037 A 
HETATM   26  C   UNL     1     -41.363  53.736 -51.868  1.00  0.00     0.016 A 
BRANCH  24  27
HETATM   27  O   UNL     1     -38.920  51.053 -51.588  1.00  0.00    -0.361 OA
HETATM   28  H   UNL     1     -39.181  50.145 -51.818  1.00  0.00     0.217 HD
ENDBRANCH  24  27
ENDBRANCH   5  21
TORSDOF 8
ENDMDL
MODEL 6
REMARK VINA RESULT:      -6.5      1.773      2.388
REMARK  8 active torsions:
REMARK  status: ('A' for Active; 'I' for Inactive)
REMARK    1  A    between atoms: C_2  and  S_3 
REMARK    2  A    between atoms: S_3  and  C_4 
REMARK    3  A    between atoms: C_4  and  C_5 
REMARK    4  A    between atoms: C_5  and  N_6 
REMARK       I    between atoms: N_6  and  C_7 
REMARK    5  A    between atoms: N_6  and  C_22 
REMARK    6  A    between atoms: C_7  and  C_8 
REMARK    7  A    between atoms: C_12  and  C_13 
REMARK    8  A    between atoms: C_16  and  O_17 
ROOT
HETATM    1  C   UNL     1     -42.539  55.807 -56.154  1.00  0.00     0.120 A 
HETATM    2  N   UNL     1     -43.431  54.771 -56.117  1.00  0.00    -0.272 N 
HETATM    3  H   UNL     1     -44.305  54.704 -56.630  1.00  0.00     0.189 HD
HETATM    4  N   UNL     1     -43.083  53.768 -55.300  1.00  0.00    -0.174 NA
HETATM    5  C   UNL     1     -41.866  54.109 -54.846  1.00  0.00     0.089 A 
HETATM    6  C   UNL     1     -41.481  55.370 -55.384  1.00  0.00     0.071 A 
ENDROOT
BRANCH   1   7
HETATM    7  C   UNL     1     -42.779  56.958 -56.989  1.00  0.00     0.272 C 
HETATM    8  N   UNL     1     -42.787  58.258 -56.441  1.00  0.00    -0.341 N 
HETATM    9  O   UNL     1     -43.008  56.781 -58.186  1.00  0.00    -0.266 OA
BRANCH   8  10
HETATM   10  C   UNL     1     -43.015  59.338 -57.416  1.00  0.00     0.136 C 
BRANCH  10  11
HETATM   11  C   UNL     1     -41.716  59.737 -58.124  1.00  0.00     0.093 C 
BRANCH  11  12
HETATM   12  S   UNL     1     -42.038  60.246 -59.844  1.00  0.00    -0.168 SA
BRANCH  12  13
HETATM   13  C   UNL     1     -41.092  61.800 -59.840  1.00  0.00     0.069 C 
HETATM   14  C   UNL     1     -40.562  62.086 -58.446  1.00  0.00     0.016 C 
ENDBRANCH  12  13
ENDBRANCH  11  12
ENDBRANCH  10  11
ENDBRANCH   8  10
BRANCH   8  15
HETATM   15  C   UNL     1     -42.831  58.552 -54.983  1.00  0.00     0.087 C 
HETATM   16  C   UNL     1     -42.097  59.826 -54.503  1.00  0.00     0.025 C 
HETATM   17  C   UNL     1     -42.927  61.110 -54.413  1.00  0.00     0.002 C 
HETATM   18  C   UNL     1     -44.314  60.885 -53.826  1.00  0.00     0.000 C 
HETATM   19  C   UNL     1     -45.044  59.752 -54.533  1.00  0.00     0.002 C 
HETATM   20  C   UNL     1     -44.259  58.451 -54.420  1.00  0.00     0.025 C 
ENDBRANCH   8  15
ENDBRANCH   1   7
BRANCH   5  21
HETATM   21  C   UNL     1     -41.108  53.233 -53.945  1.00  0.00    -0.005 A 
HETATM   22  C   UNL     1     -40.966  53.564 -52.588  1.00  0.00     0.016 A 
HETATM   23  C   UNL     1     -40.253  52.737 -51.714  1.00  0.00     0.037 A 
HETATM   24  C   UNL     1     -39.675  51.571 -52.201  1.00  0.00     0.065 A 
HETATM   25  C   UNL     1     -39.796  51.225 -53.541  1.00  0.00     0.037 A 
HETATM   26  C   UNL     1     -40.511  52.053 -54.412  1.00  0.00     0.016 A 
BRANCH  24  27
HETATM   27  O   UNL     1     -38.971  50.734 -51.390  1.00  0.00    -0.361 OA
HETATM   28  H   UNL     1     -38.036  50.999 -51.411  1.00  0.00     0.217 HD
ENDBRANCH  24  27
ENDBRANCH   5  21
TORSDOF 8
ENDMDL
MODEL 7
REMARK VINA RESULT:      -6.4      2.180      2.777
REMARK  8 active torsions:
REMARK  status: ('A' for Active; 'I' for Inactive)
REMARK    1  A    between atoms: C_2  and  S_3 
REMARK    2  A    between atoms: S_3  and  C_4 
REMARK    3  A    between atoms: C_4  and  C_5 
REMARK    4  A    between atoms: C_5  and  N_6 
REMARK       I    between atoms: N_6  and  C_7 
REMARK    5  A    between atoms: N_6  and  C_22 
REMARK    6  A    between atoms: C_7  and  C_8 
REMARK    7  A    between atoms: C_12  and  C_13 
REMARK    8  A    between atoms: C_16  and  O_17 
ROOT
HETATM    1  C   UNL     1     -41.787  55.977 -54.452  1.00  0.00     0.120 A 
HETATM    2  N   UNL     1     -42.936  55.239 -54.363  1.00  0.00    -0.272 N 
HETATM    3  H   UNL     1     -43.882  55.566 -54.536  1.00  0.00     0.189 HD
HETATM    4  N   UNL     1     -42.749  53.964 -53.998  1.00  0.00    -0.174 NA
HETATM    5  C   UNL     1     -41.415  53.823 -53.931  1.00  0.00     0.089 A 
HETATM    6  C   UNL     1     -40.779  55.060 -54.237  1.00  0.00     0.071 A 
ENDROOT
BRANCH   1   7
HETATM    7  C   UNL     1     -41.830  57.366 -54.834  1.00  0.00     0.272 C 
HETATM    8  N   UNL     1     -41.664  58.385 -53.872  1.00  0.00    -0.341 N 
HETATM    9  O   UNL     1     -42.046  57.647 -56.013  1.00  0.00    -0.266 OA
BRANCH   8  10
HETATM   10  C   UNL     1     -41.702  59.755 -54.410  1.00  0.00     0.136 C 
BRANCH  10  11
HETATM   11  C   UNL     1     -43.137  60.289 -54.483  1.00  0.00     0.093 C 
BRANCH  11  12
HETATM   12  S   UNL     1     -43.554  60.816 -56.177  1.00  0.00    -0.168 SA
BRANCH  12  13
HETATM   13  C   UNL     1     -45.054  59.811 -56.403  1.00  0.00     0.069 C 
HETATM   14  C   UNL     1     -45.246  58.883 -55.217  1.00  0.00     0.016 C 
ENDBRANCH  12  13
ENDBRANCH  11  12
ENDBRANCH  10  11
ENDBRANCH   8  10
BRANCH   8  15
HETATM   15  C   UNL     1     -41.709  58.164 -52.401  1.00  0.00     0.087 C 
HETATM   16  C   UNL     1     -41.022  59.226 -51.511  1.00  0.00     0.025 C 
HETATM   17  C   UNL     1     -41.901  60.368 -50.995  1.00  0.00     0.002 C 
HETATM   18  C   UNL     1     -43.273  59.902 -50.528  1.00  0.00     0.000 C 
HETATM   19  C   UNL     1     -43.964  59.050 -51.583  1.00  0.00     0.002 C 
HETATM   20  C   UNL     1     -43.128  57.820 -51.915  1.00  0.00     0.025 C 
ENDBRANCH   8  15
ENDBRANCH   1   7
BRANCH   5  21
HETATM   21  C   UNL     1     -40.792  52.536 -53.603  1.00  0.00    -0.005 A 
HETATM   22  C   UNL     1     -40.133  52.359 -52.376  1.00  0.00     0.016 A 
HETATM   23  C   UNL     1     -39.542  51.136 -52.045  1.00  0.00     0.037 A 
HETATM   24  C   UNL     1     -39.606  50.082 -52.948  1.00  0.00     0.065 A 
HETATM   25  C   UNL     1     -40.246  50.234 -54.171  1.00  0.00     0.037 A 
HETATM   26  C   UNL     1     -40.839  51.457 -54.499  1.00  0.00     0.016 A 
BRANCH  24  27
HETATM   27  O   UNL     1     -39.044  48.872 -52.671  1.00  0.00    -0.361 OA
HETATM   28  H   UNL     1     -38.388  48.993 -51.963  1.00  0.00     0.217 HD
ENDBRANCH  24  27
ENDBRANCH   5  21
TORSDOF 8
ENDMDL
MODEL 8
REMARK VINA RESULT:      -6.4      3.392      4.800
REMARK  8 active torsions:
REMARK  status: ('A' for Active; 'I' for Inactive)
REMARK    1  A    between atoms: C_2  and  S_3 
REMARK    2  A    between atoms: S_3  and  C_4 
REMARK    3  A    between atoms: C_4  and  C_5 
REMARK    4  A    between atoms: C_5  and  N_6 
REMARK       I    between atoms: N_6  and  C_7 
REMARK    5  A    between atoms: N_6  and  C_22 
REMARK    6  A    between atoms: C_7  and  C_8 
REMARK    7  A    between atoms: C_12  and  C_13 
REMARK    8  A    between atoms: C_16  and  O_17 
ROOT
HETATM    1  C   UNL     1     -41.300  56.435 -51.187  1.00  0.00     0.120 A 
HETATM    2  N   UNL     1     -41.735  55.580 -50.211  1.00  0.00    -0.272 N 
HETATM    3  H   UNL     1     -42.213  55.833 -49.351  1.00  0.00     0.189 HD
HETATM    4  N   UNL     1     -41.473  54.288 -50.448  1.00  0.00    -0.174 NA
HETATM    5  C   UNL     1     -40.925  54.274 -51.674  1.00  0.00     0.089 A 
HETATM    6  C   UNL     1     -40.827  55.601 -52.179  1.00  0.00     0.071 A 
ENDROOT
BRANCH   1   7
HETATM    7  C   UNL     1     -41.511  57.856 -51.070  1.00  0.00     0.272 C 
HETATM    8  N   UNL     1     -42.291  58.551 -52.018  1.00  0.00    -0.341 N 
HETATM    9  O   UNL     1     -40.969  58.458 -50.143  1.00  0.00    -0.266 OA
BRANCH   8  10
HETATM   10  C   UNL     1     -42.444  59.991 -51.757  1.00  0.00     0.136 C 
BRANCH  10  11
HETATM   11  C   UNL     1     -43.733  60.287 -50.983  1.00  0.00     0.093 C 
BRANCH  11  12
HETATM   12  S   UNL     1     -44.543  61.795 -51.609  1.00  0.00    -0.168 SA
BRANCH  12  13
HETATM   13  C   UNL     1     -46.251  61.397 -51.123  1.00  0.00     0.069 C 
HETATM   14  C   UNL     1     -47.141  61.325 -52.351  1.00  0.00     0.016 C 
ENDBRANCH  12  13
ENDBRANCH  11  12
ENDBRANCH  10  11
ENDBRANCH   8  10
BRANCH   8  15
HETATM   15  C   UNL     1     -42.724  57.983 -53.324  1.00  0.00     0.087 C 
HETATM   16  C   UNL     1     -44.238  57.729 -53.511  1.00  0.00     0.025 C 
HETATM   17  C   UNL     1     -45.055  58.857 -54.147  1.00  0.00     0.002 C 
HETATM   18  C   UNL     1     -44.346  59.519 -55.321  1.00  0.00     0.000 C 
HETATM   19  C   UNL     1     -42.931  59.943 -54.954  1.00  0.00     0.002 C 
HETATM   20  C   UNL     1     -42.106  58.741 -54.512  1.00  0.00     0.025 C 
ENDBRANCH   8  15
ENDBRANCH   1   7
BRANCH   5  21
HETATM   21  C   UNL     1     -40.535  53.019 -52.327  1.00  0.00    -0.005 A 
HETATM   22  C   UNL     1     -40.803  52.816 -53.691  1.00  0.00     0.016 A 
HETATM   23  C   UNL     1     -40.431  51.630 -54.331  1.00  0.00     0.037 A 
HETATM   24  C   UNL     1     -39.789  50.637 -53.602  1.00  0.00     0.065 A 
HETATM   25  C   UNL     1     -39.518  50.810 -52.251  1.00  0.00     0.037 A 
HETATM   26  C   UNL     1     -39.890  51.998 -51.613  1.00  0.00     0.016 A 
BRANCH  24  27
HETATM   27  O   UNL     1     -39.408  49.464 -54.181  1.00  0.00    -0.361 OA
HETATM   28  H   UNL     1     -38.439  49.463 -54.265  1.00  0.00     0.217 HD
ENDBRANCH  24  27
ENDBRANCH   5  21
TORSDOF 8
ENDMDL
MODEL 9
REMARK VINA RESULT:      -6.4     16.106     18.216
REMARK  8 active torsions:
REMARK  status: ('A' for Active; 'I' for Inactive)
REMARK    1  A    between atoms: C_2  and  S_3 
REMARK    2  A    between atoms: S_3  and  C_4 
REMARK    3  A    between atoms: C_4  and  C_5 
REMARK    4  A    between atoms: C_5  and  N_6 
REMARK       I    between atoms: N_6  and  C_7 
REMARK    5  A    between atoms: N_6  and  C_22 
REMARK    6  A    between atoms: C_7  and  C_8 
REMARK    7  A    between atoms: C_12  and  C_13 
REMARK    8  A    between atoms: C_16  and  O_17 
ROOT
HETATM    1  C   UNL     1     -34.524  40.521 -56.637  1.00  0.00     0.120 A 
HETATM    2  N   UNL     1     -34.958  41.691 -57.196  1.00  0.00    -0.272 N 
HETATM    3  H   UNL     1     -34.625  42.626 -56.981  1.00  0.00     0.189 HD
HETATM    4  N   UNL     1     -35.929  41.544 -58.107  1.00  0.00    -0.174 NA
HETATM    5  C   UNL     1     -36.082  40.215 -58.227  1.00  0.00     0.089 A 
HETATM    6  C   UNL     1     -35.196  39.541 -57.339  1.00  0.00     0.071 A 
ENDROOT
BRANCH   1   7
HETATM    7  C   UNL     1     -33.483  40.520 -55.640  1.00  0.00     0.272 C 
HETATM    8  N   UNL     1     -33.793  40.372 -54.271  1.00  0.00    -0.341 N 
HETATM    9  O   UNL     1     -32.318  40.684 -56.004  1.00  0.00    -0.266 OA
BRANCH   8  10
HETATM   10  C   UNL     1     -32.629  40.361 -53.371  1.00  0.00     0.136 C 
BRANCH  10  11
HETATM   11  C   UNL     1     -32.009  38.963 -53.273  1.00  0.00     0.093 C 
BRANCH  11  12
HETATM   12  S   UNL     1     -31.983  38.377 -51.547  1.00  0.00    -0.168 SA
BRANCH  12  13
HETATM   13  C   UNL     1     -31.767  39.987 -50.727  1.00  0.00     0.069 C 
HETATM   14  C   UNL     1     -32.304  39.928 -49.308  1.00  0.00     0.016 C 
ENDBRANCH  12  13
ENDBRANCH  11  12
ENDBRANCH  10  11
ENDBRANCH   8  10
BRANCH   8  15
HETATM   15  C   UNL     1     -35.167  40.479 -53.708  1.00  0.00     0.087 C 
HETATM   16  C   UNL     1     -35.688  39.269 -52.899  1.00  0.00     0.025 C 
HETATM   17  C   UNL     1     -35.461  39.301 -51.384  1.00  0.00     0.002 C 
HETATM   18  C   UNL     1     -35.722  40.669 -50.770  1.00  0.00     0.000 C 
HETATM   19  C   UNL     1     -34.970  41.767 -51.508  1.00  0.00     0.002 C 
HETATM   20  C   UNL     1     -35.383  41.813 -52.973  1.00  0.00     0.025 C 
ENDBRANCH   8  15
ENDBRANCH   1   7
BRANCH   5  21
HETATM   21  C   UNL     1     -37.035  39.633 -59.179  1.00  0.00    -0.005 A 
HETATM   22  C   UNL     1     -38.125  38.877 -58.718  1.00  0.00     0.016 A 
HETATM   23  C   UNL     1     -39.047  38.323 -59.612  1.00  0.00     0.037 A 
HETATM   24  C   UNL     1     -38.875  38.521 -60.976  1.00  0.00     0.065 A 
HETATM   25  C   UNL     1     -37.802  39.259 -61.457  1.00  0.00     0.037 A 
HETATM   26  C   UNL     1     -36.883  39.815 -60.562  1.00  0.00     0.016 A 
BRANCH  24  27
HETATM   27  O   UNL     1     -39.746  37.999 -61.885  1.00  0.00    -0.361 OA
HETATM   28  H   UNL     1     -39.735  38.561 -62.679  1.00  0.00     0.217 HD
ENDBRANCH  24  27
ENDBRANCH   5  21
TORSDOF 8
ENDMDL
MODEL 10
REMARK VINA RESULT:      -6.3      2.218      3.929
REMARK  8 active torsions:
REMARK  status: ('A' for Active; 'I' for Inactive)
REMARK    1  A    between atoms: C_2  and  S_3 
REMARK    2  A    between atoms: S_3  and  C_4 
REMARK    3  A    between atoms: C_4  and  C_5 
REMARK    4  A    between atoms: C_5  and  N_6 
REMARK       I    between atoms: N_6  and  C_7 
REMARK    5  A    between atoms: N_6  and  C_22 
REMARK    6  A    between atoms: C_7  and  C_8 
REMARK    7  A    between atoms: C_12  and  C_13 
REMARK    8  A    between atoms: C_16  and  O_17 
ROOT
HETATM    1  C   UNL     1     -42.235  57.278 -54.927  1.00  0.00     0.120 A 
HETATM    2  N   UNL     1     -43.267  56.814 -54.158  1.00  0.00    -0.272 N 
HETATM    3  H   UNL     1     -44.180  57.243 -54.045  1.00  0.00     0.189 HD
HETATM    4  N   UNL     1     -42.998  55.682 -53.494  1.00  0.00    -0.174 NA
HETATM    5  C   UNL     1     -41.771  55.329 -53.912  1.00  0.00     0.089 A 
HETATM    6  C   UNL     1     -41.273  56.294 -54.833  1.00  0.00     0.071 A 
ENDROOT
BRANCH   1   7
HETATM    7  C   UNL     1     -42.377  58.487 -55.699  1.00  0.00     0.272 C 
HETATM    8  N   UNL     1     -43.273  58.549 -56.787  1.00  0.00    -0.341 N 
HETATM    9  O   UNL     1     -41.675  59.457 -55.409  1.00  0.00    -0.266 OA
BRANCH   8  10
HETATM   10  C   UNL     1     -43.334  59.855 -57.464  1.00  0.00     0.136 C 
BRANCH  10  11
HETATM   11  C   UNL     1     -42.196  60.016 -58.477  1.00  0.00     0.093 C 
BRANCH  11  12
HETATM   12  S   UNL     1     -42.620  61.249 -59.750  1.00  0.00    -0.168 SA
BRANCH  12  13
HETATM   13  C   UNL     1     -40.948  61.902 -60.050  1.00  0.00     0.069 C 
HETATM   14  C   UNL     1     -40.314  62.339 -58.741  1.00  0.00     0.016 C 
ENDBRANCH  12  13
ENDBRANCH  11  12
ENDBRANCH  10  11
ENDBRANCH   8  10
BRANCH   8  15
HETATM   15  C   UNL     1     -43.925  57.362 -57.403  1.00  0.00     0.087 C 
HETATM   16  C   UNL     1     -45.151  57.627 -58.308  1.00  0.00     0.025 C 
HETATM   17  C   UNL     1     -44.880  57.797 -59.806  1.00  0.00     0.002 C 
HETATM   18  C   UNL     1     -43.863  56.802 -60.346  1.00  0.00     0.000 C 
HETATM   19  C   UNL     1     -42.592  56.791 -59.509  1.00  0.00     0.002 C 
HETATM   20  C   UNL     1     -42.901  56.423 -58.064  1.00  0.00     0.025 C 
ENDBRANCH   8  15
ENDBRANCH   1   7
BRANCH   5  21
HETATM   21  C   UNL     1     -41.125  54.096 -53.446  1.00  0.00    -0.005 A 
HETATM   22  C   UNL     1     -40.771  53.092 -54.361  1.00  0.00     0.016 A 
HETATM   23  C   UNL     1     -40.148  51.915 -53.935  1.00  0.00     0.037 A 
HETATM   24  C   UNL     1     -39.881  51.737 -52.583  1.00  0.00     0.065 A 
HETATM   25  C   UNL     1     -40.227  52.713 -51.657  1.00  0.00     0.037 A 
HETATM   26  C   UNL     1     -40.848  53.890 -52.086  1.00  0.00     0.016 A 
BRANCH  24  27
HETATM   27  O   UNL     1     -39.276  50.608 -52.120  1.00  0.00    -0.361 OA
HETATM   28  H   UNL     1     -39.923  50.105 -51.598  1.00  0.00     0.217 HD
ENDBRANCH  24  27
ENDBRANCH   5  21
TORSDOF 8
ENDMDL
