MODEL 1
REMARK VINA RESULT:     -10.1      0.000      0.000
REMARK  4 active torsions:
REMARK  status: ('A' for Active; 'I' for Inactive)
REMARK    1  A    between atoms: C_4  and  C_5 
REMARK    2  A    between atoms: C_16  and  C_17 
REMARK    3  A    between atoms: C_20  and  C_21 
REMARK    4  A    between atoms: C_21  and  N_22 
REMARK       I    between atoms: N_22  and  C_23 
REMARK       I    between atoms: C_23  and  N_24 
ROOT
HETATM    1  C   UNL     1     -43.287  57.490 -57.795  1.00  0.00     0.067 C 
HETATM    2  C   UNL     1     -42.097  58.100 -58.562  1.00  0.00     0.001 C 
HETATM    3  C   UNL     1     -41.745  59.508 -58.035  1.00  0.00     0.040 C 
HETATM    4  C   UNL     1     -42.922  60.484 -58.203  1.00  0.00     0.206 C 
HETATM    5  N   UNL     1     -44.094  59.666 -58.717  1.00  0.00    -0.065 N 
HETATM    6  H   UNL     1     -44.926  60.297 -58.725  1.00  0.00     0.280 HD
HETATM    7  C   UNL     1     -44.460  58.509 -57.813  1.00  0.00     0.246 C 
HETATM    8  C   UNL     1     -42.557  58.284 -60.036  1.00  0.00     0.033 C 
HETATM    9  C   UNL     1     -43.815  59.161 -60.108  1.00  0.00     0.236 C 
ENDROOT
BRANCH   1  10
HETATM   10  C   UNL     1     -43.132  56.930 -56.403  1.00  0.00     0.038 C 
HETATM   11  N   UNL     1     -43.890  57.051 -55.261  1.00  0.00    -0.277 N 
HETATM   12  C   UNL     1     -44.975  57.938 -54.915  1.00  0.00     0.179 C 
HETATM   13  N   UNL     1     -43.544  56.162 -54.310  1.00  0.00    -0.172 NA
HETATM   14  C   UNL     1     -42.389  55.628 -54.719  1.00  0.00     0.089 C 
HETATM   15  C   UNL     1     -42.085  56.104 -56.013  1.00  0.00     0.061 C 
BRANCH  14  16
HETATM   16  C   UNL     1     -41.642  54.643 -53.936  1.00  0.00    -0.005 A 
HETATM   17  C   UNL     1     -41.292  53.406 -54.498  1.00  0.00     0.026 A 
HETATM   18  C   UNL     1     -40.645  52.415 -53.737  1.00  0.00    -0.025 A 
HETATM   19  C   UNL     1     -40.337  52.675 -52.383  1.00  0.00    -0.026 A 
HETATM   20  C   UNL     1     -40.308  51.170 -54.292  1.00  0.00     0.012 A 
HETATM   21  C   UNL     1     -40.664  53.924 -51.832  1.00  0.00     0.013 A 
HETATM   22  C   UNL     1     -39.712  51.676 -51.619  1.00  0.00     0.012 A 
HETATM   23  C   UNL     1     -41.307  54.899 -52.603  1.00  0.00     0.014 A 
HETATM   24  C   UNL     1     -39.391  50.441 -52.184  1.00  0.00     0.001 A 
HETATM   25  C   UNL     1     -39.687  50.189 -53.520  1.00  0.00     0.001 A 
ENDBRANCH  14  16
ENDBRANCH   1  10
BRANCH   4  26
HETATM   26  C   UNL     1     -43.220  61.261 -56.895  1.00  0.00     0.157 C 
BRANCH  26  27
HETATM   27  N   UNL     1     -42.404  60.930 -55.739  1.00  0.00    -0.341 N 
HETATM   28  C   UNL     1     -42.838  60.937 -54.446  1.00  0.00     0.318 C 
HETATM   29  N   UNL     1     -42.046  60.249 -53.550  1.00  0.00    -0.330 N 
HETATM   30  O   UNL     1     -43.861  61.544 -54.132  1.00  0.00    -0.247 OA
HETATM   31  C   UNL     1     -41.263  59.059 -53.932  1.00  0.00     0.153 C 
HETATM   32  C   UNL     1     -42.512  60.210 -52.157  1.00  0.00     0.153 C 
HETATM   33  C   UNL     1     -40.204  58.706 -52.884  1.00  0.00     0.187 C 
HETATM   34  O   UNL     1     -40.790  58.578 -51.584  1.00  0.00    -0.388 OA
HETATM   35  C   UNL     1     -41.399  59.814 -51.187  1.00  0.00     0.187 C 
HETATM   36  H   UNL     1     -41.427  60.726 -55.893  1.00  0.00     0.164 HD
ENDBRANCH  26  27
ENDBRANCH   4  26
TORSDOF 4
ENDMDL
MODEL 2
REMARK VINA RESULT:     -10.0      2.626      5.318
REMARK  4 active torsions:
REMARK  status: ('A' for Active; 'I' for Inactive)
REMARK    1  A    between atoms: C_4  and  C_5 
REMARK    2  A    between atoms: C_16  and  C_17 
REMARK    3  A    between atoms: C_20  and  C_21 
REMARK    4  A    between atoms: C_21  and  N_22 
REMARK       I    between atoms: N_22  and  C_23 
REMARK       I    between atoms: C_23  and  N_24 
ROOT
HETATM    1  C   UNL     1     -43.300  59.300 -52.529  1.00  0.00     0.067 C 
HETATM    2  C   UNL     1     -44.715  59.064 -53.095  1.00  0.00     0.001 C 
HETATM    3  C   UNL     1     -44.678  58.776 -54.612  1.00  0.00     0.040 C 
HETATM    4  C   UNL     1     -44.081  59.956 -55.397  1.00  0.00     0.206 C 
HETATM    5  N   UNL     1     -43.601  60.964 -54.367  1.00  0.00    -0.065 N 
HETATM    6  H   UNL     1     -43.094  61.714 -54.887  1.00  0.00     0.280 HD
HETATM    7  C   UNL     1     -42.601  60.390 -53.388  1.00  0.00     0.246 C 
HETATM    8  C   UNL     1     -45.498  60.397 -52.921  1.00  0.00     0.033 C 
HETATM    9  C   UNL     1     -44.769  61.553 -53.620  1.00  0.00     0.236 C 
ENDROOT
BRANCH   1  10
HETATM   10  C   UNL     1     -42.342  58.161 -52.288  1.00  0.00     0.038 C 
HETATM   11  N   UNL     1     -41.410  57.921 -51.305  1.00  0.00    -0.277 N 
HETATM   12  C   UNL     1     -40.846  58.770 -50.283  1.00  0.00     0.179 C 
HETATM   13  N   UNL     1     -40.961  56.650 -51.313  1.00  0.00    -0.172 NA
HETATM   14  C   UNL     1     -41.400  56.119 -52.459  1.00  0.00     0.089 C 
HETATM   15  C   UNL     1     -42.245  57.044 -53.110  1.00  0.00     0.061 C 
BRANCH  14  16
HETATM   16  C   UNL     1     -41.083  54.754 -52.880  1.00  0.00    -0.005 A 
HETATM   17  C   UNL     1     -40.691  53.792 -51.937  1.00  0.00     0.026 A 
HETATM   18  C   UNL     1     -40.305  52.498 -52.331  1.00  0.00    -0.025 A 
HETATM   19  C   UNL     1     -40.320  52.160 -53.702  1.00  0.00    -0.026 A 
HETATM   20  C   UNL     1     -39.897  51.539 -51.390  1.00  0.00     0.012 A 
HETATM   21  C   UNL     1     -40.740  53.116 -54.640  1.00  0.00     0.013 A 
HETATM   22  C   UNL     1     -39.913  50.875 -54.095  1.00  0.00     0.012 A 
HETATM   23  C   UNL     1     -41.121  54.399 -54.231  1.00  0.00     0.014 A 
HETATM   24  C   UNL     1     -39.502  49.935 -53.149  1.00  0.00     0.001 A 
HETATM   25  C   UNL     1     -39.496  50.266 -51.797  1.00  0.00     0.001 A 
ENDBRANCH  14  16
ENDBRANCH   1  10
BRANCH   4  26
HETATM   26  C   UNL     1     -42.982  59.495 -56.389  1.00  0.00     0.157 C 
BRANCH  26  27
HETATM   27  N   UNL     1     -43.425  58.733 -57.545  1.00  0.00    -0.341 N 
HETATM   28  C   UNL     1     -43.229  57.396 -57.723  1.00  0.00     0.318 C 
HETATM   29  N   UNL     1     -44.028  56.800 -58.677  1.00  0.00    -0.330 N 
HETATM   30  O   UNL     1     -42.373  56.796 -57.074  1.00  0.00    -0.247 OA
HETATM   31  C   UNL     1     -45.395  57.269 -58.974  1.00  0.00     0.153 C 
HETATM   32  C   UNL     1     -43.862  55.352 -58.862  1.00  0.00     0.153 C 
HETATM   33  C   UNL     1     -45.924  56.700 -60.294  1.00  0.00     0.187 C 
HETATM   34  O   UNL     1     -45.821  55.272 -60.315  1.00  0.00    -0.388 OA
HETATM   35  C   UNL     1     -44.452  54.869 -60.187  1.00  0.00     0.187 C 
HETATM   36  H   UNL     1     -43.869  59.236 -58.300  1.00  0.00     0.164 HD
ENDBRANCH  26  27
ENDBRANCH   4  26
TORSDOF 4
ENDMDL
MODEL 3
REMARK VINA RESULT:      -9.9      3.072      4.605
REMARK  4 active torsions:
REMARK  status: ('A' for Active; 'I' for Inactive)
REMARK    1  A    between atoms: C_4  and  C_5 
REMARK    2  A    between atoms: C_16  and  C_17 
REMARK    3  A    between atoms: C_20  and  C_21 
REMARK    4  A    between atoms: C_21  and  N_22 
REMARK       I    between atoms: N_22  and  C_23 
REMARK       I    between atoms: C_23  and  N_24 
ROOT
HETATM    1  C   UNL     1     -43.534  56.388 -57.929  1.00  0.00     0.067 C 
HETATM    2  C   UNL     1     -42.901  56.361 -59.335  1.00  0.00     0.001 C 
HETATM    3  C   UNL     1     -42.173  57.684 -59.655  1.00  0.00     0.040 C 
HETATM    4  C   UNL     1     -43.140  58.880 -59.631  1.00  0.00     0.206 C 
HETATM    5  N   UNL     1     -44.481  58.346 -59.157  1.00  0.00    -0.065 N 
HETATM    6  H   UNL     1     -45.110  59.170 -59.030  1.00  0.00     0.280 HD
HETATM    7  C   UNL     1     -44.410  57.666 -57.807  1.00  0.00     0.246 C 
HETATM    8  C   UNL     1     -44.071  56.245 -60.353  1.00  0.00     0.033 C 
HETATM    9  C   UNL     1     -45.063  57.403 -60.177  1.00  0.00     0.236 C 
ENDROOT
BRANCH   1  10
HETATM   10  C   UNL     1     -42.701  56.233 -56.681  1.00  0.00     0.038 C 
HETATM   11  N   UNL     1     -42.284  57.127 -55.723  1.00  0.00    -0.277 N 
HETATM   12  C   UNL     1     -42.291  58.570 -55.683  1.00  0.00     0.179 C 
HETATM   13  N   UNL     1     -41.789  56.521 -54.625  1.00  0.00    -0.172 NA
HETATM   14  C   UNL     1     -41.638  55.236 -54.960  1.00  0.00     0.089 C 
HETATM   15  C   UNL     1     -42.173  55.022 -56.249  1.00  0.00     0.061 C 
BRANCH  14  16
HETATM   16  C   UNL     1     -41.073  54.236 -54.054  1.00  0.00    -0.005 A 
HETATM   17  C   UNL     1     -40.785  52.942 -54.515  1.00  0.00     0.026 A 
HETATM   18  C   UNL     1     -40.317  51.943 -53.642  1.00  0.00    -0.025 A 
HETATM   19  C   UNL     1     -40.126  52.252 -52.277  1.00  0.00    -0.026 A 
HETATM   20  C   UNL     1     -40.044  50.643 -54.098  1.00  0.00     0.012 A 
HETATM   21  C   UNL     1     -40.388  53.555 -51.825  1.00  0.00     0.013 A 
HETATM   22  C   UNL     1     -39.681  51.248 -51.403  1.00  0.00     0.012 A 
HETATM   23  C   UNL     1     -40.853  54.537 -52.707  1.00  0.00     0.014 A 
HETATM   24  C   UNL     1     -39.422  49.958 -51.870  1.00  0.00     0.001 A 
HETATM   25  C   UNL     1     -39.600  49.657 -53.216  1.00  0.00     0.001 A 
ENDBRANCH  14  16
ENDBRANCH   1  10
BRANCH   4  26
HETATM   26  C   UNL     1     -42.590  60.053 -58.779  1.00  0.00     0.157 C 
BRANCH  26  27
HETATM   27  N   UNL     1     -42.088  61.208 -59.504  1.00  0.00    -0.341 N 
HETATM   28  C   UNL     1     -40.926  61.864 -59.224  1.00  0.00     0.318 C 
HETATM   29  N   UNL     1     -40.446  62.678 -60.229  1.00  0.00    -0.330 N 
HETATM   30  O   UNL     1     -40.380  61.732 -58.130  1.00  0.00    -0.247 OA
HETATM   31  C   UNL     1     -40.662  62.386 -61.659  1.00  0.00     0.153 C 
HETATM   32  C   UNL     1     -39.176  63.367 -59.966  1.00  0.00     0.153 C 
HETATM   33  C   UNL     1     -40.365  63.599 -62.546  1.00  0.00     0.187 C 
HETATM   34  O   UNL     1     -39.056  64.116 -62.286  1.00  0.00    -0.388 OA
HETATM   35  C   UNL     1     -38.947  64.539 -60.921  1.00  0.00     0.187 C 
HETATM   36  H   UNL     1     -42.663  61.589 -60.242  1.00  0.00     0.164 HD
ENDBRANCH  26  27
ENDBRANCH   4  26
TORSDOF 4
ENDMDL
MODEL 4
REMARK VINA RESULT:      -9.7      1.328      1.737
REMARK  4 active torsions:
REMARK  status: ('A' for Active; 'I' for Inactive)
REMARK    1  A    between atoms: C_4  and  C_5 
REMARK    2  A    between atoms: C_16  and  C_17 
REMARK    3  A    between atoms: C_20  and  C_21 
REMARK    4  A    between atoms: C_21  and  N_22 
REMARK       I    between atoms: N_22  and  C_23 
REMARK       I    between atoms: C_23  and  N_24 
ROOT
HETATM    1  C   UNL     1     -42.995  58.529 -58.706  1.00  0.00     0.067 C 
HETATM    2  C   UNL     1     -41.788  59.487 -58.764  1.00  0.00     0.001 C 
HETATM    3  C   UNL     1     -41.663  60.320 -57.469  1.00  0.00     0.040 C 
HETATM    4  C   UNL     1     -42.907  61.194 -57.238  1.00  0.00     0.206 C 
HETATM    5  N   UNL     1     -43.906  60.822 -58.320  1.00  0.00    -0.065 N 
HETATM    6  H   UNL     1     -44.794  61.328 -58.102  1.00  0.00     0.280 HD
HETATM    7  C   UNL     1     -44.259  59.351 -58.329  1.00  0.00     0.246 C 
HETATM    8  C   UNL     1     -42.069  60.499 -59.911  1.00  0.00     0.033 C 
HETATM    9  C   UNL     1     -43.395  61.236 -59.674  1.00  0.00     0.236 C 
ENDROOT
BRANCH   1  10
HETATM   10  C   UNL     1     -42.963  57.260 -57.893  1.00  0.00     0.038 C 
HETATM   11  N   UNL     1     -43.375  55.974 -58.158  1.00  0.00    -0.277 N 
HETATM   12  C   UNL     1     -44.194  55.423 -59.210  1.00  0.00     0.179 C 
HETATM   13  N   UNL     1     -42.908  55.083 -57.261  1.00  0.00    -0.172 NA
HETATM   14  C   UNL     1     -42.404  55.810 -56.259  1.00  0.00     0.089 C 
HETATM   15  C   UNL     1     -42.445  57.178 -56.606  1.00  0.00     0.061 C 
BRANCH  14  16
HETATM   16  C   UNL     1     -41.837  55.217 -55.048  1.00  0.00    -0.005 A 
HETATM   17  C   UNL     1     -41.131  54.005 -55.113  1.00  0.00     0.026 A 
HETATM   18  C   UNL     1     -40.649  53.378 -53.950  1.00  0.00    -0.025 A 
HETATM   19  C   UNL     1     -40.873  53.984 -52.694  1.00  0.00    -0.026 A 
HETATM   20  C   UNL     1     -39.956  52.158 -54.012  1.00  0.00     0.012 A 
HETATM   21  C   UNL     1     -41.556  55.208 -52.635  1.00  0.00     0.013 A 
HETATM   22  C   UNL     1     -40.411  53.344 -51.533  1.00  0.00     0.012 A 
HETATM   23  C   UNL     1     -42.029  55.820 -53.801  1.00  0.00     0.014 A 
HETATM   24  C   UNL     1     -39.731  52.128 -51.610  1.00  0.00     0.001 A 
HETATM   25  C   UNL     1     -39.501  51.537 -52.849  1.00  0.00     0.001 A 
ENDBRANCH  14  16
ENDBRANCH   1  10
BRANCH   4  26
HETATM   26  C   UNL     1     -43.456  61.049 -55.795  1.00  0.00     0.157 C 
BRANCH  26  27
HETATM   27  N   UNL     1     -42.477  60.816 -54.745  1.00  0.00    -0.341 N 
HETATM   28  C   UNL     1     -42.767  60.687 -53.419  1.00  0.00     0.318 C 
HETATM   29  N   UNL     1     -41.779  60.111 -52.648  1.00  0.00    -0.330 N 
HETATM   30  O   UNL     1     -43.840  61.089 -52.971  1.00  0.00    -0.247 OA
HETATM   31  C   UNL     1     -40.848  59.096 -53.178  1.00  0.00     0.153 C 
HETATM   32  C   UNL     1     -42.082  59.928 -51.222  1.00  0.00     0.153 C 
HETATM   33  C   UNL     1     -39.639  58.889 -52.261  1.00  0.00     0.187 C 
HETATM   34  O   UNL     1     -40.055  58.602 -50.921  1.00  0.00    -0.388 OA
HETATM   35  C   UNL     1     -40.821  59.691 -50.391  1.00  0.00     0.187 C 
HETATM   36  H   UNL     1     -41.502  60.795 -55.005  1.00  0.00     0.164 HD
ENDBRANCH  26  27
ENDBRANCH   4  26
TORSDOF 4
ENDMDL
MODEL 5
REMARK VINA RESULT:      -9.6      4.006      5.549
REMARK  4 active torsions:
REMARK  status: ('A' for Active; 'I' for Inactive)
REMARK    1  A    between atoms: C_4  and  C_5 
REMARK    2  A    between atoms: C_16  and  C_17 
REMARK    3  A    between atoms: C_20  and  C_21 
REMARK    4  A    between atoms: C_21  and  N_22 
REMARK       I    between atoms: N_22  and  C_23 
REMARK       I    between atoms: C_23  and  N_24 
ROOT
HETATM    1  C   UNL     1     -43.574  58.443 -53.003  1.00  0.00     0.067 C 
HETATM    2  C   UNL     1     -43.220  59.743 -53.753  1.00  0.00     0.001 C 
HETATM    3  C   UNL     1     -42.835  60.875 -52.775  1.00  0.00     0.040 C 
HETATM    4  C   UNL     1     -43.994  61.218 -51.824  1.00  0.00     0.206 C 
HETATM    5  N   UNL     1     -45.094  60.206 -52.097  1.00  0.00    -0.065 N 
HETATM    6  H   UNL     1     -45.836  60.361 -51.378  1.00  0.00     0.280 HD
HETATM    7  C   UNL     1     -44.643  58.772 -51.924  1.00  0.00     0.246 C 
HETATM    8  C   UNL     1     -44.513  60.211 -54.479  1.00  0.00     0.033 C 
HETATM    9  C   UNL     1     -45.661  60.403 -53.477  1.00  0.00     0.236 C 
ENDROOT
BRANCH   1  10
HETATM   10  C   UNL     1     -42.510  57.561 -52.400  1.00  0.00     0.038 C 
HETATM   11  N   UNL     1     -41.651  57.730 -51.339  1.00  0.00    -0.277 N 
HETATM   12  C   UNL     1     -41.292  58.896 -50.567  1.00  0.00     0.179 C 
HETATM   13  N   UNL     1     -41.053  56.582 -50.965  1.00  0.00    -0.172 NA
HETATM   14  C   UNL     1     -41.315  55.705 -51.938  1.00  0.00     0.089 C 
HETATM   15  C   UNL     1     -42.203  56.289 -52.868  1.00  0.00     0.061 C 
BRANCH  14  16
HETATM   16  C   UNL     1     -40.798  54.336 -51.941  1.00  0.00    -0.005 A 
HETATM   17  C   UNL     1     -40.725  53.607 -53.138  1.00  0.00     0.026 A 
HETATM   18  C   UNL     1     -40.306  52.264 -53.151  1.00  0.00    -0.025 A 
HETATM   19  C   UNL     1     -39.946  51.641 -51.935  1.00  0.00    -0.026 A 
HETATM   20  C   UNL     1     -40.248  51.527 -54.345  1.00  0.00     0.012 A 
HETATM   21  C   UNL     1     -39.994  52.382 -50.744  1.00  0.00     0.013 A 
HETATM   22  C   UNL     1     -39.551  50.294 -51.946  1.00  0.00     0.012 A 
HETATM   23  C   UNL     1     -40.412  53.717 -50.749  1.00  0.00     0.014 A 
HETATM   24  C   UNL     1     -39.506  49.573 -53.141  1.00  0.00     0.001 A 
HETATM   25  C   UNL     1     -39.852  50.190 -54.339  1.00  0.00     0.001 A 
ENDBRANCH  14  16
ENDBRANCH   1  10
BRANCH   4  26
HETATM   26  C   UNL     1     -43.533  61.267 -50.344  1.00  0.00     0.157 C 
BRANCH  26  27
HETATM   27  N   UNL     1     -44.333  62.074 -49.438  1.00  0.00    -0.341 N 
HETATM   28  C   UNL     1     -45.354  61.605 -48.665  1.00  0.00     0.318 C 
HETATM   29  N   UNL     1     -45.734  62.423 -47.622  1.00  0.00    -0.330 N 
HETATM   30  O   UNL     1     -45.891  60.529 -48.922  1.00  0.00    -0.247 OA
HETATM   31  C   UNL     1     -44.785  63.310 -46.921  1.00  0.00     0.153 C 
HETATM   32  C   UNL     1     -46.807  61.923 -46.751  1.00  0.00     0.153 C 
HETATM   33  C   UNL     1     -45.502  64.364 -46.072  1.00  0.00     0.187 C 
HETATM   34  O   UNL     1     -46.439  63.754 -45.179  1.00  0.00    -0.388 OA
HETATM   35  C   UNL     1     -47.438  63.038 -45.916  1.00  0.00     0.187 C 
HETATM   36  H   UNL     1     -44.157  63.068 -49.411  1.00  0.00     0.164 HD
ENDBRANCH  26  27
ENDBRANCH   4  26
TORSDOF 4
ENDMDL
MODEL 6
REMARK VINA RESULT:      -9.4      2.831      5.045
REMARK  4 active torsions:
REMARK  status: ('A' for Active; 'I' for Inactive)
REMARK    1  A    between atoms: C_4  and  C_5 
REMARK    2  A    between atoms: C_16  and  C_17 
REMARK    3  A    between atoms: C_20  and  C_21 
REMARK    4  A    between atoms: C_21  and  N_22 
REMARK       I    between atoms: N_22  and  C_23 
REMARK       I    between atoms: C_23  and  N_24 
ROOT
HETATM    1  C   UNL     1     -42.013  58.550 -55.293  1.00  0.00     0.067 C 
HETATM    2  C   UNL     1     -42.494  59.989 -55.019  1.00  0.00     0.001 C 
HETATM    3  C   UNL     1     -44.033  60.066 -54.930  1.00  0.00     0.040 C 
HETATM    4  C   UNL     1     -44.697  59.624 -56.246  1.00  0.00     0.206 C 
HETATM    5  N   UNL     1     -43.582  59.126 -57.149  1.00  0.00    -0.065 N 
HETATM    6  H   UNL     1     -44.035  58.720 -57.998  1.00  0.00     0.280 HD
HETATM    7  C   UNL     1     -42.770  58.006 -56.537  1.00  0.00     0.246 C 
HETATM    8  C   UNL     1     -42.081  60.845 -56.250  1.00  0.00     0.033 C 
HETATM    9  C   UNL     1     -42.675  60.262 -57.542  1.00  0.00     0.236 C 
ENDROOT
BRANCH   1  10
HETATM   10  C   UNL     1     -42.002  57.498 -54.214  1.00  0.00     0.038 C 
HETATM   11  N   UNL     1     -42.814  57.271 -53.126  1.00  0.00    -0.277 N 
HETATM   12  C   UNL     1     -43.823  58.085 -52.491  1.00  0.00     0.179 C 
HETATM   13  N   UNL     1     -42.619  56.057 -52.575  1.00  0.00    -0.172 NA
HETATM   14  C   UNL     1     -41.502  55.582 -53.134  1.00  0.00     0.089 C 
HETATM   15  C   UNL     1     -41.071  56.468 -54.145  1.00  0.00     0.061 C 
BRANCH  14  16
HETATM   16  C   UNL     1     -40.909  54.296 -52.767  1.00  0.00    -0.005 A 
HETATM   17  C   UNL     1     -40.765  53.280 -53.725  1.00  0.00     0.026 A 
HETATM   18  C   UNL     1     -40.273  52.010 -53.375  1.00  0.00    -0.025 A 
HETATM   19  C   UNL     1     -39.910  51.755 -52.033  1.00  0.00    -0.026 A 
HETATM   20  C   UNL     1     -40.144  50.988 -54.328  1.00  0.00     0.012 A 
HETATM   21  C   UNL     1     -40.029  52.782 -51.084  1.00  0.00     0.013 A 
HETATM   22  C   UNL     1     -39.441  50.480 -51.681  1.00  0.00     0.012 A 
HETATM   23  C   UNL     1     -40.520  54.040 -51.449  1.00  0.00     0.014 A 
HETATM   24  C   UNL     1     -39.326  49.472 -52.640  1.00  0.00     0.001 A 
HETATM   25  C   UNL     1     -39.674  49.726 -53.962  1.00  0.00     0.001 A 
ENDBRANCH  14  16
ENDBRANCH   1  10
BRANCH   4  26
HETATM   26  C   UNL     1     -45.825  58.587 -56.005  1.00  0.00     0.157 C 
BRANCH  26  27
HETATM   27  N   UNL     1     -46.137  57.695 -57.109  1.00  0.00    -0.341 N 
HETATM   28  C   UNL     1     -46.814  58.052 -58.237  1.00  0.00     0.318 C 
HETATM   29  N   UNL     1     -46.688  57.189 -59.305  1.00  0.00    -0.330 N 
HETATM   30  O   UNL     1     -47.501  59.073 -58.259  1.00  0.00    -0.247 OA
HETATM   31  C   UNL     1     -45.468  56.392 -59.543  1.00  0.00     0.153 C 
HETATM   32  C   UNL     1     -47.378  57.571 -60.544  1.00  0.00     0.153 C 
HETATM   33  C   UNL     1     -45.706  55.263 -60.550  1.00  0.00     0.187 C 
HETATM   34  O   UNL     1     -46.272  55.768 -61.763  1.00  0.00    -0.388 OA
HETATM   35  C   UNL     1     -47.537  56.390 -61.503  1.00  0.00     0.187 C 
HETATM   36  H   UNL     1     -45.879  56.723 -57.018  1.00  0.00     0.164 HD
ENDBRANCH  26  27
ENDBRANCH   4  26
TORSDOF 4
ENDMDL
MODEL 7
REMARK VINA RESULT:      -9.4      2.288      5.129
REMARK  4 active torsions:
REMARK  status: ('A' for Active; 'I' for Inactive)
REMARK    1  A    between atoms: C_4  and  C_5 
REMARK    2  A    between atoms: C_16  and  C_17 
REMARK    3  A    between atoms: C_20  and  C_21 
REMARK    4  A    between atoms: C_21  and  N_22 
REMARK       I    between atoms: N_22  and  C_23 
REMARK       I    between atoms: C_23  and  N_24 
ROOT
HETATM    1  C   UNL     1     -43.270  58.655 -51.352  1.00  0.00     0.067 C 
HETATM    2  C   UNL     1     -44.810  58.568 -51.348  1.00  0.00     0.001 C 
HETATM    3  C   UNL     1     -45.406  58.989 -52.709  1.00  0.00     0.040 C 
HETATM    4  C   UNL     1     -45.049  60.445 -53.054  1.00  0.00     0.206 C 
HETATM    5  N   UNL     1     -44.099  60.928 -51.972  1.00  0.00    -0.065 N 
HETATM    6  H   UNL     1     -43.765  61.874 -52.260  1.00  0.00     0.280 HD
HETATM    7  C   UNL     1     -42.859  60.073 -51.839  1.00  0.00     0.246 C 
HETATM    8  C   UNL     1     -45.318  59.605 -50.306  1.00  0.00     0.033 C 
HETATM    9  C   UNL     1     -44.810  61.013 -50.647  1.00  0.00     0.236 C 
ENDROOT
BRANCH   1  10
HETATM   10  C   UNL     1     -42.419  57.622 -52.044  1.00  0.00     0.038 C 
HETATM   11  N   UNL     1     -41.572  57.687 -53.127  1.00  0.00    -0.277 N 
HETATM   12  C   UNL     1     -41.371  58.703 -54.132  1.00  0.00     0.179 C 
HETATM   13  N   UNL     1     -40.793  56.594 -53.245  1.00  0.00    -0.172 NA
HETATM   14  C   UNL     1     -41.302  55.695 -52.397  1.00  0.00     0.089 C 
HETATM   15  C   UNL     1     -42.338  56.292 -51.647  1.00  0.00     0.061 C 
BRANCH  14  16
HETATM   16  C   UNL     1     -40.770  54.339 -52.256  1.00  0.00    -0.005 A 
HETATM   17  C   UNL     1     -40.714  53.479 -53.363  1.00  0.00     0.026 A 
HETATM   18  C   UNL     1     -40.282  52.146 -53.232  1.00  0.00    -0.025 A 
HETATM   19  C   UNL     1     -39.891  51.668 -51.961  1.00  0.00    -0.026 A 
HETATM   20  C   UNL     1     -40.240  51.280 -54.336  1.00  0.00     0.012 A 
HETATM   21  C   UNL     1     -39.923  52.539 -50.862  1.00  0.00     0.013 A 
HETATM   22  C   UNL     1     -39.483  50.332 -51.828  1.00  0.00     0.012 A 
HETATM   23  C   UNL     1     -40.355  53.862 -51.009  1.00  0.00     0.014 A 
HETATM   24  C   UNL     1     -39.454  49.480 -52.934  1.00  0.00     0.001 A 
HETATM   25  C   UNL     1     -39.830  49.955 -54.187  1.00  0.00     0.001 A 
ENDBRANCH  14  16
ENDBRANCH   1  10
BRANCH   4  26
HETATM   26  C   UNL     1     -44.487  60.577 -54.493  1.00  0.00     0.157 C 
BRANCH  26  27
HETATM   27  N   UNL     1     -44.508  59.377 -55.315  1.00  0.00    -0.341 N 
HETATM   28  C   UNL     1     -45.025  59.300 -56.574  1.00  0.00     0.318 C 
HETATM   29  N   UNL     1     -44.626  58.206 -57.314  1.00  0.00    -0.330 N 
HETATM   30  O   UNL     1     -45.810  60.154 -56.982  1.00  0.00    -0.247 OA
HETATM   31  C   UNL     1     -43.301  57.577 -57.150  1.00  0.00     0.153 C 
HETATM   32  C   UNL     1     -45.140  58.120 -58.687  1.00  0.00     0.153 C 
HETATM   33  C   UNL     1     -43.238  56.192 -57.800  1.00  0.00     0.187 C 
HETATM   34  O   UNL     1     -43.649  56.248 -59.170  1.00  0.00    -0.388 OA
HETATM   35  C   UNL     1     -45.002  56.711 -59.267  1.00  0.00     0.187 C 
HETATM   36  H   UNL     1     -44.159  58.521 -54.909  1.00  0.00     0.164 HD
ENDBRANCH  26  27
ENDBRANCH   4  26
TORSDOF 4
ENDMDL
MODEL 8
REMARK VINA RESULT:      -9.4      2.375      5.036
REMARK  4 active torsions:
REMARK  status: ('A' for Active; 'I' for Inactive)
REMARK    1  A    between atoms: C_4  and  C_5 
REMARK    2  A    between atoms: C_16  and  C_17 
REMARK    3  A    between atoms: C_20  and  C_21 
REMARK    4  A    between atoms: C_21  and  N_22 
REMARK       I    between atoms: N_22  and  C_23 
REMARK       I    between atoms: C_23  and  N_24 
ROOT
HETATM    1  C   UNL     1     -43.471  58.636 -51.893  1.00  0.00     0.067 C 
HETATM    2  C   UNL     1     -44.862  58.110 -52.301  1.00  0.00     0.001 C 
HETATM    3  C   UNL     1     -44.872  57.602 -53.759  1.00  0.00     0.040 C 
HETATM    4  C   UNL     1     -44.519  58.725 -54.750  1.00  0.00     0.206 C 
HETATM    5  N   UNL     1     -44.143  59.938 -53.916  1.00  0.00    -0.065 N 
HETATM    6  H   UNL     1     -43.794  60.666 -54.578  1.00  0.00     0.280 HD
HETATM    7  C   UNL     1     -43.006  59.673 -52.953  1.00  0.00     0.246 C 
HETATM    8  C   UNL     1     -45.835  59.323 -52.251  1.00  0.00     0.033 C 
HETATM    9  C   UNL     1     -45.342  60.454 -53.166  1.00  0.00     0.236 C 
ENDROOT
BRANCH   1  10
HETATM   10  C   UNL     1     -42.331  57.701 -51.575  1.00  0.00     0.038 C 
HETATM   11  N   UNL     1     -41.236  57.815 -50.750  1.00  0.00    -0.277 N 
HETATM   12  C   UNL     1     -40.656  58.949 -50.072  1.00  0.00     0.179 C 
HETATM   13  N   UNL     1     -40.614  56.637 -50.546  1.00  0.00    -0.172 NA
HETATM   14  C   UNL     1     -41.138  55.793 -51.440  1.00  0.00     0.089 C 
HETATM   15  C   UNL     1     -42.198  56.430 -52.121  1.00  0.00     0.061 C 
BRANCH  14  16
HETATM   16  C   UNL     1     -40.693  54.406 -51.585  1.00  0.00    -0.005 A 
HETATM   17  C   UNL     1     -40.647  53.804 -52.852  1.00  0.00     0.026 A 
HETATM   18  C   UNL     1     -40.300  52.450 -53.005  1.00  0.00    -0.025 A 
HETATM   19  C   UNL     1     -39.984  51.684 -51.860  1.00  0.00    -0.026 A 
HETATM   20  C   UNL     1     -40.269  51.841 -54.270  1.00  0.00     0.012 A 
HETATM   21  C   UNL     1     -40.004  52.297 -50.598  1.00  0.00     0.013 A 
HETATM   22  C   UNL     1     -39.660  50.326 -52.012  1.00  0.00     0.012 A 
HETATM   23  C   UNL     1     -40.351  53.646 -50.464  1.00  0.00     0.014 A 
HETATM   24  C   UNL     1     -39.642  49.734 -53.276  1.00  0.00     0.001 A 
HETATM   25  C   UNL     1     -39.943  50.491 -54.404  1.00  0.00     0.001 A 
ENDBRANCH  14  16
ENDBRANCH   1  10
BRANCH   4  26
HETATM   26  C   UNL     1     -43.423  58.286 -55.755  1.00  0.00     0.157 C 
BRANCH  26  27
HETATM   27  N   UNL     1     -43.245  59.120 -56.932  1.00  0.00    -0.341 N 
HETATM   28  C   UNL     1     -42.296  60.089 -57.069  1.00  0.00     0.318 C 
HETATM   29  N   UNL     1     -42.050  60.502 -58.362  1.00  0.00    -0.330 N 
HETATM   30  O   UNL     1     -41.729  60.555 -56.082  1.00  0.00    -0.247 OA
HETATM   31  C   UNL     1     -42.188  59.603 -59.524  1.00  0.00     0.153 C 
HETATM   32  C   UNL     1     -41.005  61.519 -58.540  1.00  0.00     0.153 C 
HETATM   33  C   UNL     1     -42.224  60.373 -60.847  1.00  0.00     0.187 C 
HETATM   34  O   UNL     1     -41.095  61.246 -60.964  1.00  0.00    -0.388 OA
HETATM   35  C   UNL     1     -41.096  62.208 -59.902  1.00  0.00     0.187 C 
HETATM   36  H   UNL     1     -43.904  59.013 -57.691  1.00  0.00     0.164 HD
ENDBRANCH  26  27
ENDBRANCH   4  26
TORSDOF 4
ENDMDL
MODEL 9
REMARK VINA RESULT:      -9.2      2.134      3.587
REMARK  4 active torsions:
REMARK  status: ('A' for Active; 'I' for Inactive)
REMARK    1  A    between atoms: C_4  and  C_5 
REMARK    2  A    between atoms: C_16  and  C_17 
REMARK    3  A    between atoms: C_20  and  C_21 
REMARK    4  A    between atoms: C_21  and  N_22 
REMARK       I    between atoms: N_22  and  C_23 
REMARK       I    between atoms: C_23  and  N_24 
ROOT
HETATM    1  C   UNL     1     -43.257  57.733 -55.762  1.00  0.00     0.067 C 
HETATM    2  C   UNL     1     -43.134  59.267 -55.855  1.00  0.00     0.001 C 
HETATM    3  C   UNL     1     -43.530  59.949 -54.527  1.00  0.00     0.040 C 
HETATM    4  C   UNL     1     -44.990  59.647 -54.150  1.00  0.00     0.206 C 
HETATM    5  N   UNL     1     -45.505  58.649 -55.173  1.00  0.00    -0.065 N 
HETATM    6  H   UNL     1     -46.456  58.353 -54.859  1.00  0.00     0.280 HD
HETATM    7  C   UNL     1     -44.679  57.383 -55.242  1.00  0.00     0.246 C 
HETATM    8  C   UNL     1     -44.168  59.739 -56.916  1.00  0.00     0.033 C 
HETATM    9  C   UNL     1     -45.585  59.284 -56.536  1.00  0.00     0.236 C 
ENDROOT
BRANCH   1  10
HETATM   10  C   UNL     1     -42.237  56.898 -55.030  1.00  0.00     0.038 C 
HETATM   11  N   UNL     1     -41.249  57.216 -54.127  1.00  0.00    -0.277 N 
HETATM   12  C   UNL     1     -40.677  58.480 -53.730  1.00  0.00     0.179 C 
HETATM   13  N   UNL     1     -40.743  56.132 -53.505  1.00  0.00    -0.172 NA
HETATM   14  C   UNL     1     -41.211  55.078 -54.181  1.00  0.00     0.089 C 
HETATM   15  C   UNL     1     -42.128  55.519 -55.160  1.00  0.00     0.061 C 
BRANCH  14  16
HETATM   16  C   UNL     1     -40.853  53.697 -53.855  1.00  0.00    -0.005 A 
HETATM   17  C   UNL     1     -40.706  53.297 -52.518  1.00  0.00     0.026 A 
HETATM   18  C   UNL     1     -40.284  51.997 -52.187  1.00  0.00    -0.025 A 
HETATM   19  C   UNL     1     -40.011  51.074 -53.221  1.00  0.00    -0.026 A 
HETATM   20  C   UNL     1     -40.121  51.600 -50.850  1.00  0.00     0.012 A 
HETATM   21  C   UNL     1     -40.185  51.470 -54.556  1.00  0.00     0.013 A 
HETATM   22  C   UNL     1     -39.567  49.785 -52.889  1.00  0.00     0.012 A 
HETATM   23  C   UNL     1     -40.606  52.767 -54.869  1.00  0.00     0.014 A 
HETATM   24  C   UNL     1     -39.402  49.408 -51.555  1.00  0.00     0.001 A 
HETATM   25  C   UNL     1     -39.682  50.313 -50.537  1.00  0.00     0.001 A 
ENDBRANCH  14  16
ENDBRANCH   1  10
BRANCH   4  26
HETATM   26  C   UNL     1     -45.122  59.170 -52.681  1.00  0.00     0.157 C 
BRANCH  26  27
HETATM   27  N   UNL     1     -44.332  58.012 -52.297  1.00  0.00    -0.341 N 
HETATM   28  C   UNL     1     -43.272  58.035 -51.440  1.00  0.00     0.318 C 
HETATM   29  N   UNL     1     -42.899  56.812 -50.923  1.00  0.00    -0.330 N 
HETATM   30  O   UNL     1     -42.698  59.092 -51.184  1.00  0.00    -0.247 OA
HETATM   31  C   UNL     1     -43.865  55.723 -50.681  1.00  0.00     0.153 C 
HETATM   32  C   UNL     1     -41.783  56.816 -49.968  1.00  0.00     0.153 C 
HETATM   33  C   UNL     1     -43.170  54.376 -50.461  1.00  0.00     0.187 C 
HETATM   34  O   UNL     1     -42.184  54.470 -49.428  1.00  0.00    -0.388 OA
HETATM   35  C   UNL     1     -41.176  55.424 -49.784  1.00  0.00     0.187 C 
HETATM   36  H   UNL     1     -44.549  57.127 -52.733  1.00  0.00     0.164 HD
ENDBRANCH  26  27
ENDBRANCH   4  26
TORSDOF 4
ENDMDL
MODEL 10
REMARK VINA RESULT:      -9.1      3.056      4.214
REMARK  4 active torsions:
REMARK  status: ('A' for Active; 'I' for Inactive)
REMARK    1  A    between atoms: C_4  and  C_5 
REMARK    2  A    between atoms: C_16  and  C_17 
REMARK    3  A    between atoms: C_20  and  C_21 
REMARK    4  A    between atoms: C_21  and  N_22 
REMARK       I    between atoms: N_22  and  C_23 
REMARK       I    between atoms: C_23  and  N_24 
ROOT
HETATM    1  C   UNL     1     -42.586  58.713 -55.262  1.00  0.00     0.067 C 
HETATM    2  C   UNL     1     -42.424  60.232 -55.053  1.00  0.00     0.001 C 
HETATM    3  C   UNL     1     -43.199  60.720 -53.810  1.00  0.00     0.040 C 
HETATM    4  C   UNL     1     -44.708  60.453 -53.946  1.00  0.00     0.206 C 
HETATM    5  N   UNL     1     -44.895  59.663 -55.229  1.00  0.00    -0.065 N 
HETATM    6  H   UNL     1     -45.900  59.381 -55.270  1.00  0.00     0.280 HD
HETATM    7  C   UNL     1     -44.103  58.375 -55.260  1.00  0.00     0.246 C 
HETATM    8  C   UNL     1     -43.077  60.929 -56.280  1.00  0.00     0.033 C 
HETATM    9  C   UNL     1     -44.547  60.509 -56.425  1.00  0.00     0.236 C 
ENDROOT
BRANCH   1  10
HETATM   10  C   UNL     1     -41.849  57.711 -54.410  1.00  0.00     0.038 C 
HETATM   11  N   UNL     1     -41.272  57.795 -53.163  1.00  0.00    -0.277 N 
HETATM   12  C   UNL     1     -40.958  58.924 -52.321  1.00  0.00     0.179 C 
HETATM   13  N   UNL     1     -40.960  56.587 -52.653  1.00  0.00    -0.172 NA
HETATM   14  C   UNL     1     -41.089  55.723 -53.664  1.00  0.00     0.089 C 
HETATM   15  C   UNL     1     -41.618  56.394 -54.788  1.00  0.00     0.061 C 
BRANCH  14  16
HETATM   16  C   UNL     1     -40.790  54.296 -53.539  1.00  0.00    -0.005 A 
HETATM   17  C   UNL     1     -40.643  53.709 -52.273  1.00  0.00     0.026 A 
HETATM   18  C   UNL     1     -40.276  52.359 -52.133  1.00  0.00    -0.025 A 
HETATM   19  C   UNL     1     -40.059  51.577 -53.290  1.00  0.00    -0.026 A 
HETATM   20  C   UNL     1     -40.112  51.773 -50.867  1.00  0.00     0.012 A 
HETATM   21  C   UNL     1     -40.234  52.161 -54.554  1.00  0.00     0.013 A 
HETATM   22  C   UNL     1     -39.670  50.236 -53.148  1.00  0.00     0.012 A 
HETATM   23  C   UNL     1     -40.600  53.506 -54.676  1.00  0.00     0.014 A 
HETATM   24  C   UNL     1     -39.504  49.671 -51.882  1.00  0.00     0.001 A 
HETATM   25  C   UNL     1     -39.727  50.438 -50.743  1.00  0.00     0.001 A 
ENDBRANCH  14  16
ENDBRANCH   1  10
BRANCH   4  26
HETATM   26  C   UNL     1     -45.289  59.760 -52.686  1.00  0.00     0.157 C 
BRANCH  26  27
HETATM   27  N   UNL     1     -45.529  60.606 -51.528  1.00  0.00    -0.341 N 
HETATM   28  C   UNL     1     -45.674  60.158 -50.249  1.00  0.00     0.318 C 
HETATM   29  N   UNL     1     -45.523  61.113 -49.264  1.00  0.00    -0.330 N 
HETATM   30  O   UNL     1     -45.944  58.979 -50.024  1.00  0.00    -0.247 OA
HETATM   31  C   UNL     1     -44.624  62.273 -49.415  1.00  0.00     0.153 C 
HETATM   32  C   UNL     1     -45.638  60.648 -47.876  1.00  0.00     0.153 C 
HETATM   33  C   UNL     1     -44.904  63.357 -48.370  1.00  0.00     0.187 C 
HETATM   34  O   UNL     1     -44.876  62.813 -47.046  1.00  0.00    -0.388 OA
HETATM   35  C   UNL     1     -45.880  61.801 -46.900  1.00  0.00     0.187 C 
HETATM   36  H   UNL     1     -45.647  61.597 -51.684  1.00  0.00     0.164 HD
ENDBRANCH  26  27
ENDBRANCH   4  26
TORSDOF 4
ENDMDL
