MODEL 1
REMARK VINA RESULT:      -7.6      0.000      0.000
REMARK  3 active torsions:
REMARK  status: ('A' for Active; 'I' for Inactive)
REMARK    1  A    between atoms: C_9  and  C_10 
REMARK    2  A    between atoms: C_16  and  C_17 
REMARK       I    between atoms: C_17  and  N_18 
REMARK    3  A    between atoms: N_18  and  C_19 
ROOT
HETATM    1  C   UNL     1     -40.757  52.941 -54.509  1.00  0.00     0.070 C 
HETATM    2  C   UNL     1     -41.004  53.862 -53.339  1.00  0.00     0.037 C 
HETATM    3  N   UNL     1     -40.230  53.609 -52.209  1.00  0.00    -0.192 N 
HETATM    4  C   UNL     1     -40.528  54.110 -50.993  1.00  0.00     0.725 A 
HETATM    5  N   UNL     1     -41.500  55.066 -50.883  1.00  0.00    -0.084 N 
HETATM    6  N   UNL     1     -41.729  55.388 -49.592  1.00  0.00    -0.149 NA
HETATM    7  C   UNL     1     -40.824  54.613 -48.983  1.00  0.00     0.275 A 
HETATM    8  N   UNL     1     -40.064  53.821 -49.805  1.00  0.00    -0.054 NA
HETATM    9  C   UNL     1     -42.226  55.633 -52.025  1.00  0.00     0.202 C 
HETATM   10  C   UNL     1     -41.956  54.830 -53.297  1.00  0.00     0.062 C 
HETATM   11  H   UNL     1     -39.601  52.810 -52.242  1.00  0.00     0.184 HD
ENDROOT
BRANCH  10  12
HETATM   12  C   UNL     1     -42.921  55.107 -54.395  1.00  0.00     0.256 C 
HETATM   13  N   UNL     1     -42.447  55.960 -55.365  1.00  0.00    -0.322 N 
HETATM   14  H   UNL     1     -41.536  56.378 -55.218  1.00  0.00     0.169 HD
HETATM   15  O   UNL     1     -44.038  54.610 -54.339  1.00  0.00    -0.267 OA
BRANCH  13  16
HETATM   16  C   UNL     1     -43.084  56.271 -56.588  1.00  0.00     0.052 A 
HETATM   17  C   UNL     1     -43.873  57.395 -56.819  1.00  0.00     0.145 A 
HETATM   18  N   UNL     1     -44.512  57.650 -57.991  1.00  0.00    -0.271 NA
HETATM   19  C   UNL     1     -44.361  56.746 -58.978  1.00  0.00     0.116 A 
HETATM   20  C   UNL     1     -43.596  55.600 -58.853  1.00  0.00     0.021 A 
HETATM   21  C   UNL     1     -42.947  55.364 -57.641  1.00  0.00     0.032 A 
ENDBRANCH  13  16
ENDBRANCH  10  12
BRANCH   9  22
HETATM   22  C   UNL     1     -41.874  57.107 -52.200  1.00  0.00    -0.025 A 
HETATM   23  C   UNL     1     -40.671  57.525 -52.788  1.00  0.00     0.029 A 
HETATM   24  C   UNL     1     -40.424  58.883 -52.913  1.00  0.00     0.117 A 
HETATM   25  N   UNL     1     -41.285  59.842 -52.520  1.00  0.00    -0.273 NA
HETATM   26  C   UNL     1     -42.442  59.427 -51.962  1.00  0.00     0.117 A 
HETATM   27  C   UNL     1     -42.780  58.094 -51.787  1.00  0.00     0.029 A 
ENDBRANCH   9  22
TORSDOF 3
ENDMDL
MODEL 2
REMARK VINA RESULT:      -7.4      2.134      5.547
REMARK  3 active torsions:
REMARK  status: ('A' for Active; 'I' for Inactive)
REMARK    1  A    between atoms: C_9  and  C_10 
REMARK    2  A    between atoms: C_16  and  C_17 
REMARK       I    between atoms: C_17  and  N_18 
REMARK    3  A    between atoms: N_18  and  C_19 
ROOT
HETATM    1  C   UNL     1     -40.990  56.357 -49.947  1.00  0.00     0.070 C 
HETATM    2  C   UNL     1     -41.975  56.916 -50.944  1.00  0.00     0.037 C 
HETATM    3  N   UNL     1     -42.326  58.250 -50.751  1.00  0.00    -0.192 N 
HETATM    4  C   UNL     1     -43.403  58.812 -51.333  1.00  0.00     0.725 A 
HETATM    5  N   UNL     1     -44.072  58.127 -52.309  1.00  0.00    -0.084 N 
HETATM    6  N   UNL     1     -45.170  58.796 -52.716  1.00  0.00    -0.149 NA
HETATM    7  C   UNL     1     -45.075  59.901 -51.968  1.00  0.00     0.275 A 
HETATM    8  N   UNL     1     -44.003  59.954 -51.113  1.00  0.00    -0.054 NA
HETATM    9  C   UNL     1     -43.662  56.811 -52.815  1.00  0.00     0.202 C 
HETATM   10  C   UNL     1     -42.578  56.199 -51.927  1.00  0.00     0.062 C 
HETATM   11  H   UNL     1     -41.932  58.724 -49.941  1.00  0.00     0.184 HD
ENDROOT
BRANCH  10  12
HETATM   12  C   UNL     1     -42.376  54.742 -52.150  1.00  0.00     0.256 C 
HETATM   13  N   UNL     1     -41.159  54.416 -52.703  1.00  0.00    -0.322 N 
HETATM   14  H   UNL     1     -40.549  55.176 -52.977  1.00  0.00     0.169 HD
HETATM   15  O   UNL     1     -43.286  53.971 -51.876  1.00  0.00    -0.267 OA
BRANCH  13  16
HETATM   16  C   UNL     1     -40.644  53.111 -52.876  1.00  0.00     0.052 A 
HETATM   17  C   UNL     1     -39.942  52.391 -51.913  1.00  0.00     0.145 A 
HETATM   18  N   UNL     1     -39.418  51.154 -52.117  1.00  0.00    -0.271 NA
HETATM   19  C   UNL     1     -39.599  50.608 -53.336  1.00  0.00     0.116 A 
HETATM   20  C   UNL     1     -40.284  51.237 -54.359  1.00  0.00     0.021 A 
HETATM   21  C   UNL     1     -40.816  52.503 -54.122  1.00  0.00     0.032 A 
ENDBRANCH  13  16
ENDBRANCH  10  12
BRANCH   9  22
HETATM   22  C   UNL     1     -43.213  56.916 -54.269  1.00  0.00    -0.025 A 
HETATM   23  C   UNL     1     -42.426  57.980 -54.734  1.00  0.00     0.029 A 
HETATM   24  C   UNL     1     -42.057  58.005 -56.070  1.00  0.00     0.117 A 
HETATM   25  N   UNL     1     -42.392  57.048 -56.959  1.00  0.00    -0.273 NA
HETATM   26  C   UNL     1     -43.143  56.027 -56.497  1.00  0.00     0.117 A 
HETATM   27  C   UNL     1     -43.568  55.914 -55.182  1.00  0.00     0.029 A 
ENDBRANCH   9  22
TORSDOF 3
ENDMDL
MODEL 3
REMARK VINA RESULT:      -7.2      2.063      5.610
REMARK  3 active torsions:
REMARK  status: ('A' for Active; 'I' for Inactive)
REMARK    1  A    between atoms: C_9  and  C_10 
REMARK    2  A    between atoms: C_16  and  C_17 
REMARK       I    between atoms: C_17  and  N_18 
REMARK    3  A    between atoms: N_18  and  C_19 
ROOT
HETATM    1  C   UNL     1     -42.463  55.410 -56.628  1.00  0.00     0.070 C 
HETATM    2  C   UNL     1     -42.229  56.173 -55.348  1.00  0.00     0.037 C 
HETATM    3  N   UNL     1     -42.852  57.416 -55.273  1.00  0.00    -0.192 N 
HETATM    4  C   UNL     1     -42.508  58.352 -54.366  1.00  0.00     0.725 A 
HETATM    5  N   UNL     1     -41.663  58.016 -53.345  1.00  0.00    -0.084 N 
HETATM    6  N   UNL     1     -41.356  59.089 -52.587  1.00  0.00    -0.149 NA
HETATM    7  C   UNL     1     -42.091  60.031 -53.188  1.00  0.00     0.275 A 
HETATM    8  N   UNL     1     -42.817  59.620 -54.277  1.00  0.00    -0.054 NA
HETATM    9  C   UNL     1     -41.128  56.666 -53.134  1.00  0.00     0.202 C 
HETATM   10  C   UNL     1     -41.411  55.772 -54.341  1.00  0.00     0.062 C 
HETATM   11  H   UNL     1     -43.373  57.728 -56.090  1.00  0.00     0.184 HD
ENDROOT
BRANCH  10  12
HETATM   12  C   UNL     1     -40.598  54.525 -54.365  1.00  0.00     0.256 C 
HETATM   13  N   UNL     1     -40.980  53.582 -53.439  1.00  0.00    -0.322 N 
HETATM   14  H   UNL     1     -41.710  53.834 -52.784  1.00  0.00     0.169 HD
HETATM   15  O   UNL     1     -39.659  54.447 -55.146  1.00  0.00    -0.267 OA
BRANCH  13  16
HETATM   16  C   UNL     1     -40.490  52.259 -53.344  1.00  0.00     0.052 A 
HETATM   17  C   UNL     1     -39.794  51.737 -52.257  1.00  0.00     0.145 A 
HETATM   18  N   UNL     1     -39.294  50.474 -52.207  1.00  0.00    -0.271 NA
HETATM   19  C   UNL     1     -39.495  49.694 -53.288  1.00  0.00     0.116 A 
HETATM   20  C   UNL     1     -40.177  50.115 -54.416  1.00  0.00     0.021 A 
HETATM   21  C   UNL     1     -40.683  51.414 -54.439  1.00  0.00     0.032 A 
ENDBRANCH  13  16
ENDBRANCH  10  12
BRANCH   9  22
HETATM   22  C   UNL     1     -41.683  56.069 -51.844  1.00  0.00    -0.025 A 
HETATM   23  C   UNL     1     -40.879  55.845 -50.717  1.00  0.00     0.029 A 
HETATM   24  C   UNL     1     -41.457  55.300 -49.580  1.00  0.00     0.117 A 
HETATM   25  N   UNL     1     -42.765  54.987 -49.480  1.00  0.00    -0.273 NA
HETATM   26  C   UNL     1     -43.528  55.214 -50.570  1.00  0.00     0.117 A 
HETATM   27  C   UNL     1     -43.044  55.749 -51.754  1.00  0.00     0.029 A 
ENDBRANCH   9  22
TORSDOF 3
ENDMDL
MODEL 4
REMARK VINA RESULT:      -7.2      2.141      5.891
REMARK  3 active torsions:
REMARK  status: ('A' for Active; 'I' for Inactive)
REMARK    1  A    between atoms: C_9  and  C_10 
REMARK    2  A    between atoms: C_16  and  C_17 
REMARK       I    between atoms: C_17  and  N_18 
REMARK    3  A    between atoms: N_18  and  C_19 
ROOT
HETATM    1  C   UNL     1     -43.463  54.310 -56.084  1.00  0.00     0.070 C 
HETATM    2  C   UNL     1     -43.009  55.711 -55.756  1.00  0.00     0.037 C 
HETATM    3  N   UNL     1     -43.794  56.731 -56.287  1.00  0.00    -0.192 N 
HETATM    4  C   UNL     1     -43.375  58.010 -56.364  1.00  0.00     0.725 A 
HETATM    5  N   UNL     1     -42.226  58.378 -55.720  1.00  0.00    -0.084 N 
HETATM    6  N   UNL     1     -41.909  59.664 -55.976  1.00  0.00    -0.149 NA
HETATM    7  C   UNL     1     -42.941  60.020 -56.751  1.00  0.00     0.275 A 
HETATM    8  N   UNL     1     -43.864  59.039 -57.006  1.00  0.00    -0.054 NA
HETATM    9  C   UNL     1     -41.423  57.471 -54.892  1.00  0.00     0.202 C 
HETATM   10  C   UNL     1     -41.878  56.022 -55.070  1.00  0.00     0.062 C 
HETATM   11  H   UNL     1     -44.574  56.459 -56.881  1.00  0.00     0.184 HD
ENDROOT
BRANCH  10  12
HETATM   12  C   UNL     1     -40.900  55.022 -54.564  1.00  0.00     0.256 C 
HETATM   13  N   UNL     1     -41.407  54.162 -53.617  1.00  0.00    -0.322 N 
HETATM   14  H   UNL     1     -42.354  54.323 -53.294  1.00  0.00     0.169 HD
HETATM   15  O   UNL     1     -39.749  55.059 -54.977  1.00  0.00    -0.267 OA
BRANCH  13  16
HETATM   16  C   UNL     1     -40.754  53.027 -53.084  1.00  0.00     0.052 A 
HETATM   17  C   UNL     1     -40.362  52.877 -51.756  1.00  0.00     0.145 A 
HETATM   18  N   UNL     1     -39.695  51.794 -51.276  1.00  0.00    -0.271 NA
HETATM   19  C   UNL     1     -39.403  50.817 -52.157  1.00  0.00     0.116 A 
HETATM   20  C   UNL     1     -39.751  50.867 -53.495  1.00  0.00     0.021 A 
HETATM   21  C   UNL     1     -40.439  51.987 -53.960  1.00  0.00     0.032 A 
ENDBRANCH  13  16
ENDBRANCH  10  12
BRANCH   9  22
HETATM   22  C   UNL     1     -41.470  57.904 -53.430  1.00  0.00    -0.025 A 
HETATM   23  C   UNL     1     -42.562  57.615 -52.598  1.00  0.00     0.029 A 
HETATM   24  C   UNL     1     -42.531  58.041 -51.280  1.00  0.00     0.117 A 
HETATM   25  N   UNL     1     -41.495  58.707 -50.731  1.00  0.00    -0.273 NA
HETATM   26  C   UNL     1     -40.447  58.972 -51.540  1.00  0.00     0.117 A 
HETATM   27  C   UNL     1     -40.386  58.594 -52.872  1.00  0.00     0.029 A 
ENDBRANCH   9  22
TORSDOF 3
ENDMDL
MODEL 5
REMARK VINA RESULT:      -7.0      3.189      5.476
REMARK  3 active torsions:
REMARK  status: ('A' for Active; 'I' for Inactive)
REMARK    1  A    between atoms: C_9  and  C_10 
REMARK    2  A    between atoms: C_16  and  C_17 
REMARK       I    between atoms: C_17  and  N_18 
REMARK    3  A    between atoms: N_18  and  C_19 
ROOT
HETATM    1  C   UNL     1     -44.382  54.964 -50.187  1.00  0.00     0.070 C 
HETATM    2  C   UNL     1     -43.896  56.119 -51.027  1.00  0.00     0.037 C 
HETATM    3  N   UNL     1     -44.818  57.145 -51.219  1.00  0.00    -0.192 N 
HETATM    4  C   UNL     1     -44.677  58.083 -52.177  1.00  0.00     0.725 A 
HETATM    5  N   UNL     1     -43.496  58.169 -52.861  1.00  0.00    -0.084 N 
HETATM    6  N   UNL     1     -43.560  59.098 -53.838  1.00  0.00    -0.149 NA
HETATM    7  C   UNL     1     -44.802  59.562 -53.653  1.00  0.00     0.275 A 
HETATM    8  N   UNL     1     -45.516  58.972 -52.642  1.00  0.00    -0.054 NA
HETATM    9  C   UNL     1     -42.326  57.326 -52.587  1.00  0.00     0.202 C 
HETATM   10  C   UNL     1     -42.690  56.175 -51.649  1.00  0.00     0.062 C 
HETATM   11  H   UNL     1     -45.747  57.019 -50.823  1.00  0.00     0.184 HD
ENDROOT
BRANCH  10  12
HETATM   12  C   UNL     1     -41.677  55.087 -51.618  1.00  0.00     0.256 C 
HETATM   13  N   UNL     1     -41.893  54.083 -52.533  1.00  0.00    -0.322 N 
HETATM   14  H   UNL     1     -42.741  54.126 -53.085  1.00  0.00     0.169 HD
HETATM   15  O   UNL     1     -40.781  55.137 -50.785  1.00  0.00    -0.267 OA
BRANCH  13  16
HETATM   16  C   UNL     1     -41.014  53.016 -52.826  1.00  0.00     0.052 A 
HETATM   17  C   UNL     1     -40.106  52.455 -51.931  1.00  0.00     0.145 A 
HETATM   18  N   UNL     1     -39.239  51.458 -52.248  1.00  0.00    -0.271 NA
HETATM   19  C   UNL     1     -39.274  50.998 -53.515  1.00  0.00     0.116 A 
HETATM   20  C   UNL     1     -40.140  51.483 -54.478  1.00  0.00     0.021 A 
HETATM   21  C   UNL     1     -41.022  52.503 -54.125  1.00  0.00     0.032 A 
ENDBRANCH  13  16
ENDBRANCH  10  12
BRANCH   9  22
HETATM   22  C   UNL     1     -41.181  58.168 -52.034  1.00  0.00    -0.025 A 
HETATM   23  C   UNL     1     -41.198  58.693 -50.733  1.00  0.00     0.029 A 
HETATM   24  C   UNL     1     -40.119  59.449 -50.302  1.00  0.00     0.117 A 
HETATM   25  N   UNL     1     -39.029  59.697 -51.055  1.00  0.00    -0.273 NA
HETATM   26  C   UNL     1     -39.021  59.181 -52.301  1.00  0.00     0.117 A 
HETATM   27  C   UNL     1     -40.053  58.419 -52.827  1.00  0.00     0.029 A 
ENDBRANCH   9  22
TORSDOF 3
ENDMDL
MODEL 6
REMARK VINA RESULT:      -6.9      2.312      6.312
REMARK  3 active torsions:
REMARK  status: ('A' for Active; 'I' for Inactive)
REMARK    1  A    between atoms: C_9  and  C_10 
REMARK    2  A    between atoms: C_16  and  C_17 
REMARK       I    between atoms: C_17  and  N_18 
REMARK    3  A    between atoms: N_18  and  C_19 
ROOT
HETATM    1  C   UNL     1     -43.495  55.469 -58.538  1.00  0.00     0.070 C 
HETATM    2  C   UNL     1     -43.111  56.788 -57.913  1.00  0.00     0.037 C 
HETATM    3  N   UNL     1     -43.064  57.870 -58.788  1.00  0.00    -0.192 N 
HETATM    4  C   UNL     1     -42.448  59.030 -58.482  1.00  0.00     0.725 A 
HETATM    5  N   UNL     1     -42.026  59.245 -57.199  1.00  0.00    -0.084 N 
HETATM    6  N   UNL     1     -41.355  60.411 -57.092  1.00  0.00    -0.149 NA
HETATM    7  C   UNL     1     -41.451  60.865 -58.347  1.00  0.00     0.275 A 
HETATM    8  N   UNL     1     -42.119  60.052 -59.228  1.00  0.00    -0.054 NA
HETATM    9  C   UNL     1     -42.243  58.304 -56.095  1.00  0.00     0.202 C 
HETATM   10  C   UNL     1     -42.742  56.956 -56.617  1.00  0.00     0.062 C 
HETATM   11  H   UNL     1     -43.247  57.685 -59.772  1.00  0.00     0.184 HD
ENDROOT
BRANCH  10  12
HETATM   12  C   UNL     1     -42.634  55.854 -55.623  1.00  0.00     0.256 C 
HETATM   13  N   UNL     1     -41.355  55.386 -55.431  1.00  0.00    -0.322 N 
HETATM   14  H   UNL     1     -40.623  55.765 -56.019  1.00  0.00     0.169 HD
HETATM   15  O   UNL     1     -43.656  55.429 -55.100  1.00  0.00    -0.267 OA
BRANCH  13  16
HETATM   16  C   UNL     1     -40.944  54.461 -54.444  1.00  0.00     0.052 A 
HETATM   17  C   UNL     1     -40.886  54.719 -53.077  1.00  0.00     0.145 A 
HETATM   18  N   UNL     1     -40.445  53.827 -52.151  1.00  0.00    -0.271 NA
HETATM   19  C   UNL     1     -40.043  52.624 -52.605  1.00  0.00     0.116 A 
HETATM   20  C   UNL     1     -40.065  52.266 -53.941  1.00  0.00     0.021 A 
HETATM   21  C   UNL     1     -40.526  53.198 -54.870  1.00  0.00     0.032 A 
ENDBRANCH  13  16
ENDBRANCH  10  12
BRANCH   9  22
HETATM   22  C   UNL     1     -43.196  58.901 -55.065  1.00  0.00    -0.025 A 
HETATM   23  C   UNL     1     -44.539  59.178 -55.360  1.00  0.00     0.029 A 
HETATM   24  C   UNL     1     -45.344  59.721 -54.371  1.00  0.00     0.117 A 
HETATM   25  N   UNL     1     -44.919  59.984 -53.119  1.00  0.00    -0.273 NA
HETATM   26  C   UNL     1     -43.627  59.706 -52.845  1.00  0.00     0.117 A 
HETATM   27  C   UNL     1     -42.741  59.169 -53.767  1.00  0.00     0.029 A 
ENDBRANCH   9  22
TORSDOF 3
ENDMDL
MODEL 7
REMARK VINA RESULT:      -6.9      2.306      7.026
REMARK  3 active torsions:
REMARK  status: ('A' for Active; 'I' for Inactive)
REMARK    1  A    between atoms: C_9  and  C_10 
REMARK    2  A    between atoms: C_16  and  C_17 
REMARK       I    between atoms: C_17  and  N_18 
REMARK    3  A    between atoms: N_18  and  C_19 
ROOT
HETATM    1  C   UNL     1     -41.029  59.140 -53.676  1.00  0.00     0.070 C 
HETATM    2  C   UNL     1     -41.908  59.208 -54.901  1.00  0.00     0.037 C 
HETATM    3  N   UNL     1     -42.085  60.481 -55.437  1.00  0.00    -0.192 N 
HETATM    4  C   UNL     1     -43.066  60.773 -56.315  1.00  0.00     0.725 A 
HETATM    5  N   UNL     1     -43.794  59.757 -56.868  1.00  0.00    -0.084 N 
HETATM    6  N   UNL     1     -44.785  60.231 -57.651  1.00  0.00    -0.149 NA
HETATM    7  C   UNL     1     -44.564  61.547 -57.554  1.00  0.00     0.275 A 
HETATM    8  N   UNL     1     -43.516  61.921 -56.752  1.00  0.00    -0.054 NA
HETATM    9  C   UNL     1     -43.548  58.334 -56.605  1.00  0.00     0.202 C 
HETATM   10  C   UNL     1     -42.575  58.155 -55.439  1.00  0.00     0.062 C 
HETATM   11  H   UNL     1     -41.653  61.260 -54.945  1.00  0.00     0.184 HD
ENDROOT
BRANCH  10  12
HETATM   12  C   UNL     1     -42.560  56.776 -54.880  1.00  0.00     0.256 C 
HETATM   13  N   UNL     1     -41.317  56.188 -54.854  1.00  0.00    -0.322 N 
HETATM   14  H   UNL     1     -40.548  56.695 -55.275  1.00  0.00     0.169 HD
HETATM   15  O   UNL     1     -43.619  56.267 -54.535  1.00  0.00    -0.267 OA
BRANCH  13  16
HETATM   16  C   UNL     1     -40.988  54.958 -54.239  1.00  0.00     0.052 A 
HETATM   17  C   UNL     1     -41.013  54.714 -52.869  1.00  0.00     0.145 A 
HETATM   18  N   UNL     1     -40.650  53.535 -52.297  1.00  0.00    -0.271 NA
HETATM   19  C   UNL     1     -40.242  52.555 -53.127  1.00  0.00     0.116 A 
HETATM   20  C   UNL     1     -40.185  52.693 -54.502  1.00  0.00     0.021 A 
HETATM   21  C   UNL     1     -40.567  53.911 -55.062  1.00  0.00     0.032 A 
ENDBRANCH  13  16
ENDBRANCH  10  12
BRANCH   9  22
HETATM   22  C   UNL     1     -43.053  57.637 -57.869  1.00  0.00    -0.025 A 
HETATM   23  C   UNL     1     -43.540  56.385 -58.272  1.00  0.00     0.029 A 
HETATM   24  C   UNL     1     -43.041  55.815 -59.433  1.00  0.00     0.117 A 
HETATM   25  N   UNL     1     -42.122  56.405 -60.223  1.00  0.00    -0.273 NA
HETATM   26  C   UNL     1     -41.667  57.613 -59.828  1.00  0.00     0.117 A 
HETATM   27  C   UNL     1     -42.098  58.262 -58.681  1.00  0.00     0.029 A 
ENDBRANCH   9  22
TORSDOF 3
ENDMDL
MODEL 8
REMARK VINA RESULT:      -6.8      2.231      5.875
REMARK  3 active torsions:
REMARK  status: ('A' for Active; 'I' for Inactive)
REMARK    1  A    between atoms: C_9  and  C_10 
REMARK    2  A    between atoms: C_16  and  C_17 
REMARK       I    between atoms: C_17  and  N_18 
REMARK    3  A    between atoms: N_18  and  C_19 
ROOT
HETATM    1  C   UNL     1     -43.283  55.116 -57.682  1.00  0.00     0.070 C 
HETATM    2  C   UNL     1     -43.022  56.201 -56.667  1.00  0.00     0.037 C 
HETATM    3  N   UNL     1     -43.178  57.503 -57.134  1.00  0.00    -0.192 N 
HETATM    4  C   UNL     1     -42.691  58.577 -56.479  1.00  0.00     0.725 A 
HETATM    5  N   UNL     1     -42.204  58.423 -55.211  1.00  0.00    -0.084 N 
HETATM    6  N   UNL     1     -41.679  59.575 -54.743  1.00  0.00    -0.149 NA
HETATM    7  C   UNL     1     -41.926  60.392 -55.773  1.00  0.00     0.275 A 
HETATM    8  N   UNL     1     -42.551  59.822 -56.853  1.00  0.00    -0.054 NA
HETATM    9  C   UNL     1     -42.216  57.153 -54.476  1.00  0.00     0.202 C 
HETATM   10  C   UNL     1     -42.579  55.991 -55.400  1.00  0.00     0.062 C 
HETATM   11  H   UNL     1     -43.410  57.623 -58.117  1.00  0.00     0.184 HD
ENDROOT
BRANCH  10  12
HETATM   12  C   UNL     1     -42.259  54.653 -54.832  1.00  0.00     0.256 C 
HETATM   13  N   UNL     1     -40.967  54.524 -54.379  1.00  0.00    -0.322 N 
HETATM   14  H   UNL     1     -40.335  55.300 -54.534  1.00  0.00     0.169 HD
HETATM   15  O   UNL     1     -43.121  53.784 -54.846  1.00  0.00    -0.267 OA
BRANCH  13  16
HETATM   16  C   UNL     1     -40.441  53.427 -53.659  1.00  0.00     0.052 A 
HETATM   17  C   UNL     1     -40.000  52.233 -54.224  1.00  0.00     0.145 A 
HETATM   18  N   UNL     1     -39.538  51.175 -53.507  1.00  0.00    -0.271 NA
HETATM   19  C   UNL     1     -39.514  51.309 -52.166  1.00  0.00     0.116 A 
HETATM   20  C   UNL     1     -39.925  52.454 -51.507  1.00  0.00     0.021 A 
HETATM   21  C   UNL     1     -40.390  53.526 -52.267  1.00  0.00     0.032 A 
ENDBRANCH  13  16
ENDBRANCH  10  12
BRANCH   9  22
HETATM   22  C   UNL     1     -43.156  57.241 -53.277  1.00  0.00    -0.025 A 
HETATM   23  C   UNL     1     -44.386  57.911 -53.339  1.00  0.00     0.029 A 
HETATM   24  C   UNL     1     -45.186  57.947 -52.208  1.00  0.00     0.117 A 
HETATM   25  N   UNL     1     -44.864  57.353 -51.042  1.00  0.00    -0.273 NA
HETATM   26  C   UNL     1     -43.681  56.705 -50.998  1.00  0.00     0.117 A 
HETATM   27  C   UNL     1     -42.808  56.618 -52.071  1.00  0.00     0.029 A 
ENDBRANCH   9  22
TORSDOF 3
ENDMDL
MODEL 9
REMARK VINA RESULT:      -6.7      1.614      4.087
REMARK  3 active torsions:
REMARK  status: ('A' for Active; 'I' for Inactive)
REMARK    1  A    between atoms: C_9  and  C_10 
REMARK    2  A    between atoms: C_16  and  C_17 
REMARK       I    between atoms: C_17  and  N_18 
REMARK    3  A    between atoms: N_18  and  C_19 
ROOT
HETATM    1  C   UNL     1     -45.360  59.368 -52.311  1.00  0.00     0.070 C 
HETATM    2  C   UNL     1     -43.950  58.872 -52.106  1.00  0.00     0.037 C 
HETATM    3  N   UNL     1     -43.266  59.448 -51.037  1.00  0.00    -0.192 N 
HETATM    4  C   UNL     1     -41.928  59.365 -50.898  1.00  0.00     0.725 A 
HETATM    5  N   UNL     1     -41.221  58.522 -51.710  1.00  0.00    -0.084 N 
HETATM    6  N   UNL     1     -39.893  58.631 -51.495  1.00  0.00    -0.149 NA
HETATM    7  C   UNL     1     -39.878  59.533 -50.507  1.00  0.00     0.275 A 
HETATM    8  N   UNL     1     -41.104  60.002 -50.107  1.00  0.00    -0.054 NA
HETATM    9  C   UNL     1     -41.833  57.643 -52.712  1.00  0.00     0.202 C 
HETATM   10  C   UNL     1     -43.307  57.995 -52.919  1.00  0.00     0.062 C 
HETATM   11  H   UNL     1     -43.745  60.177 -50.514  1.00  0.00     0.184 HD
ENDROOT
BRANCH  10  12
HETATM   12  C   UNL     1     -43.893  57.412 -54.156  1.00  0.00     0.256 C 
HETATM   13  N   UNL     1     -43.368  57.915 -55.325  1.00  0.00    -0.322 N 
HETATM   14  H   UNL     1     -42.702  58.674 -55.251  1.00  0.00     0.169 HD
HETATM   15  O   UNL     1     -44.793  56.589 -54.052  1.00  0.00    -0.267 OA
BRANCH  13  16
HETATM   16  C   UNL     1     -43.625  57.436 -56.629  1.00  0.00     0.052 A 
HETATM   17  C   UNL     1     -44.569  57.964 -57.506  1.00  0.00     0.145 A 
HETATM   18  N   UNL     1     -44.829  57.459 -58.741  1.00  0.00    -0.271 NA
HETATM   19  C   UNL     1     -44.119  56.379 -59.121  1.00  0.00     0.116 A 
HETATM   20  C   UNL     1     -43.156  55.782 -58.328  1.00  0.00     0.021 A 
HETATM   21  C   UNL     1     -42.906  56.323 -57.067  1.00  0.00     0.032 A 
ENDBRANCH  13  16
ENDBRANCH  10  12
BRANCH   9  22
HETATM   22  C   UNL     1     -41.649  56.180 -52.321  1.00  0.00    -0.025 A 
HETATM   23  C   UNL     1     -41.006  55.257 -53.159  1.00  0.00     0.029 A 
HETATM   24  C   UNL     1     -40.876  53.944 -52.733  1.00  0.00     0.117 A 
HETATM   25  N   UNL     1     -41.316  53.495 -51.541  1.00  0.00    -0.273 NA
HETATM   26  C   UNL     1     -41.927  54.395 -50.741  1.00  0.00     0.117 A 
HETATM   27  C   UNL     1     -42.110  55.727 -51.078  1.00  0.00     0.029 A 
ENDBRANCH   9  22
TORSDOF 3
ENDMDL
MODEL 10
REMARK VINA RESULT:      -6.6      2.038      6.291
REMARK  3 active torsions:
REMARK  status: ('A' for Active; 'I' for Inactive)
REMARK    1  A    between atoms: C_9  and  C_10 
REMARK    2  A    between atoms: C_16  and  C_17 
REMARK       I    between atoms: C_17  and  N_18 
REMARK    3  A    between atoms: N_18  and  C_19 
ROOT
HETATM    1  C   UNL     1     -43.201  53.919 -55.487  1.00  0.00     0.070 C 
HETATM    2  C   UNL     1     -43.002  55.359 -55.891  1.00  0.00     0.037 C 
HETATM    3  N   UNL     1     -43.582  55.723 -57.103  1.00  0.00    -0.192 N 
HETATM    4  C   UNL     1     -43.249  56.851 -57.762  1.00  0.00     0.725 A 
HETATM    5  N   UNL     1     -42.468  57.785 -57.140  1.00  0.00    -0.084 N 
HETATM    6  N   UNL     1     -42.160  58.802 -57.971  1.00  0.00    -0.149 NA
HETATM    7  C   UNL     1     -42.829  58.431 -59.069  1.00  0.00     0.275 A 
HETATM    8  N   UNL     1     -43.514  57.246 -58.981  1.00  0.00    -0.054 NA
HETATM    9  C   UNL     1     -41.995  57.667 -55.755  1.00  0.00     0.202 C 
HETATM   10  C   UNL     1     -42.250  56.262 -55.209  1.00  0.00     0.062 C 
HETATM   11  H   UNL     1     -44.049  54.992 -57.636  1.00  0.00     0.184 HD
ENDROOT
BRANCH  10  12
HETATM   12  C   UNL     1     -41.484  55.954 -53.971  1.00  0.00     0.256 C 
HETATM   13  N   UNL     1     -42.248  55.916 -52.827  1.00  0.00    -0.322 N 
HETATM   14  H   UNL     1     -43.225  56.168 -52.906  1.00  0.00     0.169 HD
HETATM   15  O   UNL     1     -40.272  55.804 -54.048  1.00  0.00    -0.267 OA
BRANCH  13  16
HETATM   16  C   UNL     1     -41.814  55.498 -51.548  1.00  0.00     0.052 A 
HETATM   17  C   UNL     1     -41.625  56.336 -50.452  1.00  0.00     0.145 A 
HETATM   18  N   UNL     1     -41.165  55.919 -49.243  1.00  0.00    -0.271 NA
HETATM   19  C   UNL     1     -40.879  54.608 -49.118  1.00  0.00     0.116 A 
HETATM   20  C   UNL     1     -41.035  53.692 -50.143  1.00  0.00     0.021 A 
HETATM   21  C   UNL     1     -41.513  54.146 -51.372  1.00  0.00     0.032 A 
ENDBRANCH  13  16
ENDBRANCH  10  12
BRANCH   9  22
HETATM   22  C   UNL     1     -42.635  58.741 -54.881  1.00  0.00    -0.025 A 
HETATM   23  C   UNL     1     -41.894  59.794 -54.326  1.00  0.00     0.029 A 
HETATM   24  C   UNL     1     -42.548  60.732 -53.543  1.00  0.00     0.117 A 
HETATM   25  N   UNL     1     -43.872  60.709 -53.292  1.00  0.00    -0.273 NA
HETATM   26  C   UNL     1     -44.575  59.694 -53.838  1.00  0.00     0.117 A 
HETATM   27  C   UNL     1     -44.013  58.704 -54.630  1.00  0.00     0.029 A 
ENDBRANCH   9  22
TORSDOF 3
ENDMDL
