MODEL 1
REMARK VINA RESULT:      -8.0      0.000      0.000
REMARK  6 active torsions:
REMARK  status: ('A' for Active; 'I' for Inactive)
REMARK    1  A    between atoms: C_2  and  C_3 
REMARK       I    between atoms: C_3  and  N_4 
REMARK    2  A    between atoms: N_4  and  C_5 
REMARK    3  A    between atoms: C_7  and  N_8 
REMARK       I    between atoms: N_8  and  C_9 
REMARK    4  A    between atoms: C_9  and  C_10 
REMARK    5  A    between atoms: C_12  and  O_13 
REMARK    6  A    between atoms: O_13  and  C_14 
ROOT
HETATM    1  N   UNL     1     -41.563  56.226 -53.947  1.00  0.00    -0.322 N 
HETATM    2  C   UNL     1     -42.180  55.848 -52.766  1.00  0.00     0.256 C 
HETATM    3  O   UNL     1     -43.289  56.223 -52.397  1.00  0.00    -0.267 OA
HETATM    4  H   UNL     1     -40.573  56.073 -54.043  1.00  0.00     0.169 HD
ENDROOT
BRANCH   1   5
HETATM    5  C   UNL     1     -42.199  56.858 -55.048  1.00  0.00     0.043 A 
HETATM    6  C   UNL     1     -42.846  56.109 -56.048  1.00  0.00     0.059 A 
HETATM    7  C   UNL     1     -43.407  56.721 -57.171  1.00  0.00     0.036 A 
HETATM    8  C   UNL     1     -43.345  58.111 -57.280  1.00  0.00     0.030 A 
HETATM    9  C   UNL     1     -42.704  58.870 -56.300  1.00  0.00     0.011 A 
HETATM   10  C   UNL     1     -42.122  58.259 -55.178  1.00  0.00    -0.035 A 
HETATM   11  C   UNL     1     -41.436  59.134 -54.166  1.00  0.00     0.050 C 
BRANCH   7  12
HETATM   12  N   UNL     1     -44.036  56.019 -58.223  1.00  0.00    -0.327 N 
HETATM   13  C   UNL     1     -43.487  55.649 -59.438  1.00  0.00     0.221 C 
HETATM   14  O   UNL     1     -42.372  55.941 -59.861  1.00  0.00    -0.273 OA
HETATM   15  H   UNL     1     -45.019  55.819 -58.093  1.00  0.00     0.169 HD
BRANCH  13  16
HETATM   16  C   UNL     1     -44.447  54.854 -60.307  1.00  0.00     0.098 C 
HETATM   17  C   UNL     1     -45.790  55.541 -60.479  1.00  0.00     0.014 C 
ENDBRANCH  13  16
ENDBRANCH   7  12
ENDBRANCH   1   5
BRANCH   2  18
HETATM   18  C   UNL     1     -41.436  54.922 -51.862  1.00  0.00     0.037 A 
HETATM   19  C   UNL     1     -40.697  53.822 -52.297  1.00  0.00     0.075 A 
HETATM   20  C   UNL     1     -40.089  53.034 -51.334  1.00  0.00     0.165 A 
HETATM   21  N   UNL     1     -40.160  53.261 -50.007  1.00  0.00    -0.237 NA
HETATM   22  C   UNL     1     -40.868  54.335 -49.611  1.00  0.00     0.120 A 
HETATM   23  C   UNL     1     -41.514  55.183 -50.488  1.00  0.00     0.036 A 
BRANCH  20  24
HETATM   24  O   UNL     1     -39.366  51.946 -51.787  1.00  0.00    -0.329 OA
BRANCH  24  25
HETATM   25  C   UNL     1     -40.007  51.147 -52.808  1.00  0.00     0.130 C 
HETATM   26  C   UNL     1     -39.613  49.647 -52.884  1.00  0.00     0.032 C 
HETATM   27  C   UNL     1     -39.663  49.778 -54.417  1.00  0.00     0.005 C 
HETATM   28  C   UNL     1     -39.392  51.282 -54.226  1.00  0.00     0.032 C 
ENDBRANCH  24  25
ENDBRANCH  20  24
ENDBRANCH   2  18
TORSDOF 6
ENDMDL
MODEL 2
REMARK VINA RESULT:      -7.8      1.776      3.439
REMARK  6 active torsions:
REMARK  status: ('A' for Active; 'I' for Inactive)
REMARK    1  A    between atoms: C_2  and  C_3 
REMARK       I    between atoms: C_3  and  N_4 
REMARK    2  A    between atoms: N_4  and  C_5 
REMARK    3  A    between atoms: C_7  and  N_8 
REMARK       I    between atoms: N_8  and  C_9 
REMARK    4  A    between atoms: C_9  and  C_10 
REMARK    5  A    between atoms: C_12  and  O_13 
REMARK    6  A    between atoms: O_13  and  C_14 
ROOT
HETATM    1  N   UNL     1     -41.955  54.107 -54.651  1.00  0.00    -0.322 N 
HETATM    2  C   UNL     1     -40.717  53.498 -54.775  1.00  0.00     0.256 C 
HETATM    3  O   UNL     1     -39.901  53.732 -55.662  1.00  0.00    -0.267 OA
HETATM    4  H   UNL     1     -42.644  53.681 -54.055  1.00  0.00     0.169 HD
ENDROOT
BRANCH   1   5
HETATM    5  C   UNL     1     -42.371  55.284 -55.329  1.00  0.00     0.043 A 
HETATM    6  C   UNL     1     -43.111  55.217 -56.523  1.00  0.00     0.059 A 
HETATM    7  C   UNL     1     -43.458  56.369 -57.234  1.00  0.00     0.036 A 
HETATM    8  C   UNL     1     -43.081  57.611 -56.723  1.00  0.00     0.030 A 
HETATM    9  C   UNL     1     -42.342  57.698 -55.542  1.00  0.00     0.011 A 
HETATM   10  C   UNL     1     -41.976  56.542 -54.833  1.00  0.00    -0.035 A 
HETATM   11  C   UNL     1     -41.168  56.704 -53.575  1.00  0.00     0.050 C 
BRANCH   7  12
HETATM   12  N   UNL     1     -44.168  56.361 -58.454  1.00  0.00    -0.327 N 
HETATM   13  C   UNL     1     -43.671  56.099 -59.719  1.00  0.00     0.221 C 
HETATM   14  O   UNL     1     -42.497  55.909 -60.023  1.00  0.00    -0.273 OA
HETATM   15  H   UNL     1     -45.139  56.639 -58.400  1.00  0.00     0.169 HD
BRANCH  13  16
HETATM   16  C   UNL     1     -44.742  56.128 -60.796  1.00  0.00     0.098 C 
HETATM   17  C   UNL     1     -46.147  56.038 -60.231  1.00  0.00     0.014 C 
ENDBRANCH  13  16
ENDBRANCH   7  12
ENDBRANCH   1   5
BRANCH   2  18
HETATM   18  C   UNL     1     -40.349  52.467 -53.761  1.00  0.00     0.037 A 
HETATM   19  C   UNL     1     -40.339  52.685 -52.383  1.00  0.00     0.075 A 
HETATM   20  C   UNL     1     -39.939  51.640 -51.569  1.00  0.00     0.165 A 
HETATM   21  N   UNL     1     -39.564  50.425 -52.017  1.00  0.00    -0.237 NA
HETATM   22  C   UNL     1     -39.592  50.233 -53.349  1.00  0.00     0.120 A 
HETATM   23  C   UNL     1     -39.973  51.209 -54.248  1.00  0.00     0.036 A 
BRANCH  20  24
HETATM   24  O   UNL     1     -39.933  51.879 -50.207  1.00  0.00    -0.329 OA
BRANCH  24  25
HETATM   25  C   UNL     1     -40.580  53.100 -49.782  1.00  0.00     0.130 C 
HETATM   26  C   UNL     1     -39.682  54.356 -49.609  1.00  0.00     0.032 C 
HETATM   27  C   UNL     1     -40.515  54.701 -48.362  1.00  0.00     0.005 C 
HETATM   28  C   UNL     1     -40.849  53.202 -48.257  1.00  0.00     0.032 C 
ENDBRANCH  24  25
ENDBRANCH  20  24
ENDBRANCH   2  18
TORSDOF 6
ENDMDL
MODEL 3
REMARK VINA RESULT:      -7.3      3.043      4.581
REMARK  6 active torsions:
REMARK  status: ('A' for Active; 'I' for Inactive)
REMARK    1  A    between atoms: C_2  and  C_3 
REMARK       I    between atoms: C_3  and  N_4 
REMARK    2  A    between atoms: N_4  and  C_5 
REMARK    3  A    between atoms: C_7  and  N_8 
REMARK       I    between atoms: N_8  and  C_9 
REMARK    4  A    between atoms: C_9  and  C_10 
REMARK    5  A    between atoms: C_12  and  O_13 
REMARK    6  A    between atoms: O_13  and  C_14 
ROOT
HETATM    1  N   UNL     1     -42.080  56.646 -57.135  1.00  0.00    -0.322 N 
HETATM    2  C   UNL     1     -42.881  56.514 -56.012  1.00  0.00     0.256 C 
HETATM    3  O   UNL     1     -43.856  57.213 -55.755  1.00  0.00    -0.267 OA
HETATM    4  H   UNL     1     -41.175  56.205 -57.135  1.00  0.00     0.169 HD
ENDROOT
BRANCH   1   5
HETATM    5  C   UNL     1     -42.402  57.393 -58.299  1.00  0.00     0.043 A 
HETATM    6  C   UNL     1     -41.949  58.714 -58.468  1.00  0.00     0.059 A 
HETATM    7  C   UNL     1     -42.325  59.478 -59.575  1.00  0.00     0.036 A 
HETATM    8  C   UNL     1     -43.145  58.899 -60.544  1.00  0.00     0.030 A 
HETATM    9  C   UNL     1     -43.608  57.592 -60.391  1.00  0.00     0.011 A 
HETATM   10  C   UNL     1     -43.248  56.825 -59.271  1.00  0.00    -0.035 A 
HETATM   11  C   UNL     1     -43.791  55.427 -59.160  1.00  0.00     0.050 C 
BRANCH   7  12
HETATM   12  N   UNL     1     -41.931  60.819 -59.781  1.00  0.00    -0.327 N 
HETATM   13  C   UNL     1     -41.085  61.581 -58.994  1.00  0.00     0.221 C 
HETATM   14  O   UNL     1     -40.590  61.256 -57.919  1.00  0.00    -0.273 OA
HETATM   15  H   UNL     1     -42.367  61.292 -60.562  1.00  0.00     0.169 HD
BRANCH  13  16
HETATM   16  C   UNL     1     -40.846  62.973 -59.553  1.00  0.00     0.098 C 
HETATM   17  C   UNL     1     -39.371  63.301 -59.701  1.00  0.00     0.014 C 
ENDBRANCH  13  16
ENDBRANCH   7  12
ENDBRANCH   1   5
BRANCH   2  18
HETATM   18  C   UNL     1     -42.525  55.447 -55.030  1.00  0.00     0.037 A 
HETATM   19  C   UNL     1     -41.503  54.516 -55.215  1.00  0.00     0.075 A 
HETATM   20  C   UNL     1     -41.316  53.563 -54.228  1.00  0.00     0.165 A 
HETATM   21  N   UNL     1     -42.051  53.477 -53.102  1.00  0.00    -0.237 NA
HETATM   22  C   UNL     1     -43.024  54.393 -52.939  1.00  0.00     0.120 A 
HETATM   23  C   UNL     1     -43.295  55.384 -53.862  1.00  0.00     0.036 A 
BRANCH  20  24
HETATM   24  O   UNL     1     -40.300  52.647 -54.433  1.00  0.00    -0.329 OA
BRANCH  24  25
HETATM   25  C   UNL     1     -40.487  51.354 -53.813  1.00  0.00     0.130 C 
HETATM   26  C   UNL     1     -39.547  50.994 -52.629  1.00  0.00     0.032 C 
HETATM   27  C   UNL     1     -39.493  49.563 -53.191  1.00  0.00     0.005 C 
HETATM   28  C   UNL     1     -39.834  50.166 -54.567  1.00  0.00     0.032 C 
ENDBRANCH  24  25
ENDBRANCH  20  24
ENDBRANCH   2  18
TORSDOF 6
ENDMDL
MODEL 4
REMARK VINA RESULT:      -7.3      1.582      2.201
REMARK  6 active torsions:
REMARK  status: ('A' for Active; 'I' for Inactive)
REMARK    1  A    between atoms: C_2  and  C_3 
REMARK       I    between atoms: C_3  and  N_4 
REMARK    2  A    between atoms: N_4  and  C_5 
REMARK    3  A    between atoms: C_7  and  N_8 
REMARK       I    between atoms: N_8  and  C_9 
REMARK    4  A    between atoms: C_9  and  C_10 
REMARK    5  A    between atoms: C_12  and  O_13 
REMARK    6  A    between atoms: O_13  and  C_14 
ROOT
HETATM    1  N   UNL     1     -41.269  57.232 -52.332  1.00  0.00    -0.322 N 
HETATM    2  C   UNL     1     -42.069  56.223 -51.822  1.00  0.00     0.256 C 
HETATM    3  O   UNL     1     -43.296  56.203 -51.871  1.00  0.00    -0.267 OA
HETATM    4  H   UNL     1     -40.310  57.286 -52.029  1.00  0.00     0.169 HD
ENDROOT
BRANCH   1   5
HETATM    5  C   UNL     1     -41.687  58.246 -53.234  1.00  0.00     0.043 A 
HETATM    6  C   UNL     1     -41.762  58.008 -54.618  1.00  0.00     0.059 A 
HETATM    7  C   UNL     1     -42.100  59.023 -55.517  1.00  0.00     0.036 A 
HETATM    8  C   UNL     1     -42.398  60.291 -55.017  1.00  0.00     0.030 A 
HETATM    9  C   UNL     1     -42.325  60.547 -53.647  1.00  0.00     0.011 A 
HETATM   10  C   UNL     1     -41.968  59.535 -52.741  1.00  0.00    -0.035 A 
HETATM   11  C   UNL     1     -41.896  59.881 -51.279  1.00  0.00     0.050 C 
BRANCH   7  12
HETATM   12  N   UNL     1     -42.156  58.853 -56.918  1.00  0.00    -0.327 N 
HETATM   13  C   UNL     1     -42.909  57.933 -57.627  1.00  0.00     0.221 C 
HETATM   14  O   UNL     1     -43.601  57.033 -57.160  1.00  0.00    -0.273 OA
HETATM   15  H   UNL     1     -41.527  59.432 -57.458  1.00  0.00     0.169 HD
BRANCH  13  16
HETATM   16  C   UNL     1     -42.758  58.075 -59.132  1.00  0.00     0.098 C 
HETATM   17  C   UNL     1     -42.598  56.740 -59.836  1.00  0.00     0.014 C 
ENDBRANCH  13  16
ENDBRANCH   7  12
ENDBRANCH   1   5
BRANCH   2  18
HETATM   18  C   UNL     1     -41.392  55.076 -51.149  1.00  0.00     0.037 A 
HETATM   19  C   UNL     1     -40.647  54.102 -51.813  1.00  0.00     0.075 A 
HETATM   20  C   UNL     1     -40.108  53.077 -51.054  1.00  0.00     0.165 A 
HETATM   21  N   UNL     1     -40.249  52.961 -49.719  1.00  0.00    -0.237 NA
HETATM   22  C   UNL     1     -40.961  53.919 -49.097  1.00  0.00     0.120 A 
HETATM   23  C   UNL     1     -41.543  54.982 -49.760  1.00  0.00     0.036 A 
BRANCH  20  24
HETATM   24  O   UNL     1     -39.377  52.118 -51.733  1.00  0.00    -0.329 OA
BRANCH  24  25
HETATM   25  C   UNL     1     -40.130  51.284 -52.643  1.00  0.00     0.130 C 
HETATM   26  C   UNL     1     -39.618  49.834 -52.863  1.00  0.00     0.032 C 
HETATM   27  C   UNL     1     -39.986  49.998 -54.348  1.00  0.00     0.005 C 
HETATM   28  C   UNL     1     -39.827  51.516 -54.147  1.00  0.00     0.032 C 
ENDBRANCH  24  25
ENDBRANCH  20  24
ENDBRANCH   2  18
TORSDOF 6
ENDMDL
MODEL 5
REMARK VINA RESULT:      -7.2      2.015      2.185
REMARK  6 active torsions:
REMARK  status: ('A' for Active; 'I' for Inactive)
REMARK    1  A    between atoms: C_2  and  C_3 
REMARK       I    between atoms: C_3  and  N_4 
REMARK    2  A    between atoms: N_4  and  C_5 
REMARK    3  A    between atoms: C_7  and  N_8 
REMARK       I    between atoms: N_8  and  C_9 
REMARK    4  A    between atoms: C_9  and  C_10 
REMARK    5  A    between atoms: C_12  and  O_13 
REMARK    6  A    between atoms: O_13  and  C_14 
ROOT
HETATM    1  N   UNL     1     -43.235  56.029 -52.710  1.00  0.00    -0.322 N 
HETATM    2  C   UNL     1     -41.864  55.840 -52.768  1.00  0.00     0.256 C 
HETATM    3  O   UNL     1     -41.113  56.369 -53.582  1.00  0.00    -0.267 OA
HETATM    4  H   UNL     1     -43.789  55.374 -52.185  1.00  0.00     0.169 HD
ENDROOT
BRANCH   1   5
HETATM    5  C   UNL     1     -43.958  57.060 -53.365  1.00  0.00     0.043 A 
HETATM    6  C   UNL     1     -44.401  56.913 -54.693  1.00  0.00     0.059 A 
HETATM    7  C   UNL     1     -45.046  57.952 -55.367  1.00  0.00     0.036 A 
HETATM    8  C   UNL     1     -45.277  59.150 -54.691  1.00  0.00     0.030 A 
HETATM    9  C   UNL     1     -44.840  59.317 -53.376  1.00  0.00     0.011 A 
HETATM   10  C   UNL     1     -44.175  58.282 -52.699  1.00  0.00    -0.035 A 
HETATM   11  C   UNL     1     -43.720  58.531 -51.288  1.00  0.00     0.050 C 
BRANCH   7  12
HETATM   12  N   UNL     1     -45.481  57.874 -56.709  1.00  0.00    -0.327 N 
HETATM   13  C   UNL     1     -44.697  57.802 -57.847  1.00  0.00     0.221 C 
HETATM   14  O   UNL     1     -43.474  57.882 -57.904  1.00  0.00    -0.273 OA
HETATM   15  H   UNL     1     -46.480  57.940 -56.852  1.00  0.00     0.169 HD
BRANCH  13  16
HETATM   16  C   UNL     1     -45.513  57.677 -59.123  1.00  0.00     0.098 C 
HETATM   17  C   UNL     1     -46.997  57.903 -58.897  1.00  0.00     0.014 C 
ENDBRANCH  13  16
ENDBRANCH   7  12
ENDBRANCH   1   5
BRANCH   2  18
HETATM   18  C   UNL     1     -41.251  54.910 -51.775  1.00  0.00     0.037 A 
HETATM   19  C   UNL     1     -40.566  53.742 -52.108  1.00  0.00     0.075 A 
HETATM   20  C   UNL     1     -40.083  52.962 -51.071  1.00  0.00     0.165 A 
HETATM   21  N   UNL     1     -40.225  53.257 -49.764  1.00  0.00    -0.237 NA
HETATM   22  C   UNL     1     -40.879  54.395 -49.466  1.00  0.00     0.120 A 
HETATM   23  C   UNL     1     -41.401  55.243 -50.422  1.00  0.00     0.036 A 
BRANCH  20  24
HETATM   24  O   UNL     1     -39.411  51.805 -51.424  1.00  0.00    -0.329 OA
BRANCH  24  25
HETATM   25  C   UNL     1     -39.966  51.073 -52.540  1.00  0.00     0.130 C 
HETATM   26  C   UNL     1     -39.633  49.559 -52.631  1.00  0.00     0.032 C 
HETATM   27  C   UNL     1     -39.503  49.744 -54.153  1.00  0.00     0.005 C 
HETATM   28  C   UNL     1     -39.190  51.226 -53.875  1.00  0.00     0.032 C 
ENDBRANCH  24  25
ENDBRANCH  20  24
ENDBRANCH   2  18
TORSDOF 6
ENDMDL
MODEL 6
REMARK VINA RESULT:      -7.1      2.269      8.438
REMARK  6 active torsions:
REMARK  status: ('A' for Active; 'I' for Inactive)
REMARK    1  A    between atoms: C_2  and  C_3 
REMARK       I    between atoms: C_3  and  N_4 
REMARK    2  A    between atoms: N_4  and  C_5 
REMARK    3  A    between atoms: C_7  and  N_8 
REMARK       I    between atoms: N_8  and  C_9 
REMARK    4  A    between atoms: C_9  and  C_10 
REMARK    5  A    between atoms: C_12  and  O_13 
REMARK    6  A    between atoms: O_13  and  C_14 
ROOT
HETATM    1  N   UNL     1     -41.396  55.552 -55.641  1.00  0.00    -0.322 N 
HETATM    2  C   UNL     1     -42.554  55.286 -56.353  1.00  0.00     0.256 C 
HETATM    3  O   UNL     1     -43.378  54.424 -56.062  1.00  0.00    -0.267 OA
HETATM    4  H   UNL     1     -40.671  56.090 -56.085  1.00  0.00     0.169 HD
ENDROOT
BRANCH   1   5
HETATM    5  C   UNL     1     -41.107  55.095 -54.328  1.00  0.00     0.043 A 
HETATM    6  C   UNL     1     -40.720  53.764 -54.085  1.00  0.00     0.059 A 
HETATM    7  C   UNL     1     -40.508  53.291 -52.788  1.00  0.00     0.036 A 
HETATM    8  C   UNL     1     -40.657  54.173 -51.718  1.00  0.00     0.030 A 
HETATM    9  C   UNL     1     -41.045  55.496 -51.939  1.00  0.00     0.011 A 
HETATM   10  C   UNL     1     -41.277  55.972 -53.239  1.00  0.00    -0.035 A 
HETATM   11  C   UNL     1     -41.705  57.404 -53.407  1.00  0.00     0.050 C 
BRANCH   7  12
HETATM   12  N   UNL     1     -40.154  51.958 -52.481  1.00  0.00    -0.327 N 
HETATM   13  C   UNL     1     -39.899  50.927 -53.367  1.00  0.00     0.221 C 
HETATM   14  O   UNL     1     -40.021  50.959 -54.588  1.00  0.00    -0.273 OA
HETATM   15  H   UNL     1     -40.145  51.720 -51.498  1.00  0.00     0.169 HD
BRANCH  13  16
HETATM   16  C   UNL     1     -39.493  49.636 -52.676  1.00  0.00     0.098 C 
HETATM   17  C   UNL     1     -39.570  49.730 -51.163  1.00  0.00     0.014 C 
ENDBRANCH  13  16
ENDBRANCH   7  12
ENDBRANCH   1   5
BRANCH   2  18
HETATM   18  C   UNL     1     -42.818  56.099 -57.576  1.00  0.00     0.037 A 
HETATM   19  C   UNL     1     -42.901  57.491 -57.592  1.00  0.00     0.075 A 
HETATM   20  C   UNL     1     -43.187  58.104 -58.801  1.00  0.00     0.165 A 
HETATM   21  N   UNL     1     -43.385  57.447 -59.961  1.00  0.00    -0.237 NA
HETATM   22  C   UNL     1     -43.287  56.106 -59.924  1.00  0.00     0.120 A 
HETATM   23  C   UNL     1     -43.009  55.397 -58.772  1.00  0.00     0.036 A 
BRANCH  20  24
HETATM   24  O   UNL     1     -43.270  59.485 -58.793  1.00  0.00    -0.329 OA
BRANCH  24  25
HETATM   25  C   UNL     1     -42.044  60.189 -59.095  1.00  0.00     0.130 C 
HETATM   26  C   UNL     1     -41.211  60.709 -57.892  1.00  0.00     0.032 C 
HETATM   27  C   UNL     1     -40.925  61.974 -58.720  1.00  0.00     0.005 C 
HETATM   28  C   UNL     1     -42.225  61.679 -59.490  1.00  0.00     0.032 C 
ENDBRANCH  24  25
ENDBRANCH  20  24
ENDBRANCH   2  18
TORSDOF 6
ENDMDL
MODEL 7
REMARK VINA RESULT:      -7.0      1.535      8.077
REMARK  6 active torsions:
REMARK  status: ('A' for Active; 'I' for Inactive)
REMARK    1  A    between atoms: C_2  and  C_3 
REMARK       I    between atoms: C_3  and  N_4 
REMARK    2  A    between atoms: N_4  and  C_5 
REMARK    3  A    between atoms: C_7  and  N_8 
REMARK       I    between atoms: N_8  and  C_9 
REMARK    4  A    between atoms: C_9  and  C_10 
REMARK    5  A    between atoms: C_12  and  O_13 
REMARK    6  A    between atoms: O_13  and  C_14 
ROOT
HETATM    1  N   UNL     1     -41.413  56.219 -54.212  1.00  0.00    -0.322 N 
HETATM    2  C   UNL     1     -42.625  56.187 -54.882  1.00  0.00     0.256 C 
HETATM    3  O   UNL     1     -43.540  55.403 -54.649  1.00  0.00    -0.267 OA
HETATM    4  H   UNL     1     -40.644  56.716 -54.630  1.00  0.00     0.169 HD
ENDROOT
BRANCH   1   5
HETATM    5  C   UNL     1     -41.130  55.570 -52.981  1.00  0.00     0.043 A 
HETATM    6  C   UNL     1     -40.769  54.211 -52.937  1.00  0.00     0.059 A 
HETATM    7  C   UNL     1     -40.564  53.549 -51.724  1.00  0.00     0.036 A 
HETATM    8  C   UNL     1     -40.692  54.269 -50.536  1.00  0.00     0.030 A 
HETATM    9  C   UNL     1     -41.053  55.617 -50.560  1.00  0.00     0.011 A 
HETATM   10  C   UNL     1     -41.279  56.282 -51.775  1.00  0.00    -0.035 A 
HETATM   11  C   UNL     1     -41.678  57.732 -51.730  1.00  0.00     0.050 C 
BRANCH   7  12
HETATM   12  N   UNL     1     -40.236  52.179 -51.616  1.00  0.00    -0.327 N 
HETATM   13  C   UNL     1     -39.676  51.367 -52.587  1.00  0.00     0.221 C 
HETATM   14  O   UNL     1     -39.442  51.668 -53.753  1.00  0.00    -0.273 OA
HETATM   15  H   UNL     1     -40.498  51.731 -50.748  1.00  0.00     0.169 HD
BRANCH  13  16
HETATM   16  C   UNL     1     -39.412  49.953 -52.097  1.00  0.00     0.098 C 
HETATM   17  C   UNL     1     -39.715  49.775 -50.620  1.00  0.00     0.014 C 
ENDBRANCH  13  16
ENDBRANCH   7  12
ENDBRANCH   1   5
BRANCH   2  18
HETATM   18  C   UNL     1     -42.833  57.173 -55.983  1.00  0.00     0.037 A 
HETATM   19  C   UNL     1     -43.416  56.869 -57.213  1.00  0.00     0.075 A 
HETATM   20  C   UNL     1     -43.509  57.884 -58.150  1.00  0.00     0.165 A 
HETATM   21  N   UNL     1     -43.078  59.146 -57.952  1.00  0.00    -0.237 NA
HETATM   22  C   UNL     1     -42.529  59.420 -56.754  1.00  0.00     0.120 A 
HETATM   23  C   UNL     1     -42.387  58.481 -55.752  1.00  0.00     0.036 A 
BRANCH  20  24
HETATM   24  O   UNL     1     -44.086  57.560 -59.364  1.00  0.00    -0.329 OA
BRANCH  24  25
HETATM   25  C   UNL     1     -45.377  56.911 -59.292  1.00  0.00     0.130 C 
HETATM   26  C   UNL     1     -45.644  55.751 -60.289  1.00  0.00     0.032 C 
HETATM   27  C   UNL     1     -47.078  56.290 -60.432  1.00  0.00     0.005 C 
HETATM   28  C   UNL     1     -46.528  57.665 -60.008  1.00  0.00     0.032 C 
ENDBRANCH  24  25
ENDBRANCH  20  24
ENDBRANCH   2  18
TORSDOF 6
ENDMDL
MODEL 8
REMARK VINA RESULT:      -6.9      2.784      8.663
REMARK  6 active torsions:
REMARK  status: ('A' for Active; 'I' for Inactive)
REMARK    1  A    between atoms: C_2  and  C_3 
REMARK       I    between atoms: C_3  and  N_4 
REMARK    2  A    between atoms: N_4  and  C_5 
REMARK    3  A    between atoms: C_7  and  N_8 
REMARK       I    between atoms: N_8  and  C_9 
REMARK    4  A    between atoms: C_9  and  C_10 
REMARK    5  A    between atoms: C_12  and  O_13 
REMARK    6  A    between atoms: O_13  and  C_14 
ROOT
HETATM    1  N   UNL     1     -41.600  55.733 -55.862  1.00  0.00    -0.322 N 
HETATM    2  C   UNL     1     -42.725  55.308 -56.548  1.00  0.00     0.256 C 
HETATM    3  O   UNL     1     -43.602  54.584 -56.086  1.00  0.00    -0.267 OA
HETATM    4  H   UNL     1     -40.828  56.107 -56.387  1.00  0.00     0.169 HD
ENDROOT
BRANCH   1   5
HETATM    5  C   UNL     1     -41.409  55.657 -54.457  1.00  0.00     0.043 A 
HETATM    6  C   UNL     1     -41.647  56.766 -53.624  1.00  0.00     0.059 A 
HETATM    7  C   UNL     1     -41.389  56.719 -52.252  1.00  0.00     0.036 A 
HETATM    8  C   UNL     1     -40.911  55.530 -51.699  1.00  0.00     0.030 A 
HETATM    9  C   UNL     1     -40.664  54.421 -52.510  1.00  0.00     0.011 A 
HETATM   10  C   UNL     1     -40.905  54.468 -53.892  1.00  0.00    -0.035 A 
HETATM   11  C   UNL     1     -40.605  53.243 -54.710  1.00  0.00     0.050 C 
BRANCH   7  12
HETATM   12  N   UNL     1     -41.575  57.810 -51.375  1.00  0.00    -0.327 N 
HETATM   13  C   UNL     1     -40.879  59.005 -51.354  1.00  0.00     0.221 C 
HETATM   14  O   UNL     1     -39.907  59.302 -52.043  1.00  0.00    -0.273 OA
HETATM   15  H   UNL     1     -42.257  57.672 -50.640  1.00  0.00     0.169 HD
BRANCH  13  16
HETATM   16  C   UNL     1     -41.389  59.972 -50.300  1.00  0.00     0.098 C 
HETATM   17  C   UNL     1     -42.621  60.737 -50.750  1.00  0.00     0.014 C 
ENDBRANCH  13  16
ENDBRANCH   7  12
ENDBRANCH   1   5
BRANCH   2  18
HETATM   18  C   UNL     1     -42.880  55.752 -57.965  1.00  0.00     0.037 A 
HETATM   19  C   UNL     1     -42.164  56.799 -58.544  1.00  0.00     0.075 A 
HETATM   20  C   UNL     1     -42.445  57.118 -59.862  1.00  0.00     0.165 A 
HETATM   21  N   UNL     1     -43.358  56.483 -60.622  1.00  0.00    -0.237 NA
HETATM   22  C   UNL     1     -44.029  55.468 -60.047  1.00  0.00     0.120 A 
HETATM   23  C   UNL     1     -43.827  55.071 -58.740  1.00  0.00     0.036 A 
BRANCH  20  24
HETATM   24  O   UNL     1     -41.726  58.163 -60.416  1.00  0.00    -0.329 OA
BRANCH  24  25
HETATM   25  C   UNL     1     -42.399  59.442 -60.442  1.00  0.00     0.130 C 
HETATM   26  C   UNL     1     -41.888  60.491 -61.468  1.00  0.00     0.032 C 
HETATM   27  C   UNL     1     -42.110  61.562 -60.386  1.00  0.00     0.005 C 
HETATM   28  C   UNL     1     -41.951  60.441 -59.342  1.00  0.00     0.032 C 
ENDBRANCH  24  25
ENDBRANCH  20  24
ENDBRANCH   2  18
TORSDOF 6
ENDMDL
MODEL 9
REMARK VINA RESULT:      -6.9      1.898      7.745
REMARK  6 active torsions:
REMARK  status: ('A' for Active; 'I' for Inactive)
REMARK    1  A    between atoms: C_2  and  C_3 
REMARK       I    between atoms: C_3  and  N_4 
REMARK    2  A    between atoms: N_4  and  C_5 
REMARK    3  A    between atoms: C_7  and  N_8 
REMARK       I    between atoms: N_8  and  C_9 
REMARK    4  A    between atoms: C_9  and  C_10 
REMARK    5  A    between atoms: C_12  and  O_13 
REMARK    6  A    between atoms: O_13  and  C_14 
ROOT
HETATM    1  N   UNL     1     -42.207  56.131 -52.792  1.00  0.00    -0.322 N 
HETATM    2  C   UNL     1     -41.767  57.227 -53.516  1.00  0.00     0.256 C 
HETATM    3  O   UNL     1     -40.631  57.690 -53.474  1.00  0.00    -0.267 OA
HETATM    4  H   UNL     1     -43.198  55.982 -52.698  1.00  0.00     0.169 HD
ENDROOT
BRANCH   1   5
HETATM    5  C   UNL     1     -41.377  55.195 -52.121  1.00  0.00     0.043 A 
HETATM    6  C   UNL     1     -40.999  53.984 -52.730  1.00  0.00     0.059 A 
HETATM    7  C   UNL     1     -40.245  53.027 -52.046  1.00  0.00     0.036 A 
HETATM    8  C   UNL     1     -39.839  53.299 -50.740  1.00  0.00     0.030 A 
HETATM    9  C   UNL     1     -40.209  54.493 -50.117  1.00  0.00     0.011 A 
HETATM   10  C   UNL     1     -40.981  55.451 -50.793  1.00  0.00    -0.035 A 
HETATM   11  C   UNL     1     -41.356  56.709 -50.060  1.00  0.00     0.050 C 
BRANCH   7  12
HETATM   12  N   UNL     1     -39.866  51.781 -52.593  1.00  0.00    -0.327 N 
HETATM   13  C   UNL     1     -39.725  50.575 -51.928  1.00  0.00     0.221 C 
HETATM   14  O   UNL     1     -39.819  50.387 -50.719  1.00  0.00    -0.273 OA
HETATM   15  H   UNL     1     -39.611  51.789 -53.572  1.00  0.00     0.169 HD
BRANCH  13  16
HETATM   16  C   UNL     1     -39.353  49.428 -52.852  1.00  0.00     0.098 C 
HETATM   17  C   UNL     1     -39.459  49.796 -54.321  1.00  0.00     0.014 C 
ENDBRANCH  13  16
ENDBRANCH   7  12
ENDBRANCH   1   5
BRANCH   2  18
HETATM   18  C   UNL     1     -42.753  57.909 -54.406  1.00  0.00     0.037 A 
HETATM   19  C   UNL     1     -42.636  57.990 -55.793  1.00  0.00     0.075 A 
HETATM   20  C   UNL     1     -43.613  58.689 -56.481  1.00  0.00     0.165 A 
HETATM   21  N   UNL     1     -44.671  59.290 -55.901  1.00  0.00    -0.237 NA
HETATM   22  C   UNL     1     -44.771  59.188 -54.563  1.00  0.00     0.120 A 
HETATM   23  C   UNL     1     -43.850  58.517 -53.783  1.00  0.00     0.036 A 
BRANCH  20  24
HETATM   24  O   UNL     1     -43.475  58.761 -57.855  1.00  0.00    -0.329 OA
BRANCH  24  25
HETATM   25  C   UNL     1     -42.544  57.824 -58.443  1.00  0.00     0.130 C 
HETATM   26  C   UNL     1     -42.042  58.131 -59.880  1.00  0.00     0.032 C 
HETATM   27  C   UNL     1     -42.139  56.622 -60.167  1.00  0.00     0.005 C 
HETATM   28  C   UNL     1     -43.191  56.548 -59.044  1.00  0.00     0.032 C 
ENDBRANCH  24  25
ENDBRANCH  20  24
ENDBRANCH   2  18
TORSDOF 6
ENDMDL
MODEL 10
REMARK VINA RESULT:      -6.9      2.964      8.777
REMARK  6 active torsions:
REMARK  status: ('A' for Active; 'I' for Inactive)
REMARK    1  A    between atoms: C_2  and  C_3 
REMARK       I    between atoms: C_3  and  N_4 
REMARK    2  A    between atoms: N_4  and  C_5 
REMARK    3  A    between atoms: C_7  and  N_8 
REMARK       I    between atoms: N_8  and  C_9 
REMARK    4  A    between atoms: C_9  and  C_10 
REMARK    5  A    between atoms: C_12  and  O_13 
REMARK    6  A    between atoms: O_13  and  C_14 
ROOT
HETATM    1  N   UNL     1     -42.455  56.927 -55.905  1.00  0.00    -0.322 N 
HETATM    2  C   UNL     1     -42.893  56.758 -57.209  1.00  0.00     0.256 C 
HETATM    3  O   UNL     1     -43.066  55.675 -57.759  1.00  0.00    -0.267 OA
HETATM    4  H   UNL     1     -42.107  57.830 -55.628  1.00  0.00     0.169 HD
ENDROOT
BRANCH   1   5
HETATM    5  C   UNL     1     -42.414  55.918 -54.908  1.00  0.00     0.043 A 
HETATM    6  C   UNL     1     -41.562  54.805 -55.029  1.00  0.00     0.059 A 
HETATM    7  C   UNL     1     -41.572  53.771 -54.089  1.00  0.00     0.036 A 
HETATM    8  C   UNL     1     -42.429  53.869 -52.992  1.00  0.00     0.030 A 
HETATM    9  C   UNL     1     -43.284  54.964 -52.857  1.00  0.00     0.011 A 
HETATM   10  C   UNL     1     -43.292  55.996 -53.809  1.00  0.00    -0.035 A 
HETATM   11  C   UNL     1     -44.247  57.141 -53.611  1.00  0.00     0.050 C 
BRANCH   7  12
HETATM   12  N   UNL     1     -40.766  52.614 -54.176  1.00  0.00    -0.327 N 
HETATM   13  C   UNL     1     -39.992  52.047 -53.179  1.00  0.00     0.221 C 
HETATM   14  O   UNL     1     -39.795  52.499 -52.055  1.00  0.00    -0.273 OA
HETATM   15  H   UNL     1     -40.703  52.190 -55.093  1.00  0.00     0.169 HD
BRANCH  13  16
HETATM   16  C   UNL     1     -39.297  50.770 -53.620  1.00  0.00     0.098 C 
HETATM   17  C   UNL     1     -40.142  49.939 -54.569  1.00  0.00     0.014 C 
ENDBRANCH  13  16
ENDBRANCH   7  12
ENDBRANCH   1   5
BRANCH   2  18
HETATM   18  C   UNL     1     -43.161  57.986 -58.014  1.00  0.00     0.037 A 
HETATM   19  C   UNL     1     -42.201  58.657 -58.770  1.00  0.00     0.075 A 
HETATM   20  C   UNL     1     -42.594  59.805 -59.436  1.00  0.00     0.165 A 
HETATM   21  N   UNL     1     -43.842  60.314 -59.406  1.00  0.00    -0.237 NA
HETATM   22  C   UNL     1     -44.755  59.644 -58.680  1.00  0.00     0.120 A 
HETATM   23  C   UNL     1     -44.467  58.491 -57.977  1.00  0.00     0.036 A 
BRANCH  20  24
HETATM   24  O   UNL     1     -41.625  60.458 -60.176  1.00  0.00    -0.329 OA
BRANCH  24  25
HETATM   25  C   UNL     1     -41.361  61.828 -59.796  1.00  0.00     0.130 C 
HETATM   26  C   UNL     1     -40.262  62.585 -60.590  1.00  0.00     0.032 C 
HETATM   27  C   UNL     1     -39.827  63.220 -59.258  1.00  0.00     0.005 C 
HETATM   28  C   UNL     1     -40.446  61.997 -58.554  1.00  0.00     0.032 C 
ENDBRANCH  24  25
ENDBRANCH  20  24
ENDBRANCH   2  18
TORSDOF 6
ENDMDL
