MODEL 1
REMARK VINA RESULT:      -5.9      0.000      0.000
REMARK  2 active torsions:
REMARK  status: ('A' for Active; 'I' for Inactive)
REMARK    1  A    between atoms: S_2  and  C_3 
REMARK    2  A    between atoms: C_7  and  N_8 
ROOT
HETATM    1  C   UNL     1     -41.052  56.686 -53.521  1.00  0.00     0.060 A 
HETATM    2  C   UNL     1     -41.438  56.031 -52.354  1.00  0.00     0.044 A 
HETATM    3  C   UNL     1     -41.271  54.646 -52.262  1.00  0.00     0.033 A 
HETATM    4 BR   UNL     1     -41.878  53.802 -50.665  1.00  0.00    -0.049 Br
HETATM    5  C   UNL     1     -40.706  53.895 -53.322  1.00  0.00     0.028 A 
HETATM    6  C   UNL     1     -40.324  54.592 -54.481  1.00  0.00     0.026 A 
HETATM    7  C   UNL     1     -40.490  55.977 -54.583  1.00  0.00     0.025 A 
ENDROOT
BRANCH   5   8
HETATM    8  N   UNL     1     -40.502  52.508 -53.192  1.00  0.00    -0.279 NA
HETATM    9  C   UNL     1     -40.397  51.724 -54.436  1.00  0.00     0.123 C 
HETATM   10  C   UNL     1     -40.512  50.221 -54.102  1.00  0.00     0.247 C 
HETATM   11  N   UNL     1     -39.486  49.832 -53.058  1.00  0.00    -0.073 N 
HETATM   12  H   UNL     1     -38.543  49.911 -53.459  1.00  0.00     0.277 HD
HETATM   13  H   UNL     1     -39.619  48.846 -52.802  1.00  0.00     0.277 HD
HETATM   14  C   UNL     1     -39.573  50.686 -51.811  1.00  0.00     0.247 C 
HETATM   15  C   UNL     1     -39.478  52.182 -52.173  1.00  0.00     0.123 C 
ENDBRANCH   5   8
BRANCH   1  16
HETATM   16  S   UNL     1     -41.198  58.457 -53.614  1.00  0.00     0.171 S 
HETATM   17  C   UNL     1     -42.371  58.848 -52.344  1.00  0.00     0.167 C 
HETATM   18  O   UNL     1     -41.798  58.768 -54.898  1.00  0.00    -0.223 OA
HETATM   19  O   UNL     1     -39.908  59.000 -53.239  1.00  0.00    -0.223 OA
ENDBRANCH   1  16
TORSDOF 2
ENDMDL
MODEL 2
REMARK VINA RESULT:      -5.9      4.220      6.268
REMARK  2 active torsions:
REMARK  status: ('A' for Active; 'I' for Inactive)
REMARK    1  A    between atoms: S_2  and  C_3 
REMARK    2  A    between atoms: C_7  and  N_8 
ROOT
HETATM    1  C   UNL     1     -40.231  52.009 -53.456  1.00  0.00     0.060 A 
HETATM    2  C   UNL     1     -40.093  52.453 -52.143  1.00  0.00     0.044 A 
HETATM    3  C   UNL     1     -40.445  53.769 -51.826  1.00  0.00     0.033 A 
HETATM    4 BR   UNL     1     -40.172  54.333 -50.027  1.00  0.00    -0.049 Br
HETATM    5  C   UNL     1     -40.954  54.655 -52.807  1.00  0.00     0.028 A 
HETATM    6  C   UNL     1     -41.085  54.169 -54.119  1.00  0.00     0.026 A 
HETATM    7  C   UNL     1     -40.731  52.856 -54.445  1.00  0.00     0.025 A 
ENDROOT
BRANCH   5   8
HETATM    8  N   UNL     1     -41.348  55.962 -52.459  1.00  0.00    -0.279 NA
HETATM    9  C   UNL     1     -40.888  57.058 -53.330  1.00  0.00     0.123 C 
HETATM   10  C   UNL     1     -41.128  58.408 -52.621  1.00  0.00     0.247 C 
HETATM   11  N   UNL     1     -42.579  58.537 -52.210  1.00  0.00    -0.073 N 
HETATM   12  H   UNL     1     -43.169  58.606 -53.049  1.00  0.00     0.277 HD
HETATM   13  H   UNL     1     -42.707  59.410 -51.685  1.00  0.00     0.277 HD
HETATM   14  C   UNL     1     -43.050  57.373 -51.363  1.00  0.00     0.247 C 
HETATM   15  C   UNL     1     -42.778  56.037 -52.083  1.00  0.00     0.123 C 
ENDBRANCH   5   8
BRANCH   1  16
HETATM   16  S   UNL     1     -39.849  50.315 -53.846  1.00  0.00     0.171 S 
HETATM   17  C   UNL     1     -39.673  49.548 -52.258  1.00  0.00     0.167 C 
HETATM   18  O   UNL     1     -38.554  50.310 -54.500  1.00  0.00    -0.223 OA
HETATM   19  O   UNL     1     -41.020  49.766 -54.501  1.00  0.00    -0.223 OA
ENDBRANCH   1  16
TORSDOF 2
ENDMDL
MODEL 3
REMARK VINA RESULT:      -5.7      4.306      6.418
REMARK  2 active torsions:
REMARK  status: ('A' for Active; 'I' for Inactive)
REMARK    1  A    between atoms: S_2  and  C_3 
REMARK    2  A    between atoms: C_7  and  N_8 
ROOT
HETATM    1  C   UNL     1     -40.563  52.194 -53.094  1.00  0.00     0.060 A 
HETATM    2  C   UNL     1     -41.410  52.826 -54.002  1.00  0.00     0.044 A 
HETATM    3  C   UNL     1     -42.021  54.031 -53.643  1.00  0.00     0.033 A 
HETATM    4 BR   UNL     1     -43.217  54.809 -54.905  1.00  0.00    -0.049 Br
HETATM    5  C   UNL     1     -41.787  54.632 -52.382  1.00  0.00     0.028 A 
HETATM    6  C   UNL     1     -40.922  53.969 -51.495  1.00  0.00     0.026 A 
HETATM    7  C   UNL     1     -40.309  52.761 -51.845  1.00  0.00     0.025 A 
ENDROOT
BRANCH   5   8
HETATM    8  N   UNL     1     -42.374  55.871 -52.056  1.00  0.00    -0.279 NA
HETATM    9  C   UNL     1     -43.569  55.842 -51.193  1.00  0.00     0.123 C 
HETATM   10  C   UNL     1     -44.252  57.226 -51.222  1.00  0.00     0.247 C 
HETATM   11  N   UNL     1     -43.263  58.310 -50.845  1.00  0.00    -0.073 N 
HETATM   12  H   UNL     1     -42.996  58.202 -49.858  1.00  0.00     0.277 HD
HETATM   13  H   UNL     1     -43.716  59.227 -50.931  1.00  0.00     0.277 HD
HETATM   14  C   UNL     1     -42.018  58.287 -51.705  1.00  0.00     0.247 C 
HETATM   15  C   UNL     1     -41.369  56.889 -51.677  1.00  0.00     0.123 C 
ENDBRANCH   5   8
BRANCH   1  16
HETATM   16  S   UNL     1     -39.730  50.698 -53.575  1.00  0.00     0.171 S 
HETATM   17  C   UNL     1     -39.597  49.786 -52.061  1.00  0.00     0.167 C 
HETATM   18  O   UNL     1     -38.395  51.071 -54.001  1.00  0.00    -0.223 OA
HETATM   19  O   UNL     1     -40.629  49.991 -54.466  1.00  0.00    -0.223 OA
ENDBRANCH   1  16
TORSDOF 2
ENDMDL
MODEL 4
REMARK VINA RESULT:      -5.6      4.199      5.977
REMARK  2 active torsions:
REMARK  status: ('A' for Active; 'I' for Inactive)
REMARK    1  A    between atoms: S_2  and  C_3 
REMARK    2  A    between atoms: C_7  and  N_8 
ROOT
HETATM    1  C   UNL     1     -41.291  54.682 -51.292  1.00  0.00     0.060 A 
HETATM    2  C   UNL     1     -41.017  56.016 -51.584  1.00  0.00     0.044 A 
HETATM    3  C   UNL     1     -41.613  56.607 -52.702  1.00  0.00     0.033 A 
HETATM    4 BR   UNL     1     -41.146  58.415 -53.082  1.00  0.00    -0.049 Br
HETATM    5  C   UNL     1     -42.501  55.885 -53.537  1.00  0.00     0.028 A 
HETATM    6  C   UNL     1     -42.757  54.543 -53.207  1.00  0.00     0.026 A 
HETATM    7  C   UNL     1     -42.163  53.943 -52.092  1.00  0.00     0.025 A 
ENDROOT
BRANCH   5   8
HETATM    8  N   UNL     1     -43.128  56.512 -54.631  1.00  0.00    -0.279 NA
HETATM    9  C   UNL     1     -42.917  55.911 -55.961  1.00  0.00     0.123 C 
HETATM   10  C   UNL     1     -43.389  56.901 -57.048  1.00  0.00     0.247 C 
HETATM   11  N   UNL     1     -44.824  57.315 -56.796  1.00  0.00    -0.073 N 
HETATM   12  H   UNL     1     -45.443  56.506 -56.932  1.00  0.00     0.277 HD
HETATM   13  H   UNL     1     -45.101  58.021 -57.489  1.00  0.00     0.277 HD
HETATM   14  C   UNL     1     -45.033  57.876 -55.405  1.00  0.00     0.247 C 
HETATM   15  C   UNL     1     -44.532  56.879 -54.341  1.00  0.00     0.123 C 
ENDBRANCH   5   8
BRANCH   1  16
HETATM   16  S   UNL     1     -40.589  53.948 -49.831  1.00  0.00     0.171 S 
HETATM   17  C   UNL     1     -40.425  52.236 -50.259  1.00  0.00     0.167 C 
HETATM   18  O   UNL     1     -41.581  54.061 -48.779  1.00  0.00    -0.223 OA
HETATM   19  O   UNL     1     -39.266  54.518 -49.676  1.00  0.00    -0.223 OA
ENDBRANCH   1  16
TORSDOF 2
ENDMDL
MODEL 5
REMARK VINA RESULT:      -5.6      4.964      6.266
REMARK  2 active torsions:
REMARK  status: ('A' for Active; 'I' for Inactive)
REMARK    1  A    between atoms: S_2  and  C_3 
REMARK    2  A    between atoms: C_7  and  N_8 
ROOT
HETATM    1  C   UNL     1     -43.197  56.234 -57.824  1.00  0.00     0.060 A 
HETATM    2  C   UNL     1     -42.831  55.180 -56.989  1.00  0.00     0.044 A 
HETATM    3  C   UNL     1     -42.720  55.404 -55.614  1.00  0.00     0.033 A 
HETATM    4 BR   UNL     1     -42.153  53.937 -54.537  1.00  0.00    -0.049 Br
HETATM    5  C   UNL     1     -42.984  56.675 -55.047  1.00  0.00     0.028 A 
HETATM    6  C   UNL     1     -43.356  57.712 -55.919  1.00  0.00     0.026 A 
HETATM    7  C   UNL     1     -43.467  57.498 -57.297  1.00  0.00     0.025 A 
ENDROOT
BRANCH   5   8
HETATM    8  N   UNL     1     -42.913  56.869 -53.654  1.00  0.00    -0.279 NA
HETATM    9  C   UNL     1     -41.763  57.635 -53.140  1.00  0.00     0.123 C 
HETATM   10  C   UNL     1     -41.677  57.459 -51.608  1.00  0.00     0.247 C 
HETATM   11  N   UNL     1     -42.991  57.840 -50.959  1.00  0.00    -0.073 N 
HETATM   12  H   UNL     1     -43.148  58.850 -51.070  1.00  0.00     0.277 HD
HETATM   13  H   UNL     1     -42.937  57.657 -49.950  1.00  0.00     0.277 HD
HETATM   14  C   UNL     1     -44.168  57.085 -51.540  1.00  0.00     0.247 C 
HETATM   15  C   UNL     1     -44.217  57.258 -53.072  1.00  0.00     0.123 C 
ENDBRANCH   5   8
BRANCH   1  16
HETATM   16  S   UNL     1     -43.407  55.935 -59.565  1.00  0.00     0.171 S 
HETATM   17  C   UNL     1     -44.517  57.218 -60.080  1.00  0.00     0.167 C 
HETATM   18  O   UNL     1     -44.090  54.662 -59.699  1.00  0.00    -0.223 OA
HETATM   19  O   UNL     1     -42.116  56.160 -60.183  1.00  0.00    -0.223 OA
ENDBRANCH   1  16
TORSDOF 2
ENDMDL
MODEL 6
REMARK VINA RESULT:      -5.4      3.210      4.039
REMARK  2 active torsions:
REMARK  status: ('A' for Active; 'I' for Inactive)
REMARK    1  A    between atoms: S_2  and  C_3 
REMARK    2  A    between atoms: C_7  and  N_8 
ROOT
HETATM    1  C   UNL     1     -42.755  56.081 -56.427  1.00  0.00     0.060 A 
HETATM    2  C   UNL     1     -42.218  56.911 -55.445  1.00  0.00     0.044 A 
HETATM    3  C   UNL     1     -41.812  56.356 -54.228  1.00  0.00     0.033 A 
HETATM    4 BR   UNL     1     -41.146  57.554 -52.905  1.00  0.00    -0.049 Br
HETATM    5  C   UNL     1     -41.920  54.966 -53.976  1.00  0.00     0.028 A 
HETATM    6  C   UNL     1     -42.461  54.160 -54.992  1.00  0.00     0.026 A 
HETATM    7  C   UNL     1     -42.873  54.708 -56.211  1.00  0.00     0.025 A 
ENDROOT
BRANCH   5   8
HETATM    8  N   UNL     1     -41.462  54.419 -52.762  1.00  0.00    -0.279 NA
HETATM    9  C   UNL     1     -42.439  54.305 -51.664  1.00  0.00     0.123 C 
HETATM   10  C   UNL     1     -41.692  54.007 -50.346  1.00  0.00     0.247 C 
HETATM   11  N   UNL     1     -40.817  52.780 -50.501  1.00  0.00    -0.073 N 
HETATM   12  H   UNL     1     -41.410  51.950 -50.627  1.00  0.00     0.277 HD
HETATM   13  H   UNL     1     -40.280  52.635 -49.638  1.00  0.00     0.277 HD
HETATM   14  C   UNL     1     -39.860  52.893 -51.669  1.00  0.00     0.247 C 
HETATM   15  C   UNL     1     -40.628  53.213 -52.967  1.00  0.00     0.123 C 
ENDBRANCH   5   8
BRANCH   1  16
HETATM   16  S   UNL     1     -43.208  56.775 -58.001  1.00  0.00     0.171 S 
HETATM   17  C   UNL     1     -42.110  58.155 -58.184  1.00  0.00     0.167 C 
HETATM   18  O   UNL     1     -44.560  57.284 -57.870  1.00  0.00    -0.223 OA
HETATM   19  O   UNL     1     -42.876  55.781 -59.003  1.00  0.00    -0.223 OA
ENDBRANCH   1  16
TORSDOF 2
ENDMDL
MODEL 7
REMARK VINA RESULT:      -5.3     14.351     15.389
REMARK  2 active torsions:
REMARK  status: ('A' for Active; 'I' for Inactive)
REMARK    1  A    between atoms: S_2  and  C_3 
REMARK    2  A    between atoms: C_7  and  N_8 
ROOT
HETATM    1  C   UNL     1     -36.795  41.024 -57.358  1.00  0.00     0.060 A 
HETATM    2  C   UNL     1     -35.447  40.731 -57.165  1.00  0.00     0.044 A 
HETATM    3  C   UNL     1     -34.920  40.756 -55.870  1.00  0.00     0.033 A 
HETATM    4 BR   UNL     1     -33.056  40.408 -55.682  1.00  0.00    -0.049 Br
HETATM    5  C   UNL     1     -35.730  41.059 -54.748  1.00  0.00     0.028 A 
HETATM    6  C   UNL     1     -37.086  41.344 -54.982  1.00  0.00     0.026 A 
HETATM    7  C   UNL     1     -37.620  41.324 -56.274  1.00  0.00     0.025 A 
ENDROOT
BRANCH   5   8
HETATM    8  N   UNL     1     -35.192  41.033 -53.446  1.00  0.00    -0.279 NA
HETATM    9  C   UNL     1     -35.492  42.181 -52.572  1.00  0.00     0.123 C 
HETATM   10  C   UNL     1     -34.566  42.138 -51.338  1.00  0.00     0.247 C 
HETATM   11  N   UNL     1     -34.685  40.801 -50.636  1.00  0.00    -0.073 N 
HETATM   12  H   UNL     1     -35.624  40.711 -50.227  1.00  0.00     0.277 HD
HETATM   13  H   UNL     1     -34.017  40.766 -49.857  1.00  0.00     0.277 HD
HETATM   14  C   UNL     1     -34.429  39.632 -51.564  1.00  0.00     0.247 C 
HETATM   15  C   UNL     1     -35.350  39.712 -52.798  1.00  0.00     0.123 C 
ENDBRANCH   5   8
BRANCH   1  16
HETATM   16  S   UNL     1     -37.482  40.924 -58.997  1.00  0.00     0.171 S 
HETATM   17  C   UNL     1     -36.484  39.695 -59.795  1.00  0.00     0.167 C 
HETATM   18  O   UNL     1     -37.235  42.200 -59.641  1.00  0.00    -0.223 OA
HETATM   19  O   UNL     1     -38.828  40.408 -58.851  1.00  0.00    -0.223 OA
ENDBRANCH   1  16
TORSDOF 2
ENDMDL
MODEL 8
REMARK VINA RESULT:      -5.3      4.228      6.340
REMARK  2 active torsions:
REMARK  status: ('A' for Active; 'I' for Inactive)
REMARK    1  A    between atoms: S_2  and  C_3 
REMARK    2  A    between atoms: C_7  and  N_8 
ROOT
HETATM    1  C   UNL     1     -41.291  54.854 -50.868  1.00  0.00     0.060 A 
HETATM    2  C   UNL     1     -41.522  54.271 -52.112  1.00  0.00     0.044 A 
HETATM    3  C   UNL     1     -42.152  55.018 -53.110  1.00  0.00     0.033 A 
HETATM    4 BR   UNL     1     -42.496  54.142 -54.767  1.00  0.00    -0.049 Br
HETATM    5  C   UNL     1     -42.549  56.361 -52.891  1.00  0.00     0.028 A 
HETATM    6  C   UNL     1     -42.294  56.916 -51.626  1.00  0.00     0.026 A 
HETATM    7  C   UNL     1     -41.666  56.174 -50.620  1.00  0.00     0.025 A 
ENDROOT
BRANCH   5   8
HETATM    8  N   UNL     1     -43.141  57.113 -53.925  1.00  0.00    -0.279 NA
HETATM    9  C   UNL     1     -44.592  57.356 -53.834  1.00  0.00     0.123 C 
HETATM   10  C   UNL     1     -45.105  57.891 -55.188  1.00  0.00     0.247 C 
HETATM   11  N   UNL     1     -44.316  59.115 -55.605  1.00  0.00    -0.073 N 
HETATM   12  H   UNL     1     -44.515  59.888 -54.957  1.00  0.00     0.277 HD
HETATM   13  H   UNL     1     -44.627  59.419 -56.535  1.00  0.00     0.277 HD
HETATM   14  C   UNL     1     -42.823  58.861 -55.637  1.00  0.00     0.247 C 
HETATM   15  C   UNL     1     -42.341  58.306 -54.282  1.00  0.00     0.123 C 
ENDBRANCH   5   8
BRANCH   1  16
HETATM   16  S   UNL     1     -40.425  53.928 -49.619  1.00  0.00     0.171 S 
HETATM   17  C   UNL     1     -40.406  52.275 -50.260  1.00  0.00     0.167 C 
HETATM   18  O   UNL     1     -41.252  53.944 -48.428  1.00  0.00    -0.223 OA
HETATM   19  O   UNL     1     -39.067  54.432 -49.595  1.00  0.00    -0.223 OA
ENDBRANCH   1  16
TORSDOF 2
ENDMDL
MODEL 9
REMARK VINA RESULT:      -5.1      5.179      6.871
REMARK  2 active torsions:
REMARK  status: ('A' for Active; 'I' for Inactive)
REMARK    1  A    between atoms: S_2  and  C_3 
REMARK    2  A    between atoms: C_7  and  N_8 
ROOT
HETATM    1  C   UNL     1     -42.224  55.401 -54.291  1.00  0.00     0.060 A 
HETATM    2  C   UNL     1     -42.153  56.784 -54.441  1.00  0.00     0.044 A 
HETATM    3  C   UNL     1     -42.459  57.353 -55.681  1.00  0.00     0.033 A 
HETATM    4 BR   UNL     1     -42.279  59.244 -55.837  1.00  0.00    -0.049 Br
HETATM    5  C   UNL     1     -42.853  56.557 -56.784  1.00  0.00     0.028 A 
HETATM    6  C   UNL     1     -42.919  55.167 -56.593  1.00  0.00     0.026 A 
HETATM    7  C   UNL     1     -42.612  54.588 -55.357  1.00  0.00     0.025 A 
ENDROOT
BRANCH   5   8
HETATM    8  N   UNL     1     -43.203  57.154 -58.012  1.00  0.00    -0.279 NA
HETATM    9  C   UNL     1     -42.674  56.528 -59.238  1.00  0.00     0.123 C 
HETATM   10  C   UNL     1     -42.878  57.490 -60.428  1.00  0.00     0.247 C 
HETATM   11  N   UNL     1     -44.334  57.892 -60.539  1.00  0.00    -0.073 N 
HETATM   12  H   UNL     1     -44.897  57.072 -60.801  1.00  0.00     0.277 HD
HETATM   13  H   UNL     1     -44.440  58.579 -61.294  1.00  0.00     0.277 HD
HETATM   14  C   UNL     1     -44.874  58.479 -59.252  1.00  0.00     0.247 C 
HETATM   15  C   UNL     1     -44.638  57.510 -58.076  1.00  0.00     0.123 C 
ENDBRANCH   5   8
BRANCH   1  16
HETATM   16  S   UNL     1     -41.904  54.680 -52.697  1.00  0.00     0.171 S 
HETATM   17  C   UNL     1     -40.632  53.488 -53.023  1.00  0.00     0.167 C 
HETATM   18  O   UNL     1     -43.104  53.968 -52.302  1.00  0.00    -0.223 OA
HETATM   19  O   UNL     1     -41.352  55.734 -51.868  1.00  0.00    -0.223 OA
ENDBRANCH   1  16
TORSDOF 2
ENDMDL
MODEL 10
REMARK VINA RESULT:      -5.1     15.438     17.448
REMARK  2 active torsions:
REMARK  status: ('A' for Active; 'I' for Inactive)
REMARK    1  A    between atoms: S_2  and  C_3 
REMARK    2  A    between atoms: C_7  and  N_8 
ROOT
HETATM    1  C   UNL     1     -36.765  38.767 -61.119  1.00  0.00     0.060 A 
HETATM    2  C   UNL     1     -35.849  38.319 -60.170  1.00  0.00     0.044 A 
HETATM    3  C   UNL     1     -35.761  38.977 -58.940  1.00  0.00     0.033 A 
HETATM    4 BR   UNL     1     -34.444  38.354 -57.712  1.00  0.00    -0.049 Br
HETATM    5  C   UNL     1     -36.593  40.082 -58.631  1.00  0.00     0.028 A 
HETATM    6  C   UNL     1     -37.508  40.501 -59.611  1.00  0.00     0.026 A 
HETATM    7  C   UNL     1     -37.601  39.850 -60.845  1.00  0.00     0.025 A 
ENDROOT
BRANCH   5   8
HETATM    8  N   UNL     1     -36.523  40.702 -57.368  1.00  0.00    -0.279 NA
HETATM    9  C   UNL     1     -35.830  42.002 -57.296  1.00  0.00     0.123 C 
HETATM   10  C   UNL     1     -35.565  42.356 -55.816  1.00  0.00     0.247 C 
HETATM   11  N   UNL     1     -36.856  42.318 -55.026  1.00  0.00    -0.073 N 
HETATM   12  H   UNL     1     -37.474  43.077 -55.340  1.00  0.00     0.277 HD
HETATM   13  H   UNL     1     -36.653  42.492 -54.034  1.00  0.00     0.277 HD
HETATM   14  C   UNL     1     -37.581  40.995 -55.159  1.00  0.00     0.247 C 
HETATM   15  C   UNL     1     -37.813  40.654 -56.645  1.00  0.00     0.123 C 
ENDBRANCH   5   8
BRANCH   1  16
HETATM   16  S   UNL     1     -36.927  37.888 -62.657  1.00  0.00     0.171 S 
HETATM   17  C   UNL     1     -38.440  36.983 -62.466  1.00  0.00     0.167 C 
HETATM   18  O   UNL     1     -35.834  36.937 -62.722  1.00  0.00    -0.223 OA
HETATM   19  O   UNL     1     -37.111  38.888 -63.690  1.00  0.00    -0.223 OA
ENDBRANCH   1  16
TORSDOF 2
ENDMDL
