MODEL 1
REMARK VINA RESULT:      -8.9      0.000      0.000
REMARK  6 active torsions:
REMARK  status: ('A' for Active; 'I' for Inactive)
REMARK    1  A    between atoms: O_2  and  C_3 
REMARK    2  A    between atoms: C_6  and  C_7 
REMARK    3  A    between atoms: C_13  and  C_14 
REMARK       I    between atoms: C_14  and  N_15 
REMARK    4  A    between atoms: N_15  and  C_16 
REMARK    5  A    between atoms: C_16  and  C_17 
REMARK    6  A    between atoms: C_24  and  C_25 
ROOT
HETATM    1  C   UNL     1     -42.632  57.697 -54.682  1.00  0.00     0.118 C 
HETATM    2  N   UNL     1     -42.193  56.620 -53.785  1.00  0.00    -0.365 N 
HETATM    3  C   UNL     1     -41.679  56.922 -52.557  1.00  0.00     0.138 A 
HETATM    4  N   UNL     1     -41.393  58.225 -52.218  1.00  0.00    -0.240 N 
HETATM    5  N   UNL     1     -40.848  58.374 -51.004  1.00  0.00    -0.181 NA
HETATM    6  C   UNL     1     -40.847  57.131 -50.521  1.00  0.00     0.160 A 
HETATM    7  C   UNL     1     -41.335  56.170 -51.445  1.00  0.00     0.096 A 
HETATM    8  C   UNL     1     -41.633  59.375 -53.068  1.00  0.00     0.221 C 
HETATM    9  C   UNL     1     -41.713  58.923 -54.531  1.00  0.00     0.066 C 
HETATM   10  H   UNL     1     -42.779  55.787 -53.878  1.00  0.00     0.161 HD
ENDROOT
BRANCH   7  11
HETATM   11  C   UNL     1     -41.405  54.743 -51.195  1.00  0.00     0.257 C 
HETATM   12  N   UNL     1     -40.207  54.069 -51.241  1.00  0.00    -0.352 N 
HETATM   13  H   UNL     1     -39.364  54.626 -51.209  1.00  0.00     0.163 HD
HETATM   14  O   UNL     1     -42.465  54.191 -50.920  1.00  0.00    -0.267 OA
BRANCH  12  15
HETATM   15  C   UNL     1     -40.137  52.689 -50.827  1.00  0.00     0.161 C 
BRANCH  15  16
HETATM   16  C   UNL     1     -40.003  51.768 -52.007  1.00  0.00    -0.041 A 
HETATM   17  C   UNL     1     -39.650  50.422 -51.829  1.00  0.00     0.009 A 
HETATM   18  C   UNL     1     -39.536  49.572 -52.930  1.00  0.00     0.001 A 
HETATM   19  C   UNL     1     -39.766  50.056 -54.216  1.00  0.00     0.000 A 
HETATM   20  C   UNL     1     -40.104  51.394 -54.405  1.00  0.00     0.001 A 
HETATM   21  C   UNL     1     -40.217  52.248 -53.307  1.00  0.00     0.009 A 
ENDBRANCH  15  16
ENDBRANCH  12  15
ENDBRANCH   7  11
BRANCH   1  22
HETATM   22  C   UNL     1     -42.632  57.221 -56.123  1.00  0.00    -0.035 A 
HETATM   23  C   UNL     1     -42.923  55.881 -56.416  1.00  0.00     0.012 A 
HETATM   24  C   UNL     1     -43.024  55.450 -57.741  1.00  0.00     0.037 A 
HETATM   25  C   UNL     1     -42.851  56.347 -58.796  1.00  0.00     0.068 A 
HETATM   26  C   UNL     1     -42.526  57.672 -58.517  1.00  0.00     0.037 A 
HETATM   27  C   UNL     1     -42.416  58.106 -57.191  1.00  0.00     0.012 A 
BRANCH  25  28
HETATM   28  O   UNL     1     -43.011  55.808 -60.042  1.00  0.00    -0.356 OA
HETATM   29  C   UNL     1     -44.333  55.406 -60.387  1.00  0.00     0.210 C 
ENDBRANCH  25  28
ENDBRANCH   1  22
BRANCH   8  30
HETATM   30  C   UNL     1     -42.884  60.101 -52.620  1.00  0.00     0.409 C 
HETATM   31  F   UNL     1     -43.524  60.725 -53.632  1.00  0.00    -0.169 F 
HETATM   32  F   UNL     1     -43.771  59.294 -52.003  1.00  0.00    -0.169 F 
HETATM   33  F   UNL     1     -42.555  61.066 -51.721  1.00  0.00    -0.169 F 
ENDBRANCH   8  30
TORSDOF 6
ENDMDL
MODEL 2
REMARK VINA RESULT:      -8.7      2.161      6.985
REMARK  6 active torsions:
REMARK  status: ('A' for Active; 'I' for Inactive)
REMARK    1  A    between atoms: O_2  and  C_3 
REMARK    2  A    between atoms: C_6  and  C_7 
REMARK    3  A    between atoms: C_13  and  C_14 
REMARK       I    between atoms: C_14  and  N_15 
REMARK    4  A    between atoms: N_15  and  C_16 
REMARK    5  A    between atoms: C_16  and  C_17 
REMARK    6  A    between atoms: C_24  and  C_25 
ROOT
HETATM    1  C   UNL     1     -41.096  55.792 -52.897  1.00  0.00     0.118 C 
HETATM    2  N   UNL     1     -41.521  56.254 -54.226  1.00  0.00    -0.365 N 
HETATM    3  C   UNL     1     -42.300  57.368 -54.342  1.00  0.00     0.138 A 
HETATM    4  N   UNL     1     -42.848  57.961 -53.227  1.00  0.00    -0.240 N 
HETATM    5  N   UNL     1     -43.630  59.015 -53.490  1.00  0.00    -0.181 NA
HETATM    6  C   UNL     1     -43.526  59.145 -54.813  1.00  0.00     0.160 A 
HETATM    7  C   UNL     1     -42.725  58.138 -55.413  1.00  0.00     0.096 A 
HETATM    8  C   UNL     1     -42.637  57.516 -51.864  1.00  0.00     0.221 C 
HETATM    9  C   UNL     1     -42.210  56.044 -51.865  1.00  0.00     0.066 C 
HETATM   10  H   UNL     1     -40.803  56.083 -54.934  1.00  0.00     0.161 HD
ENDROOT
BRANCH   7  11
HETATM   11  C   UNL     1     -42.479  58.018 -56.837  1.00  0.00     0.257 C 
HETATM   12  N   UNL     1     -42.870  56.831 -57.413  1.00  0.00    -0.352 N 
HETATM   13  H   UNL     1     -43.494  56.244 -56.878  1.00  0.00     0.163 HD
HETATM   14  O   UNL     1     -41.989  58.938 -57.484  1.00  0.00    -0.267 OA
BRANCH  12  15
HETATM   15  C   UNL     1     -42.841  56.680 -58.847  1.00  0.00     0.161 C 
BRANCH  15  16
HETATM   16  C   UNL     1     -44.225  56.519 -59.411  1.00  0.00    -0.041 A 
HETATM   17  C   UNL     1     -45.293  57.282 -58.917  1.00  0.00     0.009 A 
HETATM   18  C   UNL     1     -46.574  57.132 -59.451  1.00  0.00     0.001 A 
HETATM   19  C   UNL     1     -46.801  56.219 -60.478  1.00  0.00     0.000 A 
HETATM   20  C   UNL     1     -45.750  55.446 -60.968  1.00  0.00     0.001 A 
HETATM   21  C   UNL     1     -44.469  55.591 -60.433  1.00  0.00     0.009 A 
ENDBRANCH  15  16
ENDBRANCH  12  15
ENDBRANCH   7  11
BRANCH   1  22
HETATM   22  C   UNL     1     -40.747  54.315 -52.936  1.00  0.00    -0.035 A 
HETATM   23  C   UNL     1     -40.689  53.643 -54.165  1.00  0.00     0.012 A 
HETATM   24  C   UNL     1     -40.273  52.310 -54.226  1.00  0.00     0.037 A 
HETATM   25  C   UNL     1     -39.895  51.629 -53.068  1.00  0.00     0.068 A 
HETATM   26  C   UNL     1     -39.983  52.276 -51.837  1.00  0.00     0.037 A 
HETATM   27  C   UNL     1     -40.407  53.608 -51.771  1.00  0.00     0.012 A 
BRANCH  25  28
HETATM   28  O   UNL     1     -39.474  50.344 -53.267  1.00  0.00    -0.356 OA
HETATM   29  C   UNL     1     -39.669  49.815 -54.575  1.00  0.00     0.210 C 
ENDBRANCH  25  28
ENDBRANCH   1  22
BRANCH   8  30
HETATM   30  C   UNL     1     -41.625  58.410 -51.177  1.00  0.00     0.409 C 
HETATM   31  F   UNL     1     -40.921  57.770 -50.218  1.00  0.00    -0.169 F 
HETATM   32  F   UNL     1     -40.746  58.969 -52.033  1.00  0.00    -0.169 F 
HETATM   33  F   UNL     1     -42.266  59.438 -50.561  1.00  0.00    -0.169 F 
ENDBRANCH   8  30
TORSDOF 6
ENDMDL
MODEL 3
REMARK VINA RESULT:      -8.4      2.729      7.660
REMARK  6 active torsions:
REMARK  status: ('A' for Active; 'I' for Inactive)
REMARK    1  A    between atoms: O_2  and  C_3 
REMARK    2  A    between atoms: C_6  and  C_7 
REMARK    3  A    between atoms: C_13  and  C_14 
REMARK       I    between atoms: C_14  and  N_15 
REMARK    4  A    between atoms: N_15  and  C_16 
REMARK    5  A    between atoms: C_16  and  C_17 
REMARK    6  A    between atoms: C_24  and  C_25 
ROOT
HETATM    1  C   UNL     1     -41.028  55.757 -52.902  1.00  0.00     0.118 C 
HETATM    2  N   UNL     1     -41.613  56.213 -54.170  1.00  0.00    -0.365 N 
HETATM    3  C   UNL     1     -42.398  57.329 -54.194  1.00  0.00     0.138 A 
HETATM    4  N   UNL     1     -42.802  57.929 -53.023  1.00  0.00    -0.240 N 
HETATM    5  N   UNL     1     -43.608  58.984 -53.192  1.00  0.00    -0.181 NA
HETATM    6  C   UNL     1     -43.669  59.108 -54.519  1.00  0.00     0.160 A 
HETATM    7  C   UNL     1     -42.951  58.095 -55.209  1.00  0.00     0.096 A 
HETATM    8  C   UNL     1     -42.424  57.491 -51.694  1.00  0.00     0.221 C 
HETATM    9  C   UNL     1     -42.003  56.018 -51.741  1.00  0.00     0.066 C 
HETATM   10  H   UNL     1     -40.989  56.037 -54.960  1.00  0.00     0.161 HD
ENDROOT
BRANCH   7  11
HETATM   11  C   UNL     1     -42.884  57.967 -56.651  1.00  0.00     0.257 C 
HETATM   12  N   UNL     1     -43.148  59.112 -57.366  1.00  0.00    -0.352 N 
HETATM   13  H   UNL     1     -43.134  59.985 -56.857  1.00  0.00     0.163 HD
HETATM   14  O   UNL     1     -42.571  56.909 -57.188  1.00  0.00    -0.267 OA
BRANCH  12  15
HETATM   15  C   UNL     1     -42.928  59.141 -58.792  1.00  0.00     0.161 C 
BRANCH  15  16
HETATM   16  C   UNL     1     -42.094  60.325 -59.195  1.00  0.00    -0.041 A 
HETATM   17  C   UNL     1     -42.019  60.725 -60.537  1.00  0.00     0.009 A 
HETATM   18  C   UNL     1     -41.249  61.830 -60.901  1.00  0.00     0.001 A 
HETATM   19  C   UNL     1     -40.544  62.543 -59.933  1.00  0.00     0.000 A 
HETATM   20  C   UNL     1     -40.602  62.147 -58.598  1.00  0.00     0.001 A 
HETATM   21  C   UNL     1     -41.368  61.040 -58.231  1.00  0.00     0.009 A 
ENDBRANCH  15  16
ENDBRANCH  12  15
ENDBRANCH   7  11
BRANCH   1  22
HETATM   22  C   UNL     1     -40.689  54.279 -52.976  1.00  0.00    -0.035 A 
HETATM   23  C   UNL     1     -40.709  53.619 -54.212  1.00  0.00     0.012 A 
HETATM   24  C   UNL     1     -40.304  52.285 -54.311  1.00  0.00     0.037 A 
HETATM   25  C   UNL     1     -39.861  51.591 -53.185  1.00  0.00     0.068 A 
HETATM   26  C   UNL     1     -39.870  52.226 -51.945  1.00  0.00     0.037 A 
HETATM   27  C   UNL     1     -40.283  53.559 -51.841  1.00  0.00     0.012 A 
BRANCH  25  28
HETATM   28  O   UNL     1     -39.459  50.305 -53.421  1.00  0.00    -0.356 OA
HETATM   29  C   UNL     1     -39.756  49.783 -54.712  1.00  0.00     0.210 C 
ENDBRANCH  25  28
ENDBRANCH   1  22
BRANCH   8  30
HETATM   30  C   UNL     1     -41.333  58.385 -51.144  1.00  0.00     0.409 C 
HETATM   31  F   UNL     1     -40.525  57.752 -50.265  1.00  0.00    -0.169 F 
HETATM   32  F   UNL     1     -40.556  58.926 -52.104  1.00  0.00    -0.169 F 
HETATM   33  F   UNL     1     -41.891  59.426 -50.471  1.00  0.00    -0.169 F 
ENDBRANCH   8  30
TORSDOF 6
ENDMDL
MODEL 4
REMARK VINA RESULT:      -8.2      2.338      6.573
REMARK  6 active torsions:
REMARK  status: ('A' for Active; 'I' for Inactive)
REMARK    1  A    between atoms: O_2  and  C_3 
REMARK    2  A    between atoms: C_6  and  C_7 
REMARK    3  A    between atoms: C_13  and  C_14 
REMARK       I    between atoms: C_14  and  N_15 
REMARK    4  A    between atoms: N_15  and  C_16 
REMARK    5  A    between atoms: C_16  and  C_17 
REMARK    6  A    between atoms: C_24  and  C_25 
ROOT
HETATM    1  C   UNL     1     -41.193  56.188 -52.690  1.00  0.00     0.118 C 
HETATM    2  N   UNL     1     -42.404  56.499 -53.462  1.00  0.00    -0.365 N 
HETATM    3  C   UNL     1     -43.161  57.585 -53.132  1.00  0.00     0.138 A 
HETATM    4  N   UNL     1     -42.913  58.287 -51.974  1.00  0.00    -0.240 N 
HETATM    5  N   UNL     1     -43.762  59.298 -51.749  1.00  0.00    -0.181 NA
HETATM    6  C   UNL     1     -44.539  59.286 -52.833  1.00  0.00     0.160 A 
HETATM    7  C   UNL     1     -44.232  58.229 -53.730  1.00  0.00     0.096 A 
HETATM    8  C   UNL     1     -41.843  57.996 -51.040  1.00  0.00     0.221 C 
HETATM    9  C   UNL     1     -41.402  56.537 -51.206  1.00  0.00     0.066 C 
HETATM   10  H   UNL     1     -42.295  56.260 -54.450  1.00  0.00     0.161 HD
ENDROOT
BRANCH   7  11
HETATM   11  C   UNL     1     -44.946  57.958 -54.963  1.00  0.00     0.257 C 
HETATM   12  N   UNL     1     -44.669  58.804 -56.012  1.00  0.00    -0.352 N 
HETATM   13  H   UNL     1     -43.844  59.382 -55.931  1.00  0.00     0.163 HD
HETATM   14  O   UNL     1     -45.716  57.008 -55.063  1.00  0.00    -0.267 OA
BRANCH  12  15
HETATM   15  C   UNL     1     -45.181  58.513 -57.329  1.00  0.00     0.161 C 
BRANCH  15  16
HETATM   16  C   UNL     1     -44.104  57.977 -58.231  1.00  0.00    -0.041 A 
HETATM   17  C   UNL     1     -42.889  58.660 -58.381  1.00  0.00     0.009 A 
HETATM   18  C   UNL     1     -41.892  58.151 -59.214  1.00  0.00     0.001 A 
HETATM   19  C   UNL     1     -42.099  56.960 -59.907  1.00  0.00     0.000 A 
HETATM   20  C   UNL     1     -43.307  56.279 -59.775  1.00  0.00     0.001 A 
HETATM   21  C   UNL     1     -44.308  56.787 -58.945  1.00  0.00     0.009 A 
ENDBRANCH  15  16
ENDBRANCH  12  15
ENDBRANCH   7  11
BRANCH   1  22
HETATM   22  C   UNL     1     -40.834  54.720 -52.835  1.00  0.00    -0.035 A 
HETATM   23  C   UNL     1     -40.674  54.162 -54.110  1.00  0.00     0.012 A 
HETATM   24  C   UNL     1     -40.249  52.839 -54.258  1.00  0.00     0.037 A 
HETATM   25  C   UNL     1     -39.962  52.055 -53.140  1.00  0.00     0.068 A 
HETATM   26  C   UNL     1     -40.152  52.587 -51.867  1.00  0.00     0.037 A 
HETATM   27  C   UNL     1     -40.586  53.909 -51.715  1.00  0.00     0.012 A 
BRANCH  25  28
HETATM   28  O   UNL     1     -39.521  50.791 -53.420  1.00  0.00    -0.356 OA
HETATM   29  C   UNL     1     -40.262  50.070 -54.398  1.00  0.00     0.210 C 
ENDBRANCH  25  28
ENDBRANCH   1  22
BRANCH   8  30
HETATM   30  C   UNL     1     -40.701  58.970 -51.238  1.00  0.00     0.409 C 
HETATM   31  F   UNL     1     -40.860  60.118 -50.544  1.00  0.00    -0.169 F 
HETATM   32  F   UNL     1     -39.500  58.451 -50.911  1.00  0.00    -0.169 F 
HETATM   33  F   UNL     1     -40.623  59.322 -52.548  1.00  0.00    -0.169 F 
ENDBRANCH   8  30
TORSDOF 6
ENDMDL
MODEL 5
REMARK VINA RESULT:      -8.1      2.424      7.366
REMARK  6 active torsions:
REMARK  status: ('A' for Active; 'I' for Inactive)
REMARK    1  A    between atoms: O_2  and  C_3 
REMARK    2  A    between atoms: C_6  and  C_7 
REMARK    3  A    between atoms: C_13  and  C_14 
REMARK       I    between atoms: C_14  and  N_15 
REMARK    4  A    between atoms: N_15  and  C_16 
REMARK    5  A    between atoms: C_16  and  C_17 
REMARK    6  A    between atoms: C_24  and  C_25 
ROOT
HETATM    1  C   UNL     1     -41.301  55.768 -52.873  1.00  0.00     0.118 C 
HETATM    2  N   UNL     1     -42.146  56.075 -54.034  1.00  0.00    -0.365 N 
HETATM    3  C   UNL     1     -43.012  57.128 -53.986  1.00  0.00     0.138 A 
HETATM    4  N   UNL     1     -43.242  57.794 -52.804  1.00  0.00    -0.240 N 
HETATM    5  N   UNL     1     -44.151  58.774 -52.888  1.00  0.00    -0.181 NA
HETATM    6  C   UNL     1     -44.466  58.781 -54.184  1.00  0.00     0.160 A 
HETATM    7  C   UNL     1     -43.806  57.766 -54.927  1.00  0.00     0.096 A 
HETATM    8  C   UNL     1     -42.589  57.496 -51.544  1.00  0.00     0.221 C 
HETATM    9  C   UNL     1     -42.063  56.056 -51.568  1.00  0.00     0.066 C 
HETATM   10  H   UNL     1     -41.666  55.876 -54.915  1.00  0.00     0.161 HD
ENDROOT
BRANCH   7  11
HETATM   11  C   UNL     1     -43.996  57.523 -56.343  1.00  0.00     0.257 C 
HETATM   12  N   UNL     1     -44.819  58.410 -56.997  1.00  0.00    -0.352 N 
HETATM   13  H   UNL     1     -45.034  59.274 -56.520  1.00  0.00     0.163 HD
HETATM   14  O   UNL     1     -43.422  56.604 -56.920  1.00  0.00    -0.267 OA
BRANCH  12  15
HETATM   15  C   UNL     1     -44.928  58.370 -58.435  1.00  0.00     0.161 C 
BRANCH  15  16
HETATM   16  C   UNL     1     -43.840  59.174 -59.091  1.00  0.00    -0.041 A 
HETATM   17  C   UNL     1     -43.572  60.487 -58.679  1.00  0.00     0.009 A 
HETATM   18  C   UNL     1     -42.555  61.223 -59.288  1.00  0.00     0.001 A 
HETATM   19  C   UNL     1     -41.800  60.659 -60.315  1.00  0.00     0.000 A 
HETATM   20  C   UNL     1     -42.067  59.359 -60.741  1.00  0.00     0.001 A 
HETATM   21  C   UNL     1     -43.086  58.622 -60.136  1.00  0.00     0.009 A 
ENDBRANCH  15  16
ENDBRANCH  12  15
ENDBRANCH   7  11
BRANCH   1  22
HETATM   22  C   UNL     1     -40.859  54.316 -52.908  1.00  0.00    -0.035 A 
HETATM   23  C   UNL     1     -40.826  53.625 -54.127  1.00  0.00     0.012 A 
HETATM   24  C   UNL     1     -40.329  52.320 -54.190  1.00  0.00     0.037 A 
HETATM   25  C   UNL     1     -39.844  51.688 -53.045  1.00  0.00     0.068 A 
HETATM   26  C   UNL     1     -39.904  52.352 -51.822  1.00  0.00     0.037 A 
HETATM   27  C   UNL     1     -40.409  53.655 -51.753  1.00  0.00     0.012 A 
BRANCH  25  28
HETATM   28  O   UNL     1     -39.352  50.428 -53.247  1.00  0.00    -0.356 OA
HETATM   29  C   UNL     1     -39.723  49.798 -54.469  1.00  0.00     0.210 C 
ENDBRANCH  25  28
ENDBRANCH   1  22
BRANCH   8  30
HETATM   30  C   UNL     1     -41.494  58.506 -51.275  1.00  0.00     0.409 C 
HETATM   31  F   UNL     1     -41.928  59.585 -50.586  1.00  0.00    -0.169 F 
HETATM   32  F   UNL     1     -40.444  57.984 -50.609  1.00  0.00    -0.169 F 
HETATM   33  F   UNL     1     -41.005  58.975 -52.453  1.00  0.00    -0.169 F 
ENDBRANCH   8  30
TORSDOF 6
ENDMDL
MODEL 6
REMARK VINA RESULT:      -7.9      3.161      6.521
REMARK  6 active torsions:
REMARK  status: ('A' for Active; 'I' for Inactive)
REMARK    1  A    between atoms: O_2  and  C_3 
REMARK    2  A    between atoms: C_6  and  C_7 
REMARK    3  A    between atoms: C_13  and  C_14 
REMARK       I    between atoms: C_14  and  N_15 
REMARK    4  A    between atoms: N_15  and  C_16 
REMARK    5  A    between atoms: C_16  and  C_17 
REMARK    6  A    between atoms: C_24  and  C_25 
ROOT
HETATM    1  C   UNL     1     -42.560  55.733 -55.530  1.00  0.00     0.118 C 
HETATM    2  N   UNL     1     -43.218  56.292 -54.342  1.00  0.00    -0.365 N 
HETATM    3  C   UNL     1     -43.135  55.637 -53.147  1.00  0.00     0.138 A 
HETATM    4  N   UNL     1     -42.603  54.370 -53.077  1.00  0.00    -0.240 N 
HETATM    5  N   UNL     1     -42.628  53.827 -51.853  1.00  0.00    -0.181 NA
HETATM    6  C   UNL     1     -43.132  54.805 -51.100  1.00  0.00     0.160 A 
HETATM    7  C   UNL     1     -43.489  55.959 -51.846  1.00  0.00     0.096 A 
HETATM    8  C   UNL     1     -42.055  53.637 -54.201  1.00  0.00     0.221 C 
HETATM    9  C   UNL     1     -42.633  54.196 -55.507  1.00  0.00     0.066 C 
HETATM   10  H   UNL     1     -43.196  57.314 -54.342  1.00  0.00     0.161 HD
ENDROOT
BRANCH   7  11
HETATM   11  C   UNL     1     -44.096  57.151 -51.285  1.00  0.00     0.257 C 
HETATM   12  N   UNL     1     -43.417  58.327 -51.506  1.00  0.00    -0.352 N 
HETATM   13  H   UNL     1     -42.700  58.317 -52.218  1.00  0.00     0.163 HD
HETATM   14  O   UNL     1     -45.167  57.106 -50.689  1.00  0.00    -0.267 OA
BRANCH  12  15
HETATM   15  C   UNL     1     -44.023  59.588 -51.154  1.00  0.00     0.161 C 
BRANCH  15  16
HETATM   16  C   UNL     1     -44.723  60.209 -52.331  1.00  0.00    -0.041 A 
HETATM   17  C   UNL     1     -45.827  61.052 -52.144  1.00  0.00     0.009 A 
HETATM   18  C   UNL     1     -46.465  61.631 -53.242  1.00  0.00     0.001 A 
HETATM   19  C   UNL     1     -46.011  61.371 -54.534  1.00  0.00     0.000 A 
HETATM   20  C   UNL     1     -44.923  60.523 -54.731  1.00  0.00     0.001 A 
HETATM   21  C   UNL     1     -44.285  59.941 -53.635  1.00  0.00     0.009 A 
ENDBRANCH  15  16
ENDBRANCH  12  15
ENDBRANCH   7  11
BRANCH   1  22
HETATM   22  C   UNL     1     -43.208  56.267 -56.795  1.00  0.00    -0.035 A 
HETATM   23  C   UNL     1     -43.835  57.520 -56.784  1.00  0.00     0.012 A 
HETATM   24  C   UNL     1     -44.349  58.067 -57.963  1.00  0.00     0.037 A 
HETATM   25  C   UNL     1     -44.235  57.383 -59.173  1.00  0.00     0.068 A 
HETATM   26  C   UNL     1     -43.647  56.120 -59.190  1.00  0.00     0.037 A 
HETATM   27  C   UNL     1     -43.138  55.566 -58.010  1.00  0.00     0.012 A 
BRANCH  25  28
HETATM   28  O   UNL     1     -44.746  58.041 -60.257  1.00  0.00    -0.356 OA
HETATM   29  C   UNL     1     -44.147  59.294 -60.569  1.00  0.00     0.210 C 
ENDBRANCH  25  28
ENDBRANCH   1  22
BRANCH   8  30
HETATM   30  C   UNL     1     -40.543  53.691 -54.170  1.00  0.00     0.409 C 
HETATM   31  F   UNL     1     -39.993  52.675 -53.468  1.00  0.00    -0.169 F 
HETATM   32  F   UNL     1     -39.987  53.694 -55.398  1.00  0.00    -0.169 F 
HETATM   33  F   UNL     1     -40.139  54.838 -53.564  1.00  0.00    -0.169 F 
ENDBRANCH   8  30
TORSDOF 6
ENDMDL
MODEL 7
REMARK VINA RESULT:      -7.8      3.924      7.121
REMARK  6 active torsions:
REMARK  status: ('A' for Active; 'I' for Inactive)
REMARK    1  A    between atoms: O_2  and  C_3 
REMARK    2  A    between atoms: C_6  and  C_7 
REMARK    3  A    between atoms: C_13  and  C_14 
REMARK       I    between atoms: C_14  and  N_15 
REMARK    4  A    between atoms: N_15  and  C_16 
REMARK    5  A    between atoms: C_16  and  C_17 
REMARK    6  A    between atoms: C_24  and  C_25 
ROOT
HETATM    1  C   UNL     1     -44.589  60.690 -50.700  1.00  0.00     0.118 C 
HETATM    2  N   UNL     1     -43.883  59.407 -50.588  1.00  0.00    -0.365 N 
HETATM    3  C   UNL     1     -43.911  58.521 -51.626  1.00  0.00     0.138 A 
HETATM    4  N   UNL     1     -44.741  58.729 -52.704  1.00  0.00    -0.240 N 
HETATM    5  N   UNL     1     -44.704  57.759 -53.626  1.00  0.00    -0.181 NA
HETATM    6  C   UNL     1     -43.768  56.933 -53.156  1.00  0.00     0.160 A 
HETATM    7  C   UNL     1     -43.244  57.337 -51.900  1.00  0.00     0.096 A 
HETATM    8  C   UNL     1     -45.608  59.879 -52.873  1.00  0.00     0.221 C 
HETATM    9  C   UNL     1     -45.889  60.514 -51.506  1.00  0.00     0.066 C 
HETATM   10  H   UNL     1     -43.023  59.494 -50.042  1.00  0.00     0.161 HD
ENDROOT
BRANCH   7  11
HETATM   11  C   UNL     1     -42.246  56.603 -51.146  1.00  0.00     0.257 C 
HETATM   12  N   UNL     1     -42.121  55.270 -51.461  1.00  0.00    -0.352 N 
HETATM   13  H   UNL     1     -42.543  54.960 -52.325  1.00  0.00     0.163 HD
HETATM   14  O   UNL     1     -41.538  57.155 -50.310  1.00  0.00    -0.267 OA
BRANCH  12  15
HETATM   15  C   UNL     1     -41.038  54.495 -50.905  1.00  0.00     0.161 C 
BRANCH  15  16
HETATM   16  C   UNL     1     -40.590  53.419 -51.854  1.00  0.00    -0.041 A 
HETATM   17  C   UNL     1     -40.879  53.505 -53.224  1.00  0.00     0.009 A 
HETATM   18  C   UNL     1     -40.451  52.505 -54.099  1.00  0.00     0.001 A 
HETATM   19  C   UNL     1     -39.737  51.410 -53.616  1.00  0.00     0.000 A 
HETATM   20  C   UNL     1     -39.456  51.308 -52.255  1.00  0.00     0.001 A 
HETATM   21  C   UNL     1     -39.884  52.305 -51.377  1.00  0.00     0.009 A 
ENDBRANCH  15  16
ENDBRANCH  12  15
ENDBRANCH   7  11
BRANCH   1  22
HETATM   22  C   UNL     1     -44.902  61.245 -49.323  1.00  0.00    -0.035 A 
HETATM   23  C   UNL     1     -45.477  60.417 -48.349  1.00  0.00     0.012 A 
HETATM   24  C   UNL     1     -45.680  60.886 -47.048  1.00  0.00     0.037 A 
HETATM   25  C   UNL     1     -45.301  62.181 -46.692  1.00  0.00     0.068 A 
HETATM   26  C   UNL     1     -44.762  63.024 -47.660  1.00  0.00     0.037 A 
HETATM   27  C   UNL     1     -44.565  62.561 -48.966  1.00  0.00     0.012 A 
BRANCH  25  28
HETATM   28  O   UNL     1     -45.519  62.504 -45.381  1.00  0.00    -0.356 OA
HETATM   29  C   UNL     1     -44.914  63.709 -44.924  1.00  0.00     0.210 C 
ENDBRANCH  25  28
ENDBRANCH   1  22
BRANCH   8  30
HETATM   30  C   UNL     1     -44.988  60.858 -53.847  1.00  0.00     0.409 C 
HETATM   31  F   UNL     1     -45.322  62.141 -53.591  1.00  0.00    -0.169 F 
HETATM   32  F   UNL     1     -43.642  60.781 -53.891  1.00  0.00    -0.169 F 
HETATM   33  F   UNL     1     -45.427  60.591 -55.106  1.00  0.00    -0.169 F 
ENDBRANCH   8  30
TORSDOF 6
ENDMDL
MODEL 8
REMARK VINA RESULT:      -7.6      3.384      7.716
REMARK  6 active torsions:
REMARK  status: ('A' for Active; 'I' for Inactive)
REMARK    1  A    between atoms: O_2  and  C_3 
REMARK    2  A    between atoms: C_6  and  C_7 
REMARK    3  A    between atoms: C_13  and  C_14 
REMARK       I    between atoms: C_14  and  N_15 
REMARK    4  A    between atoms: N_15  and  C_16 
REMARK    5  A    between atoms: C_16  and  C_17 
REMARK    6  A    between atoms: C_24  and  C_25 
ROOT
HETATM    1  C   UNL     1     -43.212  56.569 -51.783  1.00  0.00     0.118 C 
HETATM    2  N   UNL     1     -43.119  56.380 -53.236  1.00  0.00    -0.365 N 
HETATM    3  C   UNL     1     -42.195  55.519 -53.754  1.00  0.00     0.138 A 
HETATM    4  N   UNL     1     -41.226  54.964 -52.949  1.00  0.00    -0.240 N 
HETATM    5  N   UNL     1     -40.356  54.177 -53.595  1.00  0.00    -0.181 NA
HETATM    6  C   UNL     1     -40.823  54.173 -54.844  1.00  0.00     0.160 A 
HETATM    7  C   UNL     1     -41.960  55.005 -55.019  1.00  0.00     0.096 A 
HETATM    8  C   UNL     1     -41.107  55.185 -51.521  1.00  0.00     0.221 C 
HETATM    9  C   UNL     1     -41.813  56.492 -51.145  1.00  0.00     0.066 C 
HETATM   10  H   UNL     1     -44.035  56.442 -53.686  1.00  0.00     0.161 HD
ENDROOT
BRANCH   7  11
HETATM   11  C   UNL     1     -42.642  55.218 -56.281  1.00  0.00     0.257 C 
HETATM   12  N   UNL     1     -42.264  56.338 -56.984  1.00  0.00    -0.352 N 
HETATM   13  H   UNL     1     -41.404  56.789 -56.703  1.00  0.00     0.163 HD
HETATM   14  O   UNL     1     -43.472  54.420 -56.705  1.00  0.00    -0.267 OA
BRANCH  12  15
HETATM   15  C   UNL     1     -42.742  56.544 -58.329  1.00  0.00     0.161 C 
BRANCH  15  16
HETATM   16  C   UNL     1     -42.400  57.920 -58.830  1.00  0.00    -0.041 A 
HETATM   17  C   UNL     1     -42.139  58.964 -57.932  1.00  0.00     0.009 A 
HETATM   18  C   UNL     1     -41.814  60.236 -58.405  1.00  0.00     0.001 A 
HETATM   19  C   UNL     1     -41.752  60.478 -59.776  1.00  0.00     0.000 A 
HETATM   20  C   UNL     1     -42.023  59.451 -60.677  1.00  0.00     0.001 A 
HETATM   21  C   UNL     1     -42.351  58.178 -60.207  1.00  0.00     0.009 A 
ENDBRANCH  15  16
ENDBRANCH  12  15
ENDBRANCH   7  11
BRANCH   1  22
HETATM   22  C   UNL     1     -43.859  57.904 -51.462  1.00  0.00    -0.035 A 
HETATM   23  C   UNL     1     -45.239  57.974 -51.229  1.00  0.00     0.012 A 
HETATM   24  C   UNL     1     -45.833  59.176 -50.836  1.00  0.00     0.037 A 
HETATM   25  C   UNL     1     -45.062  60.324 -50.655  1.00  0.00     0.068 A 
HETATM   26  C   UNL     1     -43.695  60.276 -50.918  1.00  0.00     0.037 A 
HETATM   27  C   UNL     1     -43.097  59.076 -51.320  1.00  0.00     0.012 A 
BRANCH  25  28
HETATM   28  O   UNL     1     -45.756  61.425 -50.235  1.00  0.00    -0.356 OA
HETATM   29  C   UNL     1     -45.807  61.635 -48.828  1.00  0.00     0.210 C 
ENDBRANCH  25  28
ENDBRANCH   1  22
BRANCH   8  30
HETATM   30  C   UNL     1     -41.655  53.994 -50.764  1.00  0.00     0.409 C 
HETATM   31  F   UNL     1     -40.746  53.008 -50.601  1.00  0.00    -0.169 F 
HETATM   32  F   UNL     1     -42.138  54.318 -49.547  1.00  0.00    -0.169 F 
HETATM   33  F   UNL     1     -42.691  53.450 -51.455  1.00  0.00    -0.169 F 
ENDBRANCH   8  30
TORSDOF 6
ENDMDL
MODEL 9
REMARK VINA RESULT:      -7.6      3.375      6.809
REMARK  6 active torsions:
REMARK  status: ('A' for Active; 'I' for Inactive)
REMARK    1  A    between atoms: O_2  and  C_3 
REMARK    2  A    between atoms: C_6  and  C_7 
REMARK    3  A    between atoms: C_13  and  C_14 
REMARK       I    between atoms: C_14  and  N_15 
REMARK    4  A    between atoms: N_15  and  C_16 
REMARK    5  A    between atoms: C_16  and  C_17 
REMARK    6  A    between atoms: C_24  and  C_25 
ROOT
HETATM    1  C   UNL     1     -42.216  56.170 -55.941  1.00  0.00     0.118 C 
HETATM    2  N   UNL     1     -42.243  57.155 -54.851  1.00  0.00    -0.365 N 
HETATM    3  C   UNL     1     -41.862  56.788 -53.593  1.00  0.00     0.138 A 
HETATM    4  N   UNL     1     -41.628  55.466 -53.288  1.00  0.00    -0.240 N 
HETATM    5  N   UNL     1     -41.309  55.243 -52.007  1.00  0.00    -0.181 NA
HETATM    6  C   UNL     1     -41.270  56.471 -51.488  1.00  0.00     0.160 A 
HETATM    7  C   UNL     1     -41.624  57.484 -52.418  1.00  0.00     0.096 A 
HETATM    8  C   UNL     1     -41.715  54.370 -54.232  1.00  0.00     0.221 C 
HETATM    9  C   UNL     1     -42.605  54.778 -55.411  1.00  0.00     0.066 C 
HETATM   10  H   UNL     1     -42.004  58.092 -55.181  1.00  0.00     0.161 HD
ENDROOT
BRANCH   7  11
HETATM   11  C   UNL     1     -41.703  58.898 -52.109  1.00  0.00     0.257 C 
HETATM   12  N   UNL     1     -42.113  59.209 -50.833  1.00  0.00    -0.352 N 
HETATM   13  H   UNL     1     -42.100  58.463 -50.152  1.00  0.00     0.163 HD
HETATM   14  O   UNL     1     -41.383  59.753 -52.928  1.00  0.00    -0.267 OA
BRANCH  12  15
HETATM   15  C   UNL     1     -42.049  60.572 -50.365  1.00  0.00     0.161 C 
BRANCH  15  16
HETATM   16  C   UNL     1     -43.418  61.187 -50.279  1.00  0.00    -0.041 A 
HETATM   17  C   UNL     1     -43.573  62.567 -50.080  1.00  0.00     0.009 A 
HETATM   18  C   UNL     1     -44.847  63.131 -50.009  1.00  0.00     0.001 A 
HETATM   19  C   UNL     1     -45.977  62.325 -50.131  1.00  0.00     0.000 A 
HETATM   20  C   UNL     1     -45.836  60.951 -50.315  1.00  0.00     0.001 A 
HETATM   21  C   UNL     1     -44.563  60.384 -50.384  1.00  0.00     0.009 A 
ENDBRANCH  15  16
ENDBRANCH  12  15
ENDBRANCH   7  11
BRANCH   1  22
HETATM   22  C   UNL     1     -43.161  56.586 -57.054  1.00  0.00    -0.035 A 
HETATM   23  C   UNL     1     -43.239  55.821 -58.226  1.00  0.00     0.012 A 
HETATM   24  C   UNL     1     -44.173  56.135 -59.217  1.00  0.00     0.037 A 
HETATM   25  C   UNL     1     -45.053  57.205 -59.053  1.00  0.00     0.068 A 
HETATM   26  C   UNL     1     -44.960  57.994 -57.908  1.00  0.00     0.037 A 
HETATM   27  C   UNL     1     -44.021  57.688 -56.917  1.00  0.00     0.012 A 
BRANCH  25  28
HETATM   28  O   UNL     1     -45.941  57.384 -60.077  1.00  0.00    -0.356 OA
HETATM   29  C   UNL     1     -46.789  56.279 -60.372  1.00  0.00     0.210 C 
ENDBRANCH  25  28
ENDBRANCH   1  22
BRANCH   8  30
HETATM   30  C   UNL     1     -40.328  53.953 -54.673  1.00  0.00     0.409 C 
HETATM   31  F   UNL     1     -39.479  54.997 -54.803  1.00  0.00    -0.169 F 
HETATM   32  F   UNL     1     -39.756  53.055 -53.845  1.00  0.00    -0.169 F 
HETATM   33  F   UNL     1     -40.395  53.360 -55.894  1.00  0.00    -0.169 F 
ENDBRANCH   8  30
TORSDOF 6
ENDMDL
MODEL 10
REMARK VINA RESULT:      -7.5      3.464      5.624
REMARK  6 active torsions:
REMARK  status: ('A' for Active; 'I' for Inactive)
REMARK    1  A    between atoms: O_2  and  C_3 
REMARK    2  A    between atoms: C_6  and  C_7 
REMARK    3  A    between atoms: C_13  and  C_14 
REMARK       I    between atoms: C_14  and  N_15 
REMARK    4  A    between atoms: N_15  and  C_16 
REMARK    5  A    between atoms: C_16  and  C_17 
REMARK    6  A    between atoms: C_24  and  C_25 
ROOT
HETATM    1  C   UNL     1     -42.730  59.542 -56.187  1.00  0.00     0.118 C 
HETATM    2  N   UNL     1     -42.290  58.423 -55.343  1.00  0.00    -0.365 N 
HETATM    3  C   UNL     1     -42.373  57.144 -55.811  1.00  0.00     0.138 A 
HETATM    4  N   UNL     1     -43.034  56.868 -56.987  1.00  0.00    -0.240 N 
HETATM    5  N   UNL     1     -43.082  55.568 -57.302  1.00  0.00    -0.181 NA
HETATM    6  C   UNL     1     -42.370  54.996 -56.330  1.00  0.00     0.160 A 
HETATM    7  C   UNL     1     -41.912  55.919 -55.353  1.00  0.00     0.096 A 
HETATM    8  C   UNL     1     -43.649  57.862 -57.844  1.00  0.00     0.221 C 
HETATM    9  C   UNL     1     -43.948  59.126 -57.030  1.00  0.00     0.066 C 
HETATM   10  H   UNL     1     -41.490  58.680 -54.760  1.00  0.00     0.161 HD
ENDROOT
BRANCH   7  11
HETATM   11  C   UNL     1     -41.153  55.562 -54.171  1.00  0.00     0.257 C 
HETATM   12  N   UNL     1     -41.291  54.263 -53.742  1.00  0.00    -0.352 N 
HETATM   13  H   UNL     1     -41.704  53.606 -54.389  1.00  0.00     0.163 HD
HETATM   14  O   UNL     1     -40.407  56.366 -53.620  1.00  0.00    -0.267 OA
BRANCH  12  15
HETATM   15  C   UNL     1     -40.442  53.755 -52.691  1.00  0.00     0.161 C 
BRANCH  15  16
HETATM   16  C   UNL     1     -40.163  52.289 -52.872  1.00  0.00    -0.041 A 
HETATM   17  C   UNL     1     -40.284  51.686 -54.132  1.00  0.00     0.009 A 
HETATM   18  C   UNL     1     -40.015  50.326 -54.292  1.00  0.00     0.001 A 
HETATM   19  C   UNL     1     -39.627  49.555 -53.197  1.00  0.00     0.000 A 
HETATM   20  C   UNL     1     -39.516  50.141 -51.938  1.00  0.00     0.001 A 
HETATM   21  C   UNL     1     -39.788  51.500 -51.774  1.00  0.00     0.009 A 
ENDBRANCH  15  16
ENDBRANCH  12  15
ENDBRANCH   7  11
BRANCH   1  22
HETATM   22  C   UNL     1     -43.076  60.747 -55.331  1.00  0.00    -0.035 A 
HETATM   23  C   UNL     1     -42.818  60.724 -53.954  1.00  0.00     0.012 A 
HETATM   24  C   UNL     1     -43.039  61.860 -53.171  1.00  0.00     0.037 A 
HETATM   25  C   UNL     1     -43.507  63.041 -53.747  1.00  0.00     0.068 A 
HETATM   26  C   UNL     1     -43.801  63.065 -55.108  1.00  0.00     0.037 A 
HETATM   27  C   UNL     1     -43.589  61.927 -55.895  1.00  0.00     0.012 A 
BRANCH  25  28
HETATM   28  O   UNL     1     -43.647  64.089 -52.880  1.00  0.00    -0.356 OA
HETATM   29  C   UNL     1     -43.561  63.773 -51.495  1.00  0.00     0.210 C 
ENDBRANCH  25  28
ENDBRANCH   1  22
BRANCH   8  30
HETATM   30  C   UNL     1     -42.760  58.141 -59.037  1.00  0.00     0.409 C 
HETATM   31  F   UNL     1     -42.977  57.293 -60.067  1.00  0.00    -0.169 F 
HETATM   32  F   UNL     1     -42.881  59.400 -59.505  1.00  0.00    -0.169 F 
HETATM   33  F   UNL     1     -41.457  57.987 -58.682  1.00  0.00    -0.169 F 
ENDBRANCH   8  30
TORSDOF 6
ENDMDL
