MODEL 1
REMARK VINA RESULT:      -8.8      0.000      0.000
REMARK  4 active torsions:
REMARK  status: ('A' for Active; 'I' for Inactive)
REMARK    1  A    between atoms: C_6  and  C_7 
REMARK    2  A    between atoms: C_10  and  N_11 
REMARK       I    between atoms: N_11  and  C_12 
REMARK    3  A    between atoms: C_24  and  C_25 
REMARK       I    between atoms: C_25  and  N_26 
REMARK    4  A    between atoms: N_26  and  C_27 
ROOT
HETATM    1  C   UNL     1     -45.552  58.960 -54.784  1.00  0.00     0.070 C 
HETATM    2  C   UNL     1     -44.213  58.568 -54.213  1.00  0.00     0.037 C 
HETATM    3  N   UNL     1     -44.050  58.824 -52.855  1.00  0.00    -0.193 N 
HETATM    4  C   UNL     1     -42.841  58.920 -52.264  1.00  0.00     0.709 A 
HETATM    5  N   UNL     1     -41.732  58.493 -52.948  1.00  0.00    -0.165 N 
HETATM    6  C   UNL     1     -41.807  57.864 -54.273  1.00  0.00     0.182 C 
HETATM    7  N   UNL     1     -42.528  59.431 -51.101  1.00  0.00    -0.062 NA
HETATM    8  C   UNL     1     -41.152  59.387 -51.055  1.00  0.00     0.103 A 
HETATM    9  C   UNL     1     -40.621  58.812 -52.210  1.00  0.00     0.082 A 
HETATM   10  C   UNL     1     -40.280  59.840 -50.054  1.00  0.00     0.034 A 
HETATM   11  C   UNL     1     -38.900  59.708 -50.250  1.00  0.00     0.002 A 
HETATM   12  C   UNL     1     -38.395  59.129 -51.416  1.00  0.00     0.002 A 
HETATM   13  C   UNL     1     -39.247  58.663 -52.425  1.00  0.00     0.032 A 
HETATM   14  C   UNL     1     -43.164  58.090 -54.929  1.00  0.00     0.061 C 
HETATM   15  H   UNL     1     -44.825  59.272 -52.371  1.00  0.00     0.184 HD
ENDROOT
BRANCH   6  16
HETATM   16  C   UNL     1     -41.446  56.383 -54.166  1.00  0.00    -0.030 A 
HETATM   17  C   UNL     1     -40.388  55.823 -54.899  1.00  0.00     0.012 A 
HETATM   18  C   UNL     1     -40.119  54.450 -54.847  1.00  0.00     0.030 A 
HETATM   19  C   UNL     1     -40.894  53.606 -54.052  1.00  0.00     0.034 A 
HETATM   20  C   UNL     1     -41.923  54.164 -53.285  1.00  0.00     0.030 A 
HETATM   21  C   UNL     1     -42.194  55.537 -53.335  1.00  0.00     0.012 A 
BRANCH  19  22
HETATM   22  N   UNL     1     -40.727  52.207 -53.993  1.00  0.00    -0.328 N 
HETATM   23  C   UNL     1     -39.900  51.493 -53.144  1.00  0.00     0.218 C 
HETATM   24  C   UNL     1     -39.916  50.014 -53.442  1.00  0.00     0.117 C 
HETATM   25  O   UNL     1     -39.225  51.936 -52.222  1.00  0.00    -0.274 OA
HETATM   26  H   UNL     1     -41.263  51.669 -54.662  1.00  0.00     0.169 HD
ENDBRANCH  19  22
ENDBRANCH   6  16
BRANCH  14  27
HETATM   27  C   UNL     1     -43.146  57.916 -56.411  1.00  0.00     0.256 C 
HETATM   28  N   UNL     1     -43.864  56.836 -56.870  1.00  0.00    -0.323 N 
HETATM   29  H   UNL     1     -44.250  56.210 -56.175  1.00  0.00     0.169 HD
HETATM   30  O   UNL     1     -42.486  58.701 -57.084  1.00  0.00    -0.267 OA
BRANCH  28  31
HETATM   31  C   UNL     1     -44.201  56.549 -58.212  1.00  0.00     0.035 A 
HETATM   32  C   UNL     1     -45.122  57.286 -58.961  1.00  0.00     0.029 A 
HETATM   33  C   UNL     1     -45.444  56.905 -60.268  1.00  0.00     0.002 A 
HETATM   34  C   UNL     1     -44.852  55.781 -60.836  1.00  0.00     0.000 A 
HETATM   35  C   UNL     1     -43.930  55.041 -60.101  1.00  0.00     0.002 A 
HETATM   36  C   UNL     1     -43.602  55.427 -58.798  1.00  0.00     0.029 A 
ENDBRANCH  28  31
ENDBRANCH  14  27
TORSDOF 4
ENDMDL
MODEL 2
REMARK VINA RESULT:      -8.2      3.010      7.894
REMARK  4 active torsions:
REMARK  status: ('A' for Active; 'I' for Inactive)
REMARK    1  A    between atoms: C_6  and  C_7 
REMARK    2  A    between atoms: C_10  and  N_11 
REMARK       I    between atoms: N_11  and  C_12 
REMARK    3  A    between atoms: C_24  and  C_25 
REMARK       I    between atoms: C_25  and  N_26 
REMARK    4  A    between atoms: N_26  and  C_27 
ROOT
HETATM    1  C   UNL     1     -42.985  53.637 -55.462  1.00  0.00     0.070 C 
HETATM    2  C   UNL     1     -42.965  55.118 -55.745  1.00  0.00     0.037 C 
HETATM    3  N   UNL     1     -43.604  55.506 -56.918  1.00  0.00    -0.193 N 
HETATM    4  C   UNL     1     -43.360  56.680 -57.535  1.00  0.00     0.709 A 
HETATM    5  N   UNL     1     -42.663  57.651 -56.863  1.00  0.00    -0.165 N 
HETATM    6  C   UNL     1     -42.230  57.499 -55.468  1.00  0.00     0.182 C 
HETATM    7  N   UNL     1     -43.650  57.049 -58.757  1.00  0.00    -0.062 NA
HETATM    8  C   UNL     1     -43.064  58.286 -58.901  1.00  0.00     0.103 A 
HETATM    9  C   UNL     1     -42.424  58.688 -57.728  1.00  0.00     0.082 A 
HETATM   10  C   UNL     1     -43.023  59.126 -60.024  1.00  0.00     0.034 A 
HETATM   11  C   UNL     1     -42.333  60.341 -59.935  1.00  0.00     0.002 A 
HETATM   12  C   UNL     1     -41.701  60.718 -58.748  1.00  0.00     0.002 A 
HETATM   13  C   UNL     1     -41.735  59.900 -57.613  1.00  0.00     0.032 A 
HETATM   14  C   UNL     1     -42.305  56.048 -55.009  1.00  0.00     0.061 C 
HETATM   15  H   UNL     1     -44.004  54.769 -57.494  1.00  0.00     0.184 HD
ENDROOT
BRANCH   6  16
HETATM   16  C   UNL     1     -43.031  58.442 -54.570  1.00  0.00    -0.030 A 
HETATM   17  C   UNL     1     -44.434  58.413 -54.527  1.00  0.00     0.012 A 
HETATM   18  C   UNL     1     -45.153  59.334 -53.756  1.00  0.00     0.030 A 
HETATM   19  C   UNL     1     -44.487  60.298 -53.002  1.00  0.00     0.034 A 
HETATM   20  C   UNL     1     -43.087  60.306 -53.004  1.00  0.00     0.030 A 
HETATM   21  C   UNL     1     -42.365  59.386 -53.774  1.00  0.00     0.012 A 
BRANCH  19  22
HETATM   22  N   UNL     1     -45.138  61.298 -52.250  1.00  0.00    -0.328 N 
HETATM   23  C   UNL     1     -45.975  61.123 -51.162  1.00  0.00     0.218 C 
HETATM   24  C   UNL     1     -46.563  62.426 -50.679  1.00  0.00     0.117 C 
HETATM   25  O   UNL     1     -46.234  60.071 -50.589  1.00  0.00    -0.274 OA
HETATM   26  H   UNL     1     -44.988  62.251 -52.557  1.00  0.00     0.169 HD
ENDBRANCH  19  22
ENDBRANCH   6  16
BRANCH  14  27
HETATM   27  C   UNL     1     -41.451  55.754 -53.821  1.00  0.00     0.256 C 
HETATM   28  N   UNL     1     -42.149  55.432 -52.678  1.00  0.00    -0.323 N 
HETATM   29  H   UNL     1     -43.157  55.519 -52.715  1.00  0.00     0.169 HD
HETATM   30  O   UNL     1     -40.235  55.851 -53.937  1.00  0.00    -0.267 OA
BRANCH  28  31
HETATM   31  C   UNL     1     -41.618  54.906 -51.480  1.00  0.00     0.035 A 
HETATM   32  C   UNL     1     -41.582  55.602 -50.269  1.00  0.00     0.029 A 
HETATM   33  C   UNL     1     -40.988  55.033 -49.138  1.00  0.00     0.002 A 
HETATM   34  C   UNL     1     -40.418  53.765 -49.209  1.00  0.00     0.000 A 
HETATM   35  C   UNL     1     -40.452  53.060 -50.409  1.00  0.00     0.002 A 
HETATM   36  C   UNL     1     -41.053  53.626 -51.537  1.00  0.00     0.029 A 
ENDBRANCH  28  31
ENDBRANCH  14  27
TORSDOF 4
ENDMDL
MODEL 3
REMARK VINA RESULT:      -8.2      2.350      6.409
REMARK  4 active torsions:
REMARK  status: ('A' for Active; 'I' for Inactive)
REMARK    1  A    between atoms: C_6  and  C_7 
REMARK    2  A    between atoms: C_10  and  N_11 
REMARK       I    between atoms: N_11  and  C_12 
REMARK    3  A    between atoms: C_24  and  C_25 
REMARK       I    between atoms: C_25  and  N_26 
REMARK    4  A    between atoms: N_26  and  C_27 
ROOT
HETATM    1  C   UNL     1     -40.031  57.818 -50.353  1.00  0.00     0.070 C 
HETATM    2  C   UNL     1     -41.234  58.363 -51.081  1.00  0.00     0.037 C 
HETATM    3  N   UNL     1     -41.454  59.728 -50.924  1.00  0.00    -0.193 N 
HETATM    4  C   UNL     1     -42.649  60.311 -51.147  1.00  0.00     0.709 A 
HETATM    5  N   UNL     1     -43.621  59.603 -51.806  1.00  0.00    -0.165 N 
HETATM    6  C   UNL     1     -43.395  58.257 -52.348  1.00  0.00     0.182 C 
HETATM    7  N   UNL     1     -43.077  61.490 -50.773  1.00  0.00    -0.062 NA
HETATM    8  C   UNL     1     -44.400  61.522 -51.153  1.00  0.00     0.103 A 
HETATM    9  C   UNL     1     -44.775  60.342 -51.796  1.00  0.00     0.082 A 
HETATM   10  C   UNL     1     -45.356  62.532 -50.964  1.00  0.00     0.034 A 
HETATM   11  C   UNL     1     -46.662  62.319 -51.421  1.00  0.00     0.002 A 
HETATM   12  C   UNL     1     -47.011  61.128 -52.062  1.00  0.00     0.002 A 
HETATM   13  C   UNL     1     -46.072  60.111 -52.268  1.00  0.00     0.032 A 
HETATM   14  C   UNL     1     -42.135  57.621 -51.773  1.00  0.00     0.061 C 
HETATM   15  H   UNL     1     -40.811  60.234 -50.318  1.00  0.00     0.184 HD
ENDROOT
BRANCH   6  16
HETATM   16  C   UNL     1     -43.384  58.306 -53.875  1.00  0.00    -0.030 A 
HETATM   17  C   UNL     1     -44.432  57.774 -54.642  1.00  0.00     0.012 A 
HETATM   18  C   UNL     1     -44.370  57.760 -56.041  1.00  0.00     0.030 A 
HETATM   19  C   UNL     1     -43.265  58.288 -56.706  1.00  0.00     0.034 A 
HETATM   20  C   UNL     1     -42.235  58.860 -55.949  1.00  0.00     0.030 A 
HETATM   21  C   UNL     1     -42.295  58.876 -54.551  1.00  0.00     0.012 A 
BRANCH  19  22
HETATM   22  N   UNL     1     -43.098  58.257 -58.106  1.00  0.00    -0.328 N 
HETATM   23  C   UNL     1     -42.832  57.153 -58.898  1.00  0.00     0.218 C 
HETATM   24  C   UNL     1     -42.621  57.526 -60.344  1.00  0.00     0.117 C 
HETATM   25  O   UNL     1     -42.784  55.981 -58.542  1.00  0.00    -0.274 OA
HETATM   26  H   UNL     1     -43.162  59.149 -58.580  1.00  0.00     0.169 HD
ENDBRANCH  19  22
ENDBRANCH   6  16
BRANCH  14  27
HETATM   27  C   UNL     1     -42.111  56.133 -51.890  1.00  0.00     0.256 C 
HETATM   28  N   UNL     1     -41.153  55.641 -52.748  1.00  0.00    -0.323 N 
HETATM   29  H   UNL     1     -40.628  56.317 -53.287  1.00  0.00     0.169 HD
HETATM   30  O   UNL     1     -42.941  55.484 -51.263  1.00  0.00    -0.267 OA
BRANCH  28  31
HETATM   31  C   UNL     1     -40.758  54.293 -52.894  1.00  0.00     0.035 A 
HETATM   32  C   UNL     1     -40.306  53.493 -51.842  1.00  0.00     0.029 A 
HETATM   33  C   UNL     1     -39.878  52.182 -52.077  1.00  0.00     0.002 A 
HETATM   34  C   UNL     1     -39.894  51.661 -53.368  1.00  0.00     0.000 A 
HETATM   35  C   UNL     1     -40.347  52.447 -54.424  1.00  0.00     0.002 A 
HETATM   36  C   UNL     1     -40.781  53.755 -54.187  1.00  0.00     0.029 A 
ENDBRANCH  28  31
ENDBRANCH  14  27
TORSDOF 4
ENDMDL
MODEL 4
REMARK VINA RESULT:      -7.6      3.418      7.844
REMARK  4 active torsions:
REMARK  status: ('A' for Active; 'I' for Inactive)
REMARK    1  A    between atoms: C_6  and  C_7 
REMARK    2  A    between atoms: C_10  and  N_11 
REMARK       I    between atoms: N_11  and  C_12 
REMARK    3  A    between atoms: C_24  and  C_25 
REMARK       I    between atoms: C_25  and  N_26 
REMARK    4  A    between atoms: N_26  and  C_27 
ROOT
HETATM    1  C   UNL     1     -43.964  55.499 -59.180  1.00  0.00     0.070 C 
HETATM    2  C   UNL     1     -43.584  56.916 -58.832  1.00  0.00     0.037 C 
HETATM    3  N   UNL     1     -43.552  57.802 -59.905  1.00  0.00    -0.193 N 
HETATM    4  C   UNL     1     -42.873  58.966 -59.878  1.00  0.00     0.709 A 
HETATM    5  N   UNL     1     -42.413  59.439 -58.675  1.00  0.00    -0.165 N 
HETATM    6  C   UNL     1     -42.691  58.769 -57.398  1.00  0.00     0.182 C 
HETATM    7  N   UNL     1     -42.515  59.739 -60.872  1.00  0.00    -0.062 NA
HETATM    8  C   UNL     1     -41.740  60.720 -60.295  1.00  0.00     0.103 A 
HETATM    9  C   UNL     1     -41.647  60.551 -58.913  1.00  0.00     0.082 A 
HETATM   10  C   UNL     1     -41.062  61.790 -60.899  1.00  0.00     0.034 A 
HETATM   11  C   UNL     1     -40.306  62.651 -60.096  1.00  0.00     0.002 A 
HETATM   12  C   UNL     1     -40.231  62.459 -58.715  1.00  0.00     0.002 A 
HETATM   13  C   UNL     1     -40.905  61.403 -58.089  1.00  0.00     0.032 A 
HETATM   14  C   UNL     1     -43.193  57.345 -57.605  1.00  0.00     0.061 C 
HETATM   15  H   UNL     1     -43.757  57.421 -60.827  1.00  0.00     0.184 HD
ENDROOT
BRANCH   6  16
HETATM   16  C   UNL     1     -43.652  59.616 -56.565  1.00  0.00    -0.030 A 
HETATM   17  C   UNL     1     -43.242  60.258 -55.386  1.00  0.00     0.012 A 
HETATM   18  C   UNL     1     -44.154  60.967 -54.595  1.00  0.00     0.030 A 
HETATM   19  C   UNL     1     -45.494  61.061 -54.969  1.00  0.00     0.034 A 
HETATM   20  C   UNL     1     -45.900  60.460 -56.167  1.00  0.00     0.030 A 
HETATM   21  C   UNL     1     -44.991  59.751 -56.960  1.00  0.00     0.012 A 
BRANCH  19  22
HETATM   22  N   UNL     1     -46.485  61.702 -54.198  1.00  0.00    -0.328 N 
HETATM   23  C   UNL     1     -46.907  61.369 -52.923  1.00  0.00     0.218 C 
HETATM   24  C   UNL     1     -48.059  62.226 -52.461  1.00  0.00     0.117 C 
HETATM   25  O   UNL     1     -46.433  60.511 -52.188  1.00  0.00    -0.274 OA
HETATM   26  H   UNL     1     -46.952  62.485 -54.640  1.00  0.00     0.169 HD
ENDBRANCH  19  22
ENDBRANCH   6  16
BRANCH  14  27
HETATM   27  C   UNL     1     -43.030  56.474 -56.405  1.00  0.00     0.256 C 
HETATM   28  N   UNL     1     -41.797  55.870 -56.298  1.00  0.00    -0.323 N 
HETATM   29  H   UNL     1     -41.159  55.985 -57.074  1.00  0.00     0.169 HD
HETATM   30  O   UNL     1     -43.984  56.339 -55.646  1.00  0.00    -0.267 OA
BRANCH  28  31
HETATM   31  C   UNL     1     -41.287  55.177 -55.178  1.00  0.00     0.035 A 
HETATM   32  C   UNL     1     -40.703  53.909 -55.243  1.00  0.00     0.029 A 
HETATM   33  C   UNL     1     -40.272  53.263 -54.080  1.00  0.00     0.002 A 
HETATM   34  C   UNL     1     -40.427  53.875 -52.840  1.00  0.00     0.000 A 
HETATM   35  C   UNL     1     -41.004  55.140 -52.762  1.00  0.00     0.002 A 
HETATM   36  C   UNL     1     -41.427  55.789 -53.926  1.00  0.00     0.029 A 
ENDBRANCH  28  31
ENDBRANCH  14  27
TORSDOF 4
ENDMDL
MODEL 5
REMARK VINA RESULT:      -7.4      4.191      6.945
REMARK  4 active torsions:
REMARK  status: ('A' for Active; 'I' for Inactive)
REMARK    1  A    between atoms: C_6  and  C_7 
REMARK    2  A    between atoms: C_10  and  N_11 
REMARK       I    between atoms: N_11  and  C_12 
REMARK    3  A    between atoms: C_24  and  C_25 
REMARK       I    between atoms: C_25  and  N_26 
REMARK    4  A    between atoms: N_26  and  C_27 
ROOT
HETATM    1  C   UNL     1     -43.693  54.857 -59.259  1.00  0.00     0.070 C 
HETATM    2  C   UNL     1     -43.728  55.991 -58.267  1.00  0.00     0.037 C 
HETATM    3  N   UNL     1     -43.221  55.691 -57.006  1.00  0.00    -0.193 N 
HETATM    4  C   UNL     1     -43.520  56.408 -55.903  1.00  0.00     0.709 A 
HETATM    5  N   UNL     1     -44.124  57.630 -56.050  1.00  0.00    -0.165 N 
HETATM    6  C   UNL     1     -44.396  58.232 -57.361  1.00  0.00     0.182 C 
HETATM    7  N   UNL     1     -43.366  56.090 -54.643  1.00  0.00    -0.062 NA
HETATM    8  C   UNL     1     -43.951  57.123 -53.945  1.00  0.00     0.103 A 
HETATM    9  C   UNL     1     -44.448  58.103 -54.804  1.00  0.00     0.082 A 
HETATM   10  C   UNL     1     -44.109  57.283 -52.560  1.00  0.00     0.034 A 
HETATM   11  C   UNL     1     -44.770  58.422 -52.083  1.00  0.00     0.002 A 
HETATM   12  C   UNL     1     -45.257  59.388 -52.965  1.00  0.00     0.002 A 
HETATM   13  C   UNL     1     -45.104  59.252 -54.350  1.00  0.00     0.032 A 
HETATM   14  C   UNL     1     -44.288  57.208 -58.485  1.00  0.00     0.061 C 
HETATM   15  H   UNL     1     -42.899  54.738 -56.851  1.00  0.00     0.184 HD
ENDROOT
BRANCH   6  16
HETATM   16  C   UNL     1     -43.488  59.441 -57.578  1.00  0.00    -0.030 A 
HETATM   17  C   UNL     1     -42.102  59.305 -57.756  1.00  0.00     0.012 A 
HETATM   18  C   UNL     1     -41.275  60.428 -57.877  1.00  0.00     0.030 A 
HETATM   19  C   UNL     1     -41.814  61.712 -57.834  1.00  0.00     0.034 A 
HETATM   20  C   UNL     1     -43.200  61.855 -57.701  1.00  0.00     0.030 A 
HETATM   21  C   UNL     1     -44.030  60.735 -57.580  1.00  0.00     0.012 A 
BRANCH  19  22
HETATM   22  N   UNL     1     -41.044  62.893 -57.886  1.00  0.00    -0.328 N 
HETATM   23  C   UNL     1     -40.233  63.324 -58.921  1.00  0.00     0.218 C 
HETATM   24  C   UNL     1     -39.488  64.589 -58.573  1.00  0.00     0.117 C 
HETATM   25  O   UNL     1     -40.104  62.807 -60.025  1.00  0.00    -0.274 OA
HETATM   26  H   UNL     1     -41.077  63.480 -57.062  1.00  0.00     0.169 HD
ENDBRANCH  19  22
ENDBRANCH   6  16
BRANCH  14  27
HETATM   27  C   UNL     1     -45.004  57.611 -59.730  1.00  0.00     0.256 C 
HETATM   28  N   UNL     1     -46.327  57.236 -59.778  1.00  0.00    -0.323 N 
HETATM   29  H   UNL     1     -46.665  56.646 -59.029  1.00  0.00     0.169 HD
HETATM   30  O   UNL     1     -44.373  58.197 -60.604  1.00  0.00    -0.267 OA
BRANCH  28  31
HETATM   31  C   UNL     1     -47.295  57.657 -60.716  1.00  0.00     0.035 A 
HETATM   32  C   UNL     1     -47.768  58.968 -60.816  1.00  0.00     0.029 A 
HETATM   33  C   UNL     1     -48.770  59.296 -61.735  1.00  0.00     0.002 A 
HETATM   34  C   UNL     1     -49.313  58.314 -62.560  1.00  0.00     0.000 A 
HETATM   35  C   UNL     1     -48.846  57.005 -62.473  1.00  0.00     0.002 A 
HETATM   36  C   UNL     1     -47.840  56.680 -61.559  1.00  0.00     0.029 A 
ENDBRANCH  28  31
ENDBRANCH  14  27
TORSDOF 4
ENDMDL
MODEL 6
REMARK VINA RESULT:      -7.3      2.417      6.503
REMARK  4 active torsions:
REMARK  status: ('A' for Active; 'I' for Inactive)
REMARK    1  A    between atoms: C_6  and  C_7 
REMARK    2  A    between atoms: C_10  and  N_11 
REMARK       I    between atoms: N_11  and  C_12 
REMARK    3  A    between atoms: C_24  and  C_25 
REMARK       I    between atoms: C_25  and  N_26 
REMARK    4  A    between atoms: N_26  and  C_27 
ROOT
HETATM    1  C   UNL     1     -43.500  56.924 -57.177  1.00  0.00     0.070 C 
HETATM    2  C   UNL     1     -42.761  56.375 -55.983  1.00  0.00     0.037 C 
HETATM    3  N   UNL     1     -41.694  55.533 -56.282  1.00  0.00    -0.193 N 
HETATM    4  C   UNL     1     -41.181  54.654 -55.398  1.00  0.00     0.709 A 
HETATM    5  N   UNL     1     -41.528  54.762 -54.076  1.00  0.00    -0.165 N 
HETATM    6  C   UNL     1     -42.380  55.843 -53.563  1.00  0.00     0.182 C 
HETATM    7  N   UNL     1     -40.402  53.624 -55.613  1.00  0.00    -0.062 NA
HETATM    8  C   UNL     1     -40.289  53.005 -54.388  1.00  0.00     0.103 A 
HETATM    9  C   UNL     1     -40.997  53.692 -53.402  1.00  0.00     0.082 A 
HETATM   10  C   UNL     1     -39.604  51.830 -54.044  1.00  0.00     0.034 A 
HETATM   11  C   UNL     1     -39.659  51.379 -52.720  1.00  0.00     0.002 A 
HETATM   12  C   UNL     1     -40.375  52.086 -51.752  1.00  0.00     0.002 A 
HETATM   13  C   UNL     1     -41.060  53.265 -52.071  1.00  0.00     0.032 A 
HETATM   14  C   UNL     1     -43.114  56.565 -54.686  1.00  0.00     0.061 C 
HETATM   15  H   UNL     1     -41.520  55.338 -57.266  1.00  0.00     0.184 HD
ENDROOT
BRANCH   6  16
HETATM   16  C   UNL     1     -41.552  56.791 -52.697  1.00  0.00    -0.030 A 
HETATM   17  C   UNL     1     -41.616  56.761 -51.295  1.00  0.00     0.012 A 
HETATM   18  C   UNL     1     -40.908  57.688 -50.519  1.00  0.00     0.030 A 
HETATM   19  C   UNL     1     -40.112  58.658 -51.126  1.00  0.00     0.034 A 
HETATM   20  C   UNL     1     -40.008  58.666 -52.522  1.00  0.00     0.030 A 
HETATM   21  C   UNL     1     -40.714  57.741 -53.300  1.00  0.00     0.012 A 
BRANCH  19  22
HETATM   22  N   UNL     1     -39.418  59.663 -50.420  1.00  0.00    -0.328 N 
HETATM   23  C   UNL     1     -38.073  59.690 -50.098  1.00  0.00     0.218 C 
HETATM   24  C   UNL     1     -37.713  60.884 -49.249  1.00  0.00     0.117 C 
HETATM   25  O   UNL     1     -37.212  58.890 -50.447  1.00  0.00    -0.274 OA
HETATM   26  H   UNL     1     -39.977  60.443 -50.097  1.00  0.00     0.169 HD
ENDBRANCH  19  22
ENDBRANCH   6  16
BRANCH  14  27
HETATM   27  C   UNL     1     -44.321  57.311 -54.227  1.00  0.00     0.256 C 
HETATM   28  N   UNL     1     -44.059  58.551 -53.690  1.00  0.00    -0.323 N 
HETATM   29  H   UNL     1     -43.087  58.802 -53.564  1.00  0.00     0.169 HD
HETATM   30  O   UNL     1     -45.417  56.769 -54.326  1.00  0.00    -0.267 OA
BRANCH  28  31
HETATM   31  C   UNL     1     -45.001  59.555 -53.375  1.00  0.00     0.035 A 
HETATM   32  C   UNL     1     -45.394  60.563 -54.259  1.00  0.00     0.029 A 
HETATM   33  C   UNL     1     -46.292  61.556 -53.853  1.00  0.00     0.002 A 
HETATM   34  C   UNL     1     -46.801  61.554 -52.558  1.00  0.00     0.000 A 
HETATM   35  C   UNL     1     -46.420  60.552 -51.669  1.00  0.00     0.002 A 
HETATM   36  C   UNL     1     -45.529  59.556 -52.077  1.00  0.00     0.029 A 
ENDBRANCH  28  31
ENDBRANCH  14  27
TORSDOF 4
ENDMDL
MODEL 7
REMARK VINA RESULT:      -7.3      2.806      6.436
REMARK  4 active torsions:
REMARK  status: ('A' for Active; 'I' for Inactive)
REMARK    1  A    between atoms: C_6  and  C_7 
REMARK    2  A    between atoms: C_10  and  N_11 
REMARK       I    between atoms: N_11  and  C_12 
REMARK    3  A    between atoms: C_24  and  C_25 
REMARK       I    between atoms: C_25  and  N_26 
REMARK    4  A    between atoms: N_26  and  C_27 
ROOT
HETATM    1  C   UNL     1     -43.706  59.188 -51.095  1.00  0.00     0.070 C 
HETATM    2  C   UNL     1     -43.274  58.190 -52.140  1.00  0.00     0.037 C 
HETATM    3  N   UNL     1     -43.455  56.854 -51.793  1.00  0.00    -0.193 N 
HETATM    4  C   UNL     1     -42.790  55.844 -52.388  1.00  0.00     0.709 A 
HETATM    5  N   UNL     1     -42.109  56.091 -53.552  1.00  0.00    -0.165 N 
HETATM    6  C   UNL     1     -42.130  57.397 -54.225  1.00  0.00     0.182 C 
HETATM    7  N   UNL     1     -42.635  54.607 -51.989  1.00  0.00    -0.062 NA
HETATM    8  C   UNL     1     -41.769  54.047 -52.901  1.00  0.00     0.103 A 
HETATM    9  C   UNL     1     -41.410  54.961 -53.892  1.00  0.00     0.082 A 
HETATM   10  C   UNL     1     -41.227  52.753 -52.936  1.00  0.00     0.034 A 
HETATM   11  C   UNL     1     -40.335  52.422 -53.963  1.00  0.00     0.002 A 
HETATM   12  C   UNL     1     -39.992  53.357 -54.942  1.00  0.00     0.002 A 
HETATM   13  C   UNL     1     -40.526  54.651 -54.931  1.00  0.00     0.032 A 
HETATM   14  C   UNL     1     -42.655  58.495 -53.308  1.00  0.00     0.061 C 
HETATM   15  H   UNL     1     -43.833  56.663 -50.868  1.00  0.00     0.184 HD
ENDROOT
BRANCH   6  16
HETATM   16  C   UNL     1     -42.916  57.295 -55.531  1.00  0.00    -0.030 A 
HETATM   17  C   UNL     1     -44.316  57.398 -55.565  1.00  0.00     0.012 A 
HETATM   18  C   UNL     1     -45.025  57.228 -56.759  1.00  0.00     0.030 A 
HETATM   19  C   UNL     1     -44.352  56.961 -57.951  1.00  0.00     0.034 A 
HETATM   20  C   UNL     1     -42.954  56.901 -57.934  1.00  0.00     0.030 A 
HETATM   21  C   UNL     1     -42.242  57.072 -56.740  1.00  0.00     0.012 A 
BRANCH  19  22
HETATM   22  N   UNL     1     -44.995  56.716 -59.182  1.00  0.00    -0.328 N 
HETATM   23  C   UNL     1     -45.059  55.520 -59.875  1.00  0.00     0.218 C 
HETATM   24  C   UNL     1     -45.752  55.668 -61.206  1.00  0.00     0.117 C 
HETATM   25  O   UNL     1     -44.648  54.427 -59.503  1.00  0.00    -0.274 OA
HETATM   26  H   UNL     1     -45.445  57.514 -59.613  1.00  0.00     0.169 HD
ENDBRANCH  19  22
ENDBRANCH   6  16
BRANCH  14  27
HETATM   27  C   UNL     1     -42.257  59.868 -53.735  1.00  0.00     0.256 C 
HETATM   28  N   UNL     1     -43.299  60.660 -54.162  1.00  0.00    -0.323 N 
HETATM   29  H   UNL     1     -44.208  60.222 -54.243  1.00  0.00     0.169 HD
HETATM   30  O   UNL     1     -41.069  60.168 -53.707  1.00  0.00    -0.267 OA
BRANCH  28  31
HETATM   31  C   UNL     1     -43.260  62.049 -54.417  1.00  0.00     0.035 A 
HETATM   32  C   UNL     1     -43.135  63.023 -53.423  1.00  0.00     0.029 A 
HETATM   33  C   UNL     1     -43.160  64.382 -53.750  1.00  0.00     0.002 A 
HETATM   34  C   UNL     1     -43.316  64.781 -55.075  1.00  0.00     0.000 A 
HETATM   35  C   UNL     1     -43.436  63.820 -56.075  1.00  0.00     0.002 A 
HETATM   36  C   UNL     1     -43.404  62.461 -55.748  1.00  0.00     0.029 A 
ENDBRANCH  28  31
ENDBRANCH  14  27
TORSDOF 4
ENDMDL
MODEL 8
REMARK VINA RESULT:      -6.9      3.750      7.332
REMARK  4 active torsions:
REMARK  status: ('A' for Active; 'I' for Inactive)
REMARK    1  A    between atoms: C_6  and  C_7 
REMARK    2  A    between atoms: C_10  and  N_11 
REMARK       I    between atoms: N_11  and  C_12 
REMARK    3  A    between atoms: C_24  and  C_25 
REMARK       I    between atoms: C_25  and  N_26 
REMARK    4  A    between atoms: N_26  and  C_27 
ROOT
HETATM    1  C   UNL     1     -45.487  54.902 -60.055  1.00  0.00     0.070 C 
HETATM    2  C   UNL     1     -44.688  55.835 -59.180  1.00  0.00     0.037 C 
HETATM    3  N   UNL     1     -43.587  55.260 -58.551  1.00  0.00    -0.193 N 
HETATM    4  C   UNL     1     -43.005  55.791 -57.457  1.00  0.00     0.709 A 
HETATM    5  N   UNL     1     -43.321  57.075 -57.094  1.00  0.00    -0.165 N 
HETATM    6  C   UNL     1     -44.214  57.930 -57.886  1.00  0.00     0.182 C 
HETATM    7  N   UNL     1     -42.180  55.234 -56.607  1.00  0.00    -0.062 NA
HETATM    8  C   UNL     1     -42.002  56.177 -55.619  1.00  0.00     0.103 A 
HETATM    9  C   UNL     1     -42.718  57.343 -55.892  1.00  0.00     0.082 A 
HETATM   10  C   UNL     1     -41.248  56.099 -54.439  1.00  0.00     0.034 A 
HETATM   11  C   UNL     1     -41.243  57.193 -53.566  1.00  0.00     0.002 A 
HETATM   12  C   UNL     1     -41.969  58.348 -53.863  1.00  0.00     0.002 A 
HETATM   13  C   UNL     1     -42.722  58.452 -55.038  1.00  0.00     0.032 A 
HETATM   14  C   UNL     1     -45.015  57.122 -58.901  1.00  0.00     0.061 C 
HETATM   15  H   UNL     1     -43.430  54.267 -58.709  1.00  0.00     0.184 HD
ENDROOT
BRANCH   6  16
HETATM   16  C   UNL     1     -43.413  59.058 -58.534  1.00  0.00    -0.030 A 
HETATM   17  C   UNL     1     -43.448  60.371 -58.038  1.00  0.00     0.012 A 
HETATM   18  C   UNL     1     -42.768  61.408 -58.689  1.00  0.00     0.030 A 
HETATM   19  C   UNL     1     -42.029  61.155 -59.844  1.00  0.00     0.034 A 
HETATM   20  C   UNL     1     -41.954  59.840 -60.319  1.00  0.00     0.030 A 
HETATM   21  C   UNL     1     -42.632  58.802 -59.670  1.00  0.00     0.012 A 
BRANCH  19  22
HETATM   22  N   UNL     1     -41.368  62.152 -60.591  1.00  0.00    -0.328 N 
HETATM   23  C   UNL     1     -40.194  62.808 -60.267  1.00  0.00     0.218 C 
HETATM   24  C   UNL     1     -39.846  63.884 -61.266  1.00  0.00     0.117 C 
HETATM   25  O   UNL     1     -39.457  62.579 -59.314  1.00  0.00    -0.274 OA
HETATM   26  H   UNL     1     -41.819  62.429 -61.454  1.00  0.00     0.169 HD
ENDBRANCH  19  22
ENDBRANCH   6  16
BRANCH  14  27
HETATM   27  C   UNL     1     -46.246  57.816 -59.377  1.00  0.00     0.256 C 
HETATM   28  N   UNL     1     -46.330  57.963 -60.743  1.00  0.00    -0.323 N 
HETATM   29  H   UNL     1     -45.523  57.685 -61.286  1.00  0.00     0.169 HD
HETATM   30  O   UNL     1     -47.049  58.221 -58.543  1.00  0.00    -0.267 OA
BRANCH  28  31
HETATM   31  C   UNL     1     -47.458  58.380 -61.484  1.00  0.00     0.035 A 
HETATM   32  C   UNL     1     -47.810  59.716 -61.687  1.00  0.00     0.029 A 
HETATM   33  C   UNL     1     -48.975  60.048 -62.386  1.00  0.00     0.002 A 
HETATM   34  C   UNL     1     -49.803  59.045 -62.883  1.00  0.00     0.000 A 
HETATM   35  C   UNL     1     -49.461  57.709 -62.691  1.00  0.00     0.002 A 
HETATM   36  C   UNL     1     -48.292  57.379 -61.999  1.00  0.00     0.029 A 
ENDBRANCH  28  31
ENDBRANCH  14  27
TORSDOF 4
ENDMDL
MODEL 9
REMARK VINA RESULT:      -6.8      3.291      7.104
REMARK  4 active torsions:
REMARK  status: ('A' for Active; 'I' for Inactive)
REMARK    1  A    between atoms: C_6  and  C_7 
REMARK    2  A    between atoms: C_10  and  N_11 
REMARK       I    between atoms: N_11  and  C_12 
REMARK    3  A    between atoms: C_24  and  C_25 
REMARK       I    between atoms: C_25  and  N_26 
REMARK    4  A    between atoms: N_26  and  C_27 
ROOT
HETATM    1  C   UNL     1     -45.253  58.531 -50.433  1.00  0.00     0.070 C 
HETATM    2  C   UNL     1     -44.556  57.888 -51.606  1.00  0.00     0.037 C 
HETATM    3  N   UNL     1     -44.475  56.500 -51.559  1.00  0.00    -0.193 N 
HETATM    4  C   UNL     1     -43.577  55.791 -52.273  1.00  0.00     0.709 A 
HETATM    5  N   UNL     1     -42.890  56.415 -53.283  1.00  0.00    -0.165 N 
HETATM    6  C   UNL     1     -43.142  57.808 -53.675  1.00  0.00     0.182 C 
HETATM    7  N   UNL     1     -43.192  54.550 -52.119  1.00  0.00    -0.062 NA
HETATM    8  C   UNL     1     -42.172  54.381 -53.028  1.00  0.00     0.103 A 
HETATM    9  C   UNL     1     -41.950  55.542 -53.769  1.00  0.00     0.082 A 
HETATM   10  C   UNL     1     -41.370  53.255 -53.267  1.00  0.00     0.034 A 
HETATM   11  C   UNL     1     -40.365  53.335 -54.239  1.00  0.00     0.002 A 
HETATM   12  C   UNL     1     -40.165  54.510 -54.966  1.00  0.00     0.002 A 
HETATM   13  C   UNL     1     -40.957  55.643 -54.749  1.00  0.00     0.032 A 
HETATM   14  C   UNL     1     -43.942  58.556 -52.616  1.00  0.00     0.061 C 
HETATM   15  H   UNL     1     -44.862  56.040 -50.738  1.00  0.00     0.184 HD
ENDROOT
BRANCH   6  16
HETATM   16  C   UNL     1     -43.805  57.849 -55.051  1.00  0.00    -0.030 A 
HETATM   17  C   UNL     1     -43.086  58.173 -56.212  1.00  0.00     0.012 A 
HETATM   18  C   UNL     1     -43.726  58.280 -57.453  1.00  0.00     0.030 A 
HETATM   19  C   UNL     1     -45.097  58.054 -57.565  1.00  0.00     0.034 A 
HETATM   20  C   UNL     1     -45.813  57.687 -56.419  1.00  0.00     0.030 A 
HETATM   21  C   UNL     1     -45.176  57.579 -55.177  1.00  0.00     0.012 A 
BRANCH  19  22
HETATM   22  N   UNL     1     -45.825  58.202 -58.763  1.00  0.00    -0.328 N 
HETATM   23  C   UNL     1     -46.625  59.267 -59.137  1.00  0.00     0.218 C 
HETATM   24  C   UNL     1     -47.323  59.024 -60.452  1.00  0.00     0.117 C 
HETATM   25  O   UNL     1     -46.776  60.325 -58.536  1.00  0.00    -0.274 OA
HETATM   26  H   UNL     1     -45.768  57.428 -59.414  1.00  0.00     0.169 HD
ENDBRANCH  19  22
ENDBRANCH   6  16
BRANCH  14  27
HETATM   27  C   UNL     1     -43.815  60.039 -52.710  1.00  0.00     0.256 C 
HETATM   28  N   UNL     1     -44.844  60.662 -53.381  1.00  0.00    -0.323 N 
HETATM   29  H   UNL     1     -45.529  60.066 -53.828  1.00  0.00     0.169 HD
HETATM   30  O   UNL     1     -42.821  60.573 -52.230  1.00  0.00    -0.267 OA
BRANCH  28  31
HETATM   31  C   UNL     1     -45.101  62.050 -53.440  1.00  0.00     0.035 A 
HETATM   32  C   UNL     1     -45.494  62.819 -52.342  1.00  0.00     0.029 A 
HETATM   33  C   UNL     1     -45.784  64.179 -52.493  1.00  0.00     0.002 A 
HETATM   34  C   UNL     1     -45.690  64.781 -53.744  1.00  0.00     0.000 A 
HETATM   35  C   UNL     1     -45.295  64.026 -54.845  1.00  0.00     0.002 A 
HETATM   36  C   UNL     1     -44.997  62.668 -54.692  1.00  0.00     0.029 A 
ENDBRANCH  28  31
ENDBRANCH  14  27
TORSDOF 4
ENDMDL
MODEL 10
REMARK VINA RESULT:      -6.8      2.989      6.297
REMARK  4 active torsions:
REMARK  status: ('A' for Active; 'I' for Inactive)
REMARK    1  A    between atoms: C_6  and  C_7 
REMARK    2  A    between atoms: C_10  and  N_11 
REMARK       I    between atoms: N_11  and  C_12 
REMARK    3  A    between atoms: C_24  and  C_25 
REMARK       I    between atoms: C_25  and  N_26 
REMARK    4  A    between atoms: N_26  and  C_27 
ROOT
HETATM    1  C   UNL     1     -42.961  57.194 -58.318  1.00  0.00     0.070 C 
HETATM    2  C   UNL     1     -42.873  57.059 -56.818  1.00  0.00     0.037 C 
HETATM    3  N   UNL     1     -41.741  56.399 -56.349  1.00  0.00    -0.193 N 
HETATM    4  C   UNL     1     -41.671  55.839 -55.124  1.00  0.00     0.709 A 
HETATM    5  N   UNL     1     -42.633  56.148 -54.197  1.00  0.00    -0.165 N 
HETATM    6  C   UNL     1     -43.702  57.122 -54.453  1.00  0.00     0.182 C 
HETATM    7  N   UNL     1     -40.817  54.961 -54.664  1.00  0.00    -0.062 NA
HETATM    8  C   UNL     1     -41.281  54.642 -53.407  1.00  0.00     0.103 A 
HETATM    9  C   UNL     1     -42.431  55.365 -53.089  1.00  0.00     0.082 A 
HETATM   10  C   UNL     1     -40.774  53.721 -52.478  1.00  0.00     0.034 A 
HETATM   11  C   UNL     1     -41.445  53.551 -51.261  1.00  0.00     0.002 A 
HETATM   12  C   UNL     1     -42.594  54.288 -50.968  1.00  0.00     0.002 A 
HETATM   13  C   UNL     1     -43.114  55.217 -51.877  1.00  0.00     0.032 A 
HETATM   14  C   UNL     1     -43.833  57.438 -55.938  1.00  0.00     0.061 C 
HETATM   15  H   UNL     1     -41.089  56.043 -57.045  1.00  0.00     0.184 HD
ENDROOT
BRANCH   6  16
HETATM   16  C   UNL     1     -43.481  58.372 -53.603  1.00  0.00    -0.030 A 
HETATM   17  C   UNL     1     -42.343  59.180 -53.755  1.00  0.00     0.012 A 
HETATM   18  C   UNL     1     -42.119  60.278 -52.916  1.00  0.00     0.030 A 
HETATM   19  C   UNL     1     -43.032  60.602 -51.914  1.00  0.00     0.034 A 
HETATM   20  C   UNL     1     -44.191  59.827 -51.785  1.00  0.00     0.030 A 
HETATM   21  C   UNL     1     -44.418  58.729 -52.622  1.00  0.00     0.012 A 
BRANCH  19  22
HETATM   22  N   UNL     1     -42.850  61.652 -50.990  1.00  0.00    -0.328 N 
HETATM   23  C   UNL     1     -43.318  62.951 -51.089  1.00  0.00     0.218 C 
HETATM   24  C   UNL     1     -42.838  63.818 -49.951  1.00  0.00     0.117 C 
HETATM   25  O   UNL     1     -44.057  63.407 -51.953  1.00  0.00    -0.274 OA
HETATM   26  H   UNL     1     -42.297  61.431 -50.171  1.00  0.00     0.169 HD
ENDBRANCH  19  22
ENDBRANCH   6  16
BRANCH  14  27
HETATM   27  C   UNL     1     -45.160  58.011 -56.311  1.00  0.00     0.256 C 
HETATM   28  N   UNL     1     -45.099  59.085 -57.170  1.00  0.00    -0.323 N 
HETATM   29  H   UNL     1     -44.181  59.448 -57.390  1.00  0.00     0.169 HD
HETATM   30  O   UNL     1     -46.168  57.522 -55.814  1.00  0.00    -0.267 OA
BRANCH  28  31
HETATM   31  C   UNL     1     -46.180  59.686 -57.853  1.00  0.00     0.035 A 
HETATM   32  C   UNL     1     -46.887  60.792 -57.377  1.00  0.00     0.029 A 
HETATM   33  C   UNL     1     -47.983  61.296 -58.086  1.00  0.00     0.002 A 
HETATM   34  C   UNL     1     -48.385  60.694 -59.275  1.00  0.00     0.000 A 
HETATM   35  C   UNL     1     -47.685  59.593 -59.762  1.00  0.00     0.002 A 
HETATM   36  C   UNL     1     -46.585  59.095 -59.057  1.00  0.00     0.029 A 
ENDBRANCH  28  31
ENDBRANCH  14  27
TORSDOF 4
ENDMDL
