MODEL 1
REMARK VINA RESULT:      -7.8      0.000      0.000
REMARK  1 active torsions:
REMARK  status: ('A' for Active; 'I' for Inactive)
REMARK    1  A    between atoms: C_8  and  C_9 
ROOT
HETATM    1  C   UNL     1     -38.620  41.158 -54.643  1.00  0.00     0.073 C 
HETATM    2  C   UNL     1     -37.215  41.346 -54.192  1.00  0.00     0.062 A 
HETATM    3  N   UNL     1     -36.958  42.182 -53.183  1.00  0.00    -0.178 NA
HETATM    4  N   UNL     1     -35.640  42.077 -53.009  1.00  0.00    -0.262 N 
HETATM    5  H   UNL     1     -35.218  42.617 -52.263  1.00  0.00     0.191 HD
HETATM    6  C   UNL     1     -35.012  41.251 -53.905  1.00  0.00     0.134 A 
HETATM    7  C   UNL     1     -36.018  40.725 -54.701  1.00  0.00     0.032 A 
HETATM    8  C   UNL     1     -36.005  39.665 -55.764  1.00  0.00     0.120 C 
HETATM    9  S   UNL     1     -34.470  38.730 -55.969  1.00  0.00    -0.141 SA
HETATM   10  C   UNL     1     -33.271  40.088 -56.082  1.00  0.00     0.136 C 
HETATM   11  C   UNL     1     -32.100  39.613 -56.944  1.00  0.00     0.031 C 
HETATM   12  C   UNL     1     -32.793  40.498 -54.695  1.00  0.00     0.236 C 
HETATM   13  O   UNL     1     -31.609  40.406 -54.352  1.00  0.00    -0.272 OA
HETATM   14  N   UNL     1     -33.648  41.091 -53.811  1.00  0.00    -0.311 N 
HETATM   15  H   UNL     1     -33.163  41.439 -52.990  1.00  0.00     0.170 HD
ENDROOT
BRANCH   8  16
HETATM   16  C   UNL     1     -36.555  40.241 -57.074  1.00  0.00    -0.029 A 
HETATM   17  C   UNL     1     -37.350  39.433 -57.958  1.00  0.00    -0.018 A 
HETATM   18  C   UNL     1     -37.887  40.026 -59.132  1.00  0.00    -0.025 A 
HETATM   19  C   UNL     1     -37.658  38.064 -57.744  1.00  0.00     0.013 A 
HETATM   20  C   UNL     1     -38.704  39.283 -60.001  1.00  0.00     0.012 A 
HETATM   21  C   UNL     1     -37.610  41.364 -59.438  1.00  0.00     0.012 A 
HETATM   22  C   UNL     1     -39.002  37.948 -59.742  1.00  0.00     0.001 A 
HETATM   23  C   UNL     1     -38.473  37.337 -58.617  1.00  0.00     0.001 A 
HETATM   24  C   UNL     1     -36.816  42.136 -58.601  1.00  0.00     0.002 A 
HETATM   25  C   UNL     1     -36.299  41.583 -57.435  1.00  0.00     0.009 A 
ENDBRANCH   8  16
TORSDOF 1
ENDMDL
MODEL 2
REMARK VINA RESULT:      -7.8     16.142     17.874
REMARK  1 active torsions:
REMARK  status: ('A' for Active; 'I' for Inactive)
REMARK    1  A    between atoms: C_8  and  C_9 
ROOT
HETATM    1  C   UNL     1     -43.367  54.477 -50.696  1.00  0.00     0.073 C 
HETATM    2  C   UNL     1     -43.754  55.895 -50.928  1.00  0.00     0.062 A 
HETATM    3  N   UNL     1     -44.841  56.382 -50.326  1.00  0.00    -0.178 NA
HETATM    4  N   UNL     1     -44.867  57.661 -50.702  1.00  0.00    -0.262 N 
HETATM    5  H   UNL     1     -45.611  58.246 -50.338  1.00  0.00     0.191 HD
HETATM    6  C   UNL     1     -43.874  58.018 -51.577  1.00  0.00     0.134 A 
HETATM    7  C   UNL     1     -43.095  56.883 -51.744  1.00  0.00     0.032 A 
HETATM    8  C   UNL     1     -41.794  56.655 -52.459  1.00  0.00     0.120 C 
HETATM    9  S   UNL     1     -40.935  58.120 -53.080  1.00  0.00    -0.141 SA
HETATM   10  C   UNL     1     -42.286  58.938 -53.976  1.00  0.00     0.136 C 
HETATM   11  C   UNL     1     -41.672  59.742 -55.124  1.00  0.00     0.031 C 
HETATM   12  C   UNL     1     -43.076  59.844 -53.041  1.00  0.00     0.236 C 
HETATM   13  O   UNL     1     -43.152  61.066 -53.214  1.00  0.00    -0.272 OA
HETATM   14  N   UNL     1     -43.829  59.316 -52.031  1.00  0.00    -0.311 N 
HETATM   15  H   UNL     1     -44.411  60.018 -51.585  1.00  0.00     0.170 HD
ENDROOT
BRANCH   8  16
HETATM   16  C   UNL     1     -41.968  55.552 -53.508  1.00  0.00    -0.029 A 
HETATM   17  C   UNL     1     -41.276  54.298 -53.381  1.00  0.00    -0.018 A 
HETATM   18  C   UNL     1     -41.512  53.283 -54.346  1.00  0.00    -0.025 A 
HETATM   19  C   UNL     1     -40.362  53.981 -52.341  1.00  0.00     0.013 A 
HETATM   20  C   UNL     1     -40.887  52.029 -54.233  1.00  0.00     0.012 A 
HETATM   21  C   UNL     1     -42.375  53.519 -55.422  1.00  0.00     0.012 A 
HETATM   22  C   UNL     1     -40.017  51.750 -53.185  1.00  0.00     0.001 A 
HETATM   23  C   UNL     1     -39.749  52.729 -52.242  1.00  0.00     0.001 A 
HETATM   24  C   UNL     1     -43.020  54.740 -55.563  1.00  0.00     0.002 A 
HETATM   25  C   UNL     1     -42.821  55.740 -54.618  1.00  0.00     0.009 A 
ENDBRANCH   8  16
TORSDOF 1
ENDMDL
MODEL 3
REMARK VINA RESULT:      -7.6     17.313     19.134
REMARK  1 active torsions:
REMARK  status: ('A' for Active; 'I' for Inactive)
REMARK    1  A    between atoms: C_8  and  C_9 
ROOT
HETATM    1  C   UNL     1     -40.370  58.145 -50.864  1.00  0.00     0.073 C 
HETATM    2  C   UNL     1     -41.465  59.046 -51.315  1.00  0.00     0.062 A 
HETATM    3  N   UNL     1     -41.785  60.109 -50.573  1.00  0.00    -0.178 NA
HETATM    4  N   UNL     1     -42.746  60.710 -51.275  1.00  0.00    -0.262 N 
HETATM    5  H   UNL     1     -43.132  61.571 -50.905  1.00  0.00     0.191 HD
HETATM    6  C   UNL     1     -43.112  60.051 -52.419  1.00  0.00     0.134 A 
HETATM    7  C   UNL     1     -42.276  58.948 -52.502  1.00  0.00     0.032 A 
HETATM    8  C   UNL     1     -42.078  57.917 -53.577  1.00  0.00     0.120 C 
HETATM    9  S   UNL     1     -42.913  58.209 -55.154  1.00  0.00    -0.141 SA
HETATM   10  C   UNL     1     -44.600  58.546 -54.575  1.00  0.00     0.136 C 
HETATM   11  C   UNL     1     -45.571  58.111 -55.674  1.00  0.00     0.031 C 
HETATM   12  C   UNL     1     -44.770  60.025 -54.254  1.00  0.00     0.236 C 
HETATM   13  O   UNL     1     -45.578  60.742 -54.856  1.00  0.00    -0.272 OA
HETATM   14  N   UNL     1     -44.107  60.590 -53.203  1.00  0.00    -0.311 N 
HETATM   15  H   UNL     1     -44.425  61.537 -53.019  1.00  0.00     0.170 HD
ENDROOT
BRANCH   8  16
HETATM   16  C   UNL     1     -42.321  56.518 -53.000  1.00  0.00    -0.029 A 
HETATM   17  C   UNL     1     -41.618  55.375 -53.517  1.00  0.00    -0.018 A 
HETATM   18  C   UNL     1     -41.832  54.107 -52.913  1.00  0.00    -0.025 A 
HETATM   19  C   UNL     1     -40.699  55.413 -54.598  1.00  0.00     0.013 A 
HETATM   20  C   UNL     1     -41.133  52.974 -53.361  1.00  0.00     0.012 A 
HETATM   21  C   UNL     1     -42.743  53.972 -51.859  1.00  0.00     0.012 A 
HETATM   22  C   UNL     1     -40.221  53.058 -54.409  1.00  0.00     0.001 A 
HETATM   23  C   UNL     1     -40.010  54.277 -55.033  1.00  0.00     0.001 A 
HETATM   24  C   UNL     1     -43.447  55.069 -51.380  1.00  0.00     0.002 A 
HETATM   25  C   UNL     1     -43.235  56.323 -51.940  1.00  0.00     0.009 A 
ENDBRANCH   8  16
TORSDOF 1
ENDMDL
MODEL 4
REMARK VINA RESULT:      -7.3     15.923     17.688
REMARK  1 active torsions:
REMARK  status: ('A' for Active; 'I' for Inactive)
REMARK    1  A    between atoms: C_8  and  C_9 
ROOT
HETATM    1  C   UNL     1     -44.465  54.860 -54.105  1.00  0.00     0.073 C 
HETATM    2  C   UNL     1     -44.208  56.308 -53.883  1.00  0.00     0.062 A 
HETATM    3  N   UNL     1     -44.965  57.211 -54.511  1.00  0.00    -0.178 NA
HETATM    4  N   UNL     1     -44.509  58.380 -54.059  1.00  0.00    -0.262 N 
HETATM    5  H   UNL     1     -44.961  59.223 -54.391  1.00  0.00     0.191 HD
HETATM    6  C   UNL     1     -43.441  58.282 -53.205  1.00  0.00     0.134 A 
HETATM    7  C   UNL     1     -43.215  56.924 -53.039  1.00  0.00     0.032 A 
HETATM    8  C   UNL     1     -42.289  56.164 -52.133  1.00  0.00     0.120 C 
HETATM    9  S   UNL     1     -41.415  57.118 -50.870  1.00  0.00    -0.141 SA
HETATM   10  C   UNL     1     -40.729  58.457 -51.885  1.00  0.00     0.136 C 
HETATM   11  C   UNL     1     -39.432  58.932 -51.227  1.00  0.00     0.031 C 
HETATM   12  C   UNL     1     -41.727  59.602 -52.007  1.00  0.00     0.236 C 
HETATM   13  O   UNL     1     -41.483  60.737 -51.583  1.00  0.00    -0.272 OA
HETATM   14  N   UNL     1     -42.894  59.438 -52.697  1.00  0.00    -0.311 N 
HETATM   15  H   UNL     1     -43.388  60.316 -52.819  1.00  0.00     0.170 HD
ENDROOT
BRANCH   8  16
HETATM   16  C   UNL     1     -41.373  55.263 -52.969  1.00  0.00    -0.029 A 
HETATM   17  C   UNL     1     -40.854  54.036 -52.430  1.00  0.00    -0.018 A 
HETATM   18  C   UNL     1     -40.056  53.205 -53.260  1.00  0.00    -0.025 A 
HETATM   19  C   UNL     1     -41.088  53.571 -51.109  1.00  0.00     0.013 A 
HETATM   20  C   UNL     1     -39.565  51.977 -52.785  1.00  0.00     0.012 A 
HETATM   21  C   UNL     1     -39.750  53.599 -54.568  1.00  0.00     0.012 A 
HETATM   22  C   UNL     1     -39.838  51.545 -51.490  1.00  0.00     0.001 A 
HETATM   23  C   UNL     1     -40.594  52.346 -50.649  1.00  0.00     0.001 A 
HETATM   24  C   UNL     1     -40.224  54.799 -55.080  1.00  0.00     0.002 A 
HETATM   25  C   UNL     1     -41.027  55.617 -54.292  1.00  0.00     0.009 A 
ENDBRANCH   8  16
TORSDOF 1
ENDMDL
MODEL 5
REMARK VINA RESULT:      -6.9     17.321     19.401
REMARK  1 active torsions:
REMARK  status: ('A' for Active; 'I' for Inactive)
REMARK    1  A    between atoms: C_8  and  C_9 
ROOT
HETATM    1  C   UNL     1     -42.868  55.231 -50.587  1.00  0.00     0.073 C 
HETATM    2  C   UNL     1     -42.646  54.801 -51.995  1.00  0.00     0.062 A 
HETATM    3  N   UNL     1     -42.065  53.624 -52.235  1.00  0.00    -0.178 NA
HETATM    4  N   UNL     1     -42.066  53.532 -53.565  1.00  0.00    -0.262 N 
HETATM    5  H   UNL     1     -41.686  52.691 -53.981  1.00  0.00     0.191 HD
HETATM    6  C   UNL     1     -42.570  54.632 -54.210  1.00  0.00     0.134 A 
HETATM    7  C   UNL     1     -42.988  55.497 -53.210  1.00  0.00     0.032 A 
HETATM    8  C   UNL     1     -43.743  56.794 -53.255  1.00  0.00     0.120 C 
HETATM    9  S   UNL     1     -44.426  57.288 -54.855  1.00  0.00    -0.141 SA
HETATM   10  C   UNL     1     -42.961  57.098 -55.910  1.00  0.00     0.136 C 
HETATM   11  C   UNL     1     -43.078  58.097 -57.064  1.00  0.00     0.031 C 
HETATM   12  C   UNL     1     -42.860  55.672 -56.435  1.00  0.00     0.236 C 
HETATM   13  O   UNL     1     -42.905  55.408 -57.642  1.00  0.00    -0.272 OA
HETATM   14  N   UNL     1     -42.600  54.634 -55.586  1.00  0.00    -0.311 N 
HETATM   15  H   UNL     1     -42.417  53.771 -56.087  1.00  0.00     0.170 HD
ENDROOT
BRANCH   8  16
HETATM   16  C   UNL     1     -42.922  57.892 -52.570  1.00  0.00    -0.029 A 
HETATM   17  C   UNL     1     -43.547  58.832 -51.679  1.00  0.00    -0.018 A 
HETATM   18  C   UNL     1     -42.737  59.797 -51.022  1.00  0.00    -0.025 A 
HETATM   19  C   UNL     1     -44.936  58.869 -51.388  1.00  0.00     0.013 A 
HETATM   20  C   UNL     1     -43.303  60.705 -50.111  1.00  0.00     0.012 A 
HETATM   21  C   UNL     1     -41.361  59.852 -51.272  1.00  0.00     0.012 A 
HETATM   22  C   UNL     1     -44.666  60.693 -49.835  1.00  0.00     0.001 A 
HETATM   23  C   UNL     1     -45.485  59.779 -50.479  1.00  0.00     0.001 A 
HETATM   24  C   UNL     1     -40.762  58.966 -52.157  1.00  0.00     0.002 A 
HETATM   25  C   UNL     1     -41.531  57.998 -52.793  1.00  0.00     0.009 A 
ENDBRANCH   8  16
TORSDOF 1
ENDMDL
MODEL 6
REMARK VINA RESULT:      -6.8      1.835      2.301
REMARK  1 active torsions:
REMARK  status: ('A' for Active; 'I' for Inactive)
REMARK    1  A    between atoms: C_8  and  C_9 
ROOT
HETATM    1  C   UNL     1     -38.110  40.774 -53.318  1.00  0.00     0.073 C 
HETATM    2  C   UNL     1     -36.861  40.432 -52.585  1.00  0.00     0.062 A 
HETATM    3  N   UNL     1     -36.742  40.779 -51.301  1.00  0.00    -0.178 NA
HETATM    4  N   UNL     1     -35.553  40.289 -50.948  1.00  0.00    -0.262 N 
HETATM    5  H   UNL     1     -35.256  40.416 -49.988  1.00  0.00     0.191 HD
HETATM    6  C   UNL     1     -34.860  39.687 -51.967  1.00  0.00     0.134 A 
HETATM    7  C   UNL     1     -35.696  39.739 -53.072  1.00  0.00     0.032 A 
HETATM    8  C   UNL     1     -35.583  39.139 -54.444  1.00  0.00     0.120 C 
HETATM    9  S   UNL     1     -34.229  37.972 -54.718  1.00  0.00    -0.141 SA
HETATM   10  C   UNL     1     -32.831  38.934 -54.073  1.00  0.00     0.136 C 
HETATM   11  C   UNL     1     -31.572  38.499 -54.827  1.00  0.00     0.031 C 
HETATM   12  C   UNL     1     -32.672  38.709 -52.575  1.00  0.00     0.236 C 
HETATM   13  O   UNL     1     -31.653  38.208 -52.088  1.00  0.00    -0.272 OA
HETATM   14  N   UNL     1     -33.616  39.163 -51.699  1.00  0.00    -0.311 N 
HETATM   15  H   UNL     1     -33.312  39.074 -50.735  1.00  0.00     0.170 HD
ENDROOT
BRANCH   8  16
HETATM   16  C   UNL     1     -35.665  40.248 -55.500  1.00  0.00    -0.029 A 
HETATM   17  C   UNL     1     -36.515  40.108 -56.650  1.00  0.00    -0.018 A 
HETATM   18  C   UNL     1     -36.603  41.185 -57.573  1.00  0.00    -0.025 A 
HETATM   19  C   UNL     1     -37.299  38.961 -56.942  1.00  0.00     0.013 A 
HETATM   20  C   UNL     1     -37.455  41.105 -58.688  1.00  0.00     0.012 A 
HETATM   21  C   UNL     1     -35.841  42.344 -57.380  1.00  0.00     0.012 A 
HETATM   22  C   UNL     1     -38.226  39.972 -58.924  1.00  0.00     0.001 A 
HETATM   23  C   UNL     1     -38.143  38.896 -58.055  1.00  0.00     0.001 A 
HETATM   24  C   UNL     1     -34.996  42.466 -56.286  1.00  0.00     0.002 A 
HETATM   25  C   UNL     1     -34.912  41.435 -55.358  1.00  0.00     0.009 A 
ENDBRANCH   8  16
TORSDOF 1
ENDMDL
MODEL 7
REMARK VINA RESULT:      -6.8     16.041     18.007
REMARK  1 active torsions:
REMARK  status: ('A' for Active; 'I' for Inactive)
REMARK    1  A    between atoms: C_8  and  C_9 
ROOT
HETATM    1  C   UNL     1     -41.321  55.609 -48.946  1.00  0.00     0.073 C 
HETATM    2  C   UNL     1     -40.788  54.728 -50.021  1.00  0.00     0.062 A 
HETATM    3  N   UNL     1     -39.775  53.903 -49.748  1.00  0.00    -0.178 NA
HETATM    4  N   UNL     1     -39.586  53.241 -50.890  1.00  0.00    -0.262 N 
HETATM    5  H   UNL     1     -38.865  52.529 -50.910  1.00  0.00     0.191 HD
HETATM    6  C   UNL     1     -40.396  53.643 -51.921  1.00  0.00     0.134 A 
HETATM    7  C   UNL     1     -41.227  54.616 -51.389  1.00  0.00     0.032 A 
HETATM    8  C   UNL     1     -42.413  55.344 -51.957  1.00  0.00     0.120 C 
HETATM    9  S   UNL     1     -43.041  54.764 -53.550  1.00  0.00    -0.141 SA
HETATM   10  C   UNL     1     -41.504  54.724 -54.515  1.00  0.00     0.136 C 
HETATM   11  C   UNL     1     -41.861  54.973 -55.982  1.00  0.00     0.031 C 
HETATM   12  C   UNL     1     -40.801  53.383 -54.347  1.00  0.00     0.236 C 
HETATM   13  O   UNL     1     -40.601  52.620 -55.298  1.00  0.00    -0.272 OA
HETATM   14  N   UNL     1     -40.264  53.025 -53.144  1.00  0.00    -0.311 N 
HETATM   15  H   UNL     1     -39.705  52.180 -53.215  1.00  0.00     0.170 HD
ENDROOT
BRANCH   8  16
HETATM   16  C   UNL     1     -42.164  56.855 -51.905  1.00  0.00    -0.029 A 
HETATM   17  C   UNL     1     -43.210  57.761 -51.517  1.00  0.00    -0.018 A 
HETATM   18  C   UNL     1     -42.918  59.149 -51.427  1.00  0.00    -0.025 A 
HETATM   19  C   UNL     1     -44.539  57.374 -51.199  1.00  0.00     0.013 A 
HETATM   20  C   UNL     1     -43.901  60.062 -51.011  1.00  0.00     0.012 A 
HETATM   21  C   UNL     1     -41.641  59.623 -51.750  1.00  0.00     0.012 A 
HETATM   22  C   UNL     1     -45.185  59.638 -50.685  1.00  0.00     0.001 A 
HETATM   23  C   UNL     1     -45.506  58.294 -50.786  1.00  0.00     0.001 A 
HETATM   24  C   UNL     1     -40.639  58.753 -52.155  1.00  0.00     0.002 A 
HETATM   25  C   UNL     1     -40.896  57.389 -52.228  1.00  0.00     0.009 A 
ENDBRANCH   8  16
TORSDOF 1
ENDMDL
MODEL 8
REMARK VINA RESULT:      -6.7     18.950     21.023
REMARK  1 active torsions:
REMARK  status: ('A' for Active; 'I' for Inactive)
REMARK    1  A    between atoms: C_8  and  C_9 
ROOT
HETATM    1  C   UNL     1     -43.602  56.627 -54.477  1.00  0.00     0.073 C 
HETATM    2  C   UNL     1     -44.381  57.894 -54.490  1.00  0.00     0.062 A 
HETATM    3  N   UNL     1     -44.691  58.460 -55.658  1.00  0.00    -0.178 NA
HETATM    4  N   UNL     1     -45.416  59.525 -55.315  1.00  0.00    -0.262 N 
HETATM    5  H   UNL     1     -45.786  60.104 -56.060  1.00  0.00     0.191 HD
HETATM    6  C   UNL     1     -45.543  59.715 -53.964  1.00  0.00     0.134 A 
HETATM    7  C   UNL     1     -44.889  58.646 -53.370  1.00  0.00     0.032 A 
HETATM    8  C   UNL     1     -44.786  58.202 -51.939  1.00  0.00     0.120 C 
HETATM    9  S   UNL     1     -45.830  59.061 -50.739  1.00  0.00    -0.141 SA
HETATM   10  C   UNL     1     -45.441  60.788 -51.142  1.00  0.00     0.136 C 
HETATM   11  C   UNL     1     -45.608  61.619 -49.868  1.00  0.00     0.031 C 
HETATM   12  C   UNL     1     -46.356  61.299 -52.247  1.00  0.00     0.236 C 
HETATM   13  O   UNL     1     -47.136  62.243 -52.075  1.00  0.00    -0.272 OA
HETATM   14  N   UNL     1     -46.265  60.798 -53.514  1.00  0.00    -0.311 N 
HETATM   15  H   UNL     1     -46.827  61.327 -54.173  1.00  0.00     0.170 HD
ENDROOT
BRANCH   8  16
HETATM   16  C   UNL     1     -43.312  58.123 -51.529  1.00  0.00    -0.029 A 
HETATM   17  C   UNL     1     -42.754  56.902 -51.014  1.00  0.00    -0.018 A 
HETATM   18  C   UNL     1     -41.369  56.858 -50.701  1.00  0.00    -0.025 A 
HETATM   19  C   UNL     1     -43.489  55.706 -50.798  1.00  0.00     0.013 A 
HETATM   20  C   UNL     1     -40.777  55.672 -50.235  1.00  0.00     0.012 A 
HETATM   21  C   UNL     1     -40.574  58.000 -50.855  1.00  0.00     0.012 A 
HETATM   22  C   UNL     1     -41.528  54.514 -50.060  1.00  0.00     0.001 A 
HETATM   23  C   UNL     1     -42.886  54.533 -50.335  1.00  0.00     0.001 A 
HETATM   24  C   UNL     1     -41.118  59.189 -51.322  1.00  0.00     0.002 A 
HETATM   25  C   UNL     1     -42.466  59.247 -51.657  1.00  0.00     0.009 A 
ENDBRANCH   8  16
TORSDOF 1
ENDMDL
MODEL 9
REMARK VINA RESULT:      -6.5     16.098     17.639
REMARK  1 active torsions:
REMARK  status: ('A' for Active; 'I' for Inactive)
REMARK    1  A    between atoms: C_8  and  C_9 
ROOT
HETATM    1  C   UNL     1     -45.585  58.180 -55.160  1.00  0.00     0.073 C 
HETATM    2  C   UNL     1     -44.662  57.629 -54.131  1.00  0.00     0.062 A 
HETATM    3  N   UNL     1     -44.702  58.117 -52.889  1.00  0.00    -0.178 NA
HETATM    4  N   UNL     1     -43.803  57.385 -52.230  1.00  0.00    -0.262 N 
HETATM    5  H   UNL     1     -43.678  57.569 -51.241  1.00  0.00     0.191 HD
HETATM    6  C   UNL     1     -43.131  56.476 -53.005  1.00  0.00     0.134 A 
HETATM    7  C   UNL     1     -43.679  56.585 -54.274  1.00  0.00     0.032 A 
HETATM    8  C   UNL     1     -43.479  55.781 -55.526  1.00  0.00     0.120 C 
HETATM    9  S   UNL     1     -42.500  54.267 -55.378  1.00  0.00    -0.141 SA
HETATM   10  C   UNL     1     -41.037  54.904 -54.513  1.00  0.00     0.136 C 
HETATM   11  C   UNL     1     -39.839  54.042 -54.914  1.00  0.00     0.031 C 
HETATM   12  C   UNL     1     -41.251  54.870 -53.005  1.00  0.00     0.236 C 
HETATM   13  O   UNL     1     -40.541  54.192 -52.254  1.00  0.00    -0.272 OA
HETATM   14  N   UNL     1     -42.173  55.684 -52.413  1.00  0.00    -0.311 N 
HETATM   15  H   UNL     1     -42.106  55.661 -51.401  1.00  0.00     0.170 HD
ENDROOT
BRANCH   8  16
HETATM   16  C   UNL     1     -43.021  56.702 -56.663  1.00  0.00    -0.029 A 
HETATM   17  C   UNL     1     -43.343  56.399 -58.031  1.00  0.00    -0.018 A 
HETATM   18  C   UNL     1     -42.948  57.311 -59.047  1.00  0.00    -0.025 A 
HETATM   19  C   UNL     1     -44.048  55.243 -58.459  1.00  0.00     0.013 A 
HETATM   20  C   UNL     1     -43.280  57.073 -60.391  1.00  0.00     0.012 A 
HETATM   21  C   UNL     1     -42.224  58.463 -58.718  1.00  0.00     0.012 A 
HETATM   22  C   UNL     1     -43.994  55.940 -60.767  1.00  0.00     0.001 A 
HETATM   23  C   UNL     1     -44.372  55.020 -59.801  1.00  0.00     0.001 A 
HETATM   24  C   UNL     1     -41.885  58.740 -57.401  1.00  0.00     0.002 A 
HETATM   25  C   UNL     1     -42.281  57.874 -56.388  1.00  0.00     0.009 A 
ENDBRANCH   8  16
TORSDOF 1
ENDMDL
MODEL 10
REMARK VINA RESULT:      -6.5     18.085     19.853
REMARK  1 active torsions:
REMARK  status: ('A' for Active; 'I' for Inactive)
REMARK    1  A    between atoms: C_8  and  C_9 
ROOT
HETATM    1  C   UNL     1     -39.800  58.178 -53.178  1.00  0.00     0.073 C 
HETATM    2  C   UNL     1     -40.472  58.939 -52.090  1.00  0.00     0.062 A 
HETATM    3  N   UNL     1     -39.737  59.443 -51.096  1.00  0.00    -0.178 NA
HETATM    4  N   UNL     1     -40.625  60.091 -50.340  1.00  0.00    -0.262 N 
HETATM    5  H   UNL     1     -40.281  60.581 -49.523  1.00  0.00     0.191 HD
HETATM    6  C   UNL     1     -41.923  59.979 -50.766  1.00  0.00     0.134 A 
HETATM    7  C   UNL     1     -41.873  59.240 -51.937  1.00  0.00     0.032 A 
HETATM    8  C   UNL     1     -42.925  58.892 -52.952  1.00  0.00     0.120 C 
HETATM    9  S   UNL     1     -44.531  59.705 -52.775  1.00  0.00    -0.141 SA
HETATM   10  C   UNL     1     -44.873  59.381 -51.022  1.00  0.00     0.136 C 
HETATM   11  C   UNL     1     -46.391  59.318 -50.842  1.00  0.00     0.031 C 
HETATM   12  C   UNL     1     -44.267  60.471 -50.148  1.00  0.00     0.236 C 
HETATM   13  O   UNL     1     -44.959  61.202 -49.431  1.00  0.00    -0.272 OA
HETATM   14  N   UNL     1     -42.912  60.604 -50.041  1.00  0.00    -0.311 N 
HETATM   15  H   UNL     1     -42.653  61.269 -49.319  1.00  0.00     0.170 HD
ENDROOT
BRANCH   8  16
HETATM   16  C   UNL     1     -43.018  57.369 -53.096  1.00  0.00    -0.029 A 
HETATM   17  C   UNL     1     -42.980  56.748 -54.393  1.00  0.00    -0.018 A 
HETATM   18  C   UNL     1     -43.011  55.330 -54.476  1.00  0.00    -0.025 A 
HETATM   19  C   UNL     1     -42.902  57.452 -55.624  1.00  0.00     0.013 A 
HETATM   20  C   UNL     1     -42.933  54.684 -55.721  1.00  0.00     0.012 A 
HETATM   21  C   UNL     1     -43.118  54.557 -53.314  1.00  0.00     0.012 A 
HETATM   22  C   UNL     1     -42.833  55.410 -56.904  1.00  0.00     0.001 A 
HETATM   23  C   UNL     1     -42.824  56.795 -56.855  1.00  0.00     0.001 A 
HETATM   24  C   UNL     1     -43.186  55.157 -52.063  1.00  0.00     0.002 A 
HETATM   25  C   UNL     1     -43.134  56.542 -51.957  1.00  0.00     0.009 A 
ENDBRANCH   8  16
TORSDOF 1
ENDMDL
