MODEL 1
REMARK VINA RESULT:      -8.9      0.000      0.000
REMARK  6 active torsions:
REMARK  status: ('A' for Active; 'I' for Inactive)
REMARK    1  A    between atoms: C_4  and  C_5 
REMARK    2  A    between atoms: C_5  and  O_6 
REMARK    3  A    between atoms: O_6  and  C_7 
REMARK    4  A    between atoms: C_10  and  C_11 
REMARK    5  A    between atoms: C_17  and  C_18 
REMARK    6  A    between atoms: C_27  and  N_28 
ROOT
HETATM    1  C   UNL     1     -43.808  56.976 -51.239  1.00  0.00     0.072 A 
HETATM    2  N   UNL     1     -45.021  57.207 -50.626  1.00  0.00    -0.274 N 
HETATM    3  H   UNL     1     -45.412  56.720 -49.826  1.00  0.00     0.189 HD
HETATM    4  N   UNL     1     -45.740  58.203 -51.185  1.00  0.00    -0.148 NA
HETATM    5  C   UNL     1     -44.948  58.608 -52.168  1.00  0.00     0.199 A 
HETATM    6  C   UNL     1     -43.750  57.898 -52.271  1.00  0.00     0.040 A 
HETATM    7  C   UNL     1     -42.770  58.215 -53.344  1.00  0.00     0.106 A 
HETATM    8  C   UNL     1     -43.253  59.381 -54.199  1.00  0.00     0.081 A 
HETATM    9  C   UNL     1     -42.358  59.844 -55.208  1.00  0.00     0.100 C 
HETATM   10  N   UNL     1     -41.623  60.211 -56.028  1.00  0.00    -0.191 NA
HETATM   11  C   UNL     1     -44.447  59.999 -53.998  1.00  0.00     0.140 A 
HETATM   12  O   UNL     1     -45.332  59.605 -52.984  1.00  0.00    -0.277 OA
ENDROOT
BRANCH   7  13
HETATM   13  C   UNL     1     -42.568  56.932 -54.140  1.00  0.00    -0.041 A 
HETATM   14  C   UNL     1     -43.610  56.296 -54.829  1.00  0.00     0.027 A 
HETATM   15  C   UNL     1     -43.336  55.132 -55.532  1.00  0.00     0.116 A 
HETATM   16  N   UNL     1     -42.112  54.569 -55.609  1.00  0.00    -0.273 NA
HETATM   17  C   UNL     1     -41.116  55.198 -54.952  1.00  0.00     0.116 A 
HETATM   18  C   UNL     1     -41.289  56.363 -54.221  1.00  0.00     0.027 A 
ENDBRANCH   7  13
BRANCH  11  19
HETATM   19  N   UNL     1     -44.924  61.060 -54.736  1.00  0.00    -0.282 NA
HETATM   20  H   UNL     1     -44.947  60.928 -55.744  1.00  0.00     0.126 HD
HETATM   21  H   UNL     1     -45.797  61.425 -54.359  1.00  0.00     0.126 HD
ENDBRANCH  11  19
BRANCH   1  22
HETATM   22  C   UNL     1     -42.898  55.914 -50.841  1.00  0.00    -0.007 A 
HETATM   23  C   UNL     1     -43.188  54.581 -51.157  1.00  0.00     0.016 A 
HETATM   24  C   UNL     1     -42.266  53.573 -50.868  1.00  0.00     0.037 A 
HETATM   25  C   UNL     1     -41.044  53.893 -50.283  1.00  0.00     0.069 A 
HETATM   26  C   UNL     1     -40.769  55.207 -49.909  1.00  0.00     0.037 A 
HETATM   27  C   UNL     1     -41.693  56.217 -50.194  1.00  0.00     0.016 A 
BRANCH  25  28
HETATM   28  O   UNL     1     -40.177  52.857 -50.085  1.00  0.00    -0.347 OA
BRANCH  28  29
HETATM   29  C   UNL     1     -39.120  52.805 -51.052  1.00  0.00     0.214 C 
BRANCH  29  30
HETATM   30  C   UNL     1     -39.447  51.769 -52.102  1.00  0.00    -0.034 A 
HETATM   31  C   UNL     1     -39.357  50.402 -51.800  1.00  0.00     0.009 A 
HETATM   32  C   UNL     1     -39.672  49.440 -52.762  1.00  0.00     0.001 A 
HETATM   33  C   UNL     1     -40.086  49.833 -54.033  1.00  0.00     0.000 A 
HETATM   34  C   UNL     1     -40.188  51.187 -54.343  1.00  0.00     0.001 A 
HETATM   35  C   UNL     1     -39.875  52.151 -53.382  1.00  0.00     0.009 A 
ENDBRANCH  29  30
ENDBRANCH  28  29
ENDBRANCH  25  28
ENDBRANCH   1  22
TORSDOF 6
ENDMDL
MODEL 2
REMARK VINA RESULT:      -8.7      1.743      4.112
REMARK  6 active torsions:
REMARK  status: ('A' for Active; 'I' for Inactive)
REMARK    1  A    between atoms: C_4  and  C_5 
REMARK    2  A    between atoms: C_5  and  O_6 
REMARK    3  A    between atoms: O_6  and  C_7 
REMARK    4  A    between atoms: C_10  and  C_11 
REMARK    5  A    between atoms: C_17  and  C_18 
REMARK    6  A    between atoms: C_27  and  N_28 
ROOT
HETATM    1  C   UNL     1     -42.621  58.000 -54.796  1.00  0.00     0.072 A 
HETATM    2  N   UNL     1     -42.179  58.944 -55.699  1.00  0.00    -0.274 N 
HETATM    3  H   UNL     1     -41.617  58.789 -56.530  1.00  0.00     0.189 HD
HETATM    4  N   UNL     1     -42.558  60.205 -55.408  1.00  0.00    -0.148 NA
HETATM    5  C   UNL     1     -43.263  60.040 -54.296  1.00  0.00     0.199 A 
HETATM    6  C   UNL     1     -43.338  58.718 -53.854  1.00  0.00     0.040 A 
HETATM    7  C   UNL     1     -44.068  58.376 -52.604  1.00  0.00     0.106 A 
HETATM    8  C   UNL     1     -44.698  59.617 -51.982  1.00  0.00     0.081 A 
HETATM    9  C   UNL     1     -45.506  59.409 -50.826  1.00  0.00     0.100 C 
HETATM   10  N   UNL     1     -46.160  59.229 -49.884  1.00  0.00    -0.191 NA
HETATM   11  C   UNL     1     -44.557  60.861 -52.511  1.00  0.00     0.140 A 
HETATM   12  O   UNL     1     -43.812  61.099 -53.675  1.00  0.00    -0.277 OA
ENDROOT
BRANCH   7  13
HETATM   13  C   UNL     1     -43.063  57.691 -51.688  1.00  0.00    -0.041 A 
HETATM   14  C   UNL     1     -43.217  56.370 -51.246  1.00  0.00     0.027 A 
HETATM   15  C   UNL     1     -42.249  55.824 -50.415  1.00  0.00     0.116 A 
HETATM   16  N   UNL     1     -41.146  56.485 -50.008  1.00  0.00    -0.273 NA
HETATM   17  C   UNL     1     -41.004  57.751 -50.451  1.00  0.00     0.116 A 
HETATM   18  C   UNL     1     -41.915  58.386 -51.280  1.00  0.00     0.027 A 
ENDBRANCH   7  13
BRANCH  11  19
HETATM   19  N   UNL     1     -45.112  62.011 -51.993  1.00  0.00    -0.282 NA
HETATM   20  H   UNL     1     -45.106  62.091 -50.979  1.00  0.00     0.126 HD
HETATM   21  H   UNL     1     -44.769  62.846 -52.464  1.00  0.00     0.126 HD
ENDBRANCH  11  19
BRANCH   1  22
HETATM   22  C   UNL     1     -42.282  56.588 -54.881  1.00  0.00    -0.007 A 
HETATM   23  C   UNL     1     -41.041  56.132 -54.421  1.00  0.00     0.016 A 
HETATM   24  C   UNL     1     -40.755  54.766 -54.405  1.00  0.00     0.037 A 
HETATM   25  C   UNL     1     -41.713  53.849 -54.829  1.00  0.00     0.069 A 
HETATM   26  C   UNL     1     -42.929  54.293 -55.347  1.00  0.00     0.037 A 
HETATM   27  C   UNL     1     -43.214  55.662 -55.367  1.00  0.00     0.016 A 
BRANCH  25  28
HETATM   28  O   UNL     1     -41.375  52.529 -54.730  1.00  0.00    -0.347 OA
BRANCH  28  29
HETATM   29  C   UNL     1     -39.988  52.316 -54.440  1.00  0.00     0.214 C 
BRANCH  29  30
HETATM   30  C   UNL     1     -39.857  51.439 -53.216  1.00  0.00    -0.034 A 
HETATM   31  C   UNL     1     -39.936  52.001 -51.932  1.00  0.00     0.009 A 
HETATM   32  C   UNL     1     -39.831  51.195 -50.797  1.00  0.00     0.001 A 
HETATM   33  C   UNL     1     -39.651  49.820 -50.931  1.00  0.00     0.000 A 
HETATM   34  C   UNL     1     -39.580  49.249 -52.200  1.00  0.00     0.001 A 
HETATM   35  C   UNL     1     -39.687  50.053 -53.337  1.00  0.00     0.009 A 
ENDBRANCH  29  30
ENDBRANCH  28  29
ENDBRANCH  25  28
ENDBRANCH   1  22
TORSDOF 6
ENDMDL
MODEL 3
REMARK VINA RESULT:      -8.6      3.444      5.459
REMARK  6 active torsions:
REMARK  status: ('A' for Active; 'I' for Inactive)
REMARK    1  A    between atoms: C_4  and  C_5 
REMARK    2  A    between atoms: C_5  and  O_6 
REMARK    3  A    between atoms: O_6  and  C_7 
REMARK    4  A    between atoms: C_10  and  C_11 
REMARK    5  A    between atoms: C_17  and  C_18 
REMARK    6  A    between atoms: C_27  and  N_28 
ROOT
HETATM    1  C   UNL     1     -43.006  56.325 -58.016  1.00  0.00     0.072 A 
HETATM    2  N   UNL     1     -42.157  56.108 -59.080  1.00  0.00    -0.274 N 
HETATM    3  H   UNL     1     -41.317  55.539 -59.094  1.00  0.00     0.189 HD
HETATM    4  N   UNL     1     -42.519  56.745 -60.213  1.00  0.00    -0.148 NA
HETATM    5  C   UNL     1     -43.630  57.369 -59.845  1.00  0.00     0.199 A 
HETATM    6  C   UNL     1     -43.988  57.168 -58.510  1.00  0.00     0.040 A 
HETATM    7  C   UNL     1     -45.193  57.827 -57.940  1.00  0.00     0.106 A 
HETATM    8  C   UNL     1     -45.921  58.646 -59.000  1.00  0.00     0.081 A 
HETATM    9  C   UNL     1     -47.148  59.255 -58.602  1.00  0.00     0.100 C 
HETATM   10  N   UNL     1     -48.144  59.747 -58.267  1.00  0.00    -0.191 NA
HETATM   11  C   UNL     1     -45.474  58.764 -60.278  1.00  0.00     0.140 A 
HETATM   12  O   UNL     1     -44.299  58.140 -60.721  1.00  0.00    -0.277 OA
ENDROOT
BRANCH   7  13
HETATM   13  C   UNL     1     -44.714  58.662 -56.761  1.00  0.00    -0.041 A 
HETATM   14  C   UNL     1     -43.820  59.733 -56.905  1.00  0.00     0.027 A 
HETATM   15  C   UNL     1     -43.439  60.443 -55.776  1.00  0.00     0.116 A 
HETATM   16  N   UNL     1     -43.887  60.178 -54.532  1.00  0.00    -0.273 NA
HETATM   17  C   UNL     1     -44.757  59.154 -54.409  1.00  0.00     0.116 A 
HETATM   18  C   UNL     1     -45.196  58.383 -55.474  1.00  0.00     0.027 A 
ENDBRANCH   7  13
BRANCH  11  19
HETATM   19  N   UNL     1     -46.098  59.485 -61.273  1.00  0.00    -0.282 NA
HETATM   20  H   UNL     1     -46.861  60.087 -60.975  1.00  0.00     0.126 HD
HETATM   21  H   UNL     1     -45.430  59.954 -61.882  1.00  0.00     0.126 HD
ENDBRANCH  11  19
BRANCH   1  22
HETATM   22  C   UNL     1     -42.778  55.786 -56.685  1.00  0.00    -0.007 A 
HETATM   23  C   UNL     1     -43.295  54.534 -56.332  1.00  0.00     0.016 A 
HETATM   24  C   UNL     1     -42.990  53.970 -55.093  1.00  0.00     0.037 A 
HETATM   25  C   UNL     1     -42.151  54.643 -54.208  1.00  0.00     0.069 A 
HETATM   26  C   UNL     1     -41.680  55.917 -54.522  1.00  0.00     0.037 A 
HETATM   27  C   UNL     1     -41.988  56.484 -55.762  1.00  0.00     0.016 A 
BRANCH  25  28
HETATM   28  O   UNL     1     -41.858  53.998 -53.041  1.00  0.00    -0.347 OA
BRANCH  28  29
HETATM   29  C   UNL     1     -40.455  53.778 -52.848  1.00  0.00     0.214 C 
BRANCH  29  30
HETATM   30  C   UNL     1     -40.165  52.296 -52.886  1.00  0.00    -0.034 A 
HETATM   31  C   UNL     1     -40.259  51.588 -54.094  1.00  0.00     0.009 A 
HETATM   32  C   UNL     1     -39.979  50.221 -54.139  1.00  0.00     0.001 A 
HETATM   33  C   UNL     1     -39.596  49.548 -52.981  1.00  0.00     0.000 A 
HETATM   34  C   UNL     1     -39.491  50.241 -51.777  1.00  0.00     0.001 A 
HETATM   35  C   UNL     1     -39.769  51.609 -51.730  1.00  0.00     0.009 A 
ENDBRANCH  29  30
ENDBRANCH  28  29
ENDBRANCH  25  28
ENDBRANCH   1  22
TORSDOF 6
ENDMDL
MODEL 4
REMARK VINA RESULT:      -8.1      1.987      4.418
REMARK  6 active torsions:
REMARK  status: ('A' for Active; 'I' for Inactive)
REMARK    1  A    between atoms: C_4  and  C_5 
REMARK    2  A    between atoms: C_5  and  O_6 
REMARK    3  A    between atoms: O_6  and  C_7 
REMARK    4  A    between atoms: C_10  and  C_11 
REMARK    5  A    between atoms: C_17  and  C_18 
REMARK    6  A    between atoms: C_27  and  N_28 
ROOT
HETATM    1  C   UNL     1     -43.145  56.511 -56.061  1.00  0.00     0.072 A 
HETATM    2  N   UNL     1     -43.294  56.714 -57.417  1.00  0.00    -0.274 N 
HETATM    3  H   UNL     1     -42.896  56.164 -58.172  1.00  0.00     0.189 HD
HETATM    4  N   UNL     1     -44.064  57.775 -57.733  1.00  0.00    -0.148 NA
HETATM    5  C   UNL     1     -44.410  58.241 -56.540  1.00  0.00     0.199 A 
HETATM    6  C   UNL     1     -43.877  57.524 -55.467  1.00  0.00     0.040 A 
HETATM    7  C   UNL     1     -44.151  57.942 -54.065  1.00  0.00     0.106 A 
HETATM    8  C   UNL     1     -45.072  59.156 -54.027  1.00  0.00     0.081 A 
HETATM    9  C   UNL     1     -45.485  59.599 -52.736  1.00  0.00     0.100 C 
HETATM   10  N   UNL     1     -45.814  59.953 -51.681  1.00  0.00    -0.191 NA
HETATM   11  C   UNL     1     -45.532  59.770 -55.148  1.00  0.00     0.140 A 
HETATM   12  O   UNL     1     -45.189  59.332 -56.435  1.00  0.00    -0.277 OA
ENDROOT
BRANCH   7  13
HETATM   13  C   UNL     1     -42.796  58.197 -53.417  1.00  0.00    -0.041 A 
HETATM   14  C   UNL     1     -41.882  59.135 -53.916  1.00  0.00     0.027 A 
HETATM   15  C   UNL     1     -40.671  59.305 -53.260  1.00  0.00     0.116 A 
HETATM   16  N   UNL     1     -40.315  58.627 -52.150  1.00  0.00    -0.273 NA
HETATM   17  C   UNL     1     -41.209  57.737 -51.673  1.00  0.00     0.116 A 
HETATM   18  C   UNL     1     -42.442  57.493 -52.257  1.00  0.00     0.027 A 
ENDBRANCH   7  13
BRANCH  11  19
HETATM   19  N   UNL     1     -46.372  60.862 -55.166  1.00  0.00    -0.282 NA
HETATM   20  H   UNL     1     -46.130  61.621 -54.534  1.00  0.00     0.126 HD
HETATM   21  H   UNL     1     -46.568  61.177 -56.115  1.00  0.00     0.126 HD
ENDBRANCH  11  19
BRANCH   1  22
HETATM   22  C   UNL     1     -42.311  55.462 -55.495  1.00  0.00    -0.007 A 
HETATM   23  C   UNL     1     -40.975  55.724 -55.166  1.00  0.00     0.016 A 
HETATM   24  C   UNL     1     -40.205  54.752 -54.527  1.00  0.00     0.037 A 
HETATM   25  C   UNL     1     -40.769  53.523 -54.194  1.00  0.00     0.069 A 
HETATM   26  C   UNL     1     -42.079  53.228 -54.570  1.00  0.00     0.037 A 
HETATM   27  C   UNL     1     -42.850  54.200 -55.214  1.00  0.00     0.016 A 
BRANCH  25  28
HETATM   28  O   UNL     1     -39.964  52.648 -53.520  1.00  0.00    -0.347 OA
BRANCH  28  29
HETATM   29  C   UNL     1     -40.600  52.047 -52.385  1.00  0.00     0.214 C 
BRANCH  29  30
HETATM   30  C   UNL     1     -40.745  53.074 -51.285  1.00  0.00    -0.034 A 
HETATM   31  C   UNL     1     -39.618  53.511 -50.573  1.00  0.00     0.009 A 
HETATM   32  C   UNL     1     -39.743  54.469 -49.566  1.00  0.00     0.001 A 
HETATM   33  C   UNL     1     -40.993  55.005 -49.263  1.00  0.00     0.000 A 
HETATM   34  C   UNL     1     -42.118  54.587 -49.970  1.00  0.00     0.001 A 
HETATM   35  C   UNL     1     -41.995  53.629 -50.979  1.00  0.00     0.009 A 
ENDBRANCH  29  30
ENDBRANCH  28  29
ENDBRANCH  25  28
ENDBRANCH   1  22
TORSDOF 6
ENDMDL
MODEL 5
REMARK VINA RESULT:      -7.9      1.759      2.484
REMARK  6 active torsions:
REMARK  status: ('A' for Active; 'I' for Inactive)
REMARK    1  A    between atoms: C_4  and  C_5 
REMARK    2  A    between atoms: C_5  and  O_6 
REMARK    3  A    between atoms: O_6  and  C_7 
REMARK    4  A    between atoms: C_10  and  C_11 
REMARK    5  A    between atoms: C_17  and  C_18 
REMARK    6  A    between atoms: C_27  and  N_28 
ROOT
HETATM    1  C   UNL     1     -44.328  58.154 -51.329  1.00  0.00     0.072 A 
HETATM    2  N   UNL     1     -45.371  58.038 -50.435  1.00  0.00    -0.274 N 
HETATM    3  H   UNL     1     -45.538  57.285 -49.776  1.00  0.00     0.189 HD
HETATM    4  N   UNL     1     -46.247  59.063 -50.474  1.00  0.00    -0.148 NA
HETATM    5  C   UNL     1     -45.729  59.843 -51.414  1.00  0.00     0.199 A 
HETATM    6  C   UNL     1     -44.558  59.349 -51.991  1.00  0.00     0.040 A 
HETATM    7  C   UNL     1     -43.875  60.096 -53.081  1.00  0.00     0.106 A 
HETATM    8  C   UNL     1     -44.600  61.402 -53.386  1.00  0.00     0.081 A 
HETATM    9  C   UNL     1     -43.991  62.257 -54.352  1.00  0.00     0.100 C 
HETATM   10  N   UNL     1     -43.489  62.944 -55.140  1.00  0.00    -0.191 NA
HETATM   11  C   UNL     1     -45.740  61.780 -52.749  1.00  0.00     0.140 A 
HETATM   12  O   UNL     1     -46.341  60.990 -51.759  1.00  0.00    -0.277 OA
ENDROOT
BRANCH   7  13
HETATM   13  C   UNL     1     -43.807  59.155 -54.276  1.00  0.00    -0.041 A 
HETATM   14  C   UNL     1     -42.599  58.646 -54.772  1.00  0.00     0.027 A 
HETATM   15  C   UNL     1     -42.631  57.790 -55.864  1.00  0.00     0.116 A 
HETATM   16  N   UNL     1     -43.765  57.399 -56.481  1.00  0.00    -0.273 NA
HETATM   17  C   UNL     1     -44.921  57.885 -55.985  1.00  0.00     0.116 A 
HETATM   18  C   UNL     1     -44.994  58.746 -54.902  1.00  0.00     0.027 A 
ENDBRANCH   7  13
BRANCH  11  19
HETATM   19  N   UNL     1     -46.427  62.951 -52.982  1.00  0.00    -0.282 NA
HETATM   20  H   UNL     1     -46.757  63.093 -53.934  1.00  0.00     0.126 HD
HETATM   21  H   UNL     1     -47.145  63.119 -52.280  1.00  0.00     0.126 HD
ENDBRANCH  11  19
BRANCH   1  22
HETATM   22  C   UNL     1     -43.300  57.139 -51.500  1.00  0.00    -0.007 A 
HETATM   23  C   UNL     1     -43.557  55.999 -52.271  1.00  0.00     0.016 A 
HETATM   24  C   UNL     1     -42.540  55.076 -52.522  1.00  0.00     0.037 A 
HETATM   25  C   UNL     1     -41.260  55.297 -52.021  1.00  0.00     0.069 A 
HETATM   26  C   UNL     1     -41.007  56.395 -51.202  1.00  0.00     0.037 A 
HETATM   27  C   UNL     1     -42.026  57.318 -50.947  1.00  0.00     0.016 A 
BRANCH  25  28
HETATM   28  O   UNL     1     -40.310  54.375 -52.359  1.00  0.00    -0.347 OA
BRANCH  28  29
HETATM   29  C   UNL     1     -40.649  53.605 -53.519  1.00  0.00     0.214 C 
BRANCH  29  30
HETATM   30  C   UNL     1     -40.269  52.159 -53.295  1.00  0.00    -0.034 A 
HETATM   31  C   UNL     1     -40.292  51.248 -54.361  1.00  0.00     0.009 A 
HETATM   32  C   UNL     1     -39.928  49.915 -54.165  1.00  0.00     0.001 A 
HETATM   33  C   UNL     1     -39.530  49.479 -52.902  1.00  0.00     0.000 A 
HETATM   34  C   UNL     1     -39.494  50.376 -51.837  1.00  0.00     0.001 A 
HETATM   35  C   UNL     1     -39.856  51.710 -52.032  1.00  0.00     0.009 A 
ENDBRANCH  29  30
ENDBRANCH  28  29
ENDBRANCH  25  28
ENDBRANCH   1  22
TORSDOF 6
ENDMDL
MODEL 6
REMARK VINA RESULT:      -7.9      2.323      3.272
REMARK  6 active torsions:
REMARK  status: ('A' for Active; 'I' for Inactive)
REMARK    1  A    between atoms: C_4  and  C_5 
REMARK    2  A    between atoms: C_5  and  O_6 
REMARK    3  A    between atoms: O_6  and  C_7 
REMARK    4  A    between atoms: C_10  and  C_11 
REMARK    5  A    between atoms: C_17  and  C_18 
REMARK    6  A    between atoms: C_27  and  N_28 
ROOT
HETATM    1  C   UNL     1     -43.131  58.342 -53.802  1.00  0.00     0.072 A 
HETATM    2  N   UNL     1     -43.830  58.861 -52.732  1.00  0.00    -0.274 N 
HETATM    3  H   UNL     1     -44.117  58.375 -51.888  1.00  0.00     0.189 HD
HETATM    4  N   UNL     1     -44.148  60.165 -52.862  1.00  0.00    -0.148 NA
HETATM    5  C   UNL     1     -43.626  60.469 -54.043  1.00  0.00     0.199 A 
HETATM    6  C   UNL     1     -42.995  59.401 -54.684  1.00  0.00     0.040 A 
HETATM    7  C   UNL     1     -42.386  59.577 -56.030  1.00  0.00     0.106 A 
HETATM    8  C   UNL     1     -42.528  61.017 -56.509  1.00  0.00     0.081 A 
HETATM    9  C   UNL     1     -41.901  61.339 -57.750  1.00  0.00     0.100 C 
HETATM   10  N   UNL     1     -41.391  61.589 -58.761  1.00  0.00    -0.191 NA
HETATM   11  C   UNL     1     -43.165  61.977 -55.789  1.00  0.00     0.140 A 
HETATM   12  O   UNL     1     -43.750  61.711 -54.542  1.00  0.00    -0.277 OA
ENDROOT
BRANCH   7  13
HETATM   13  C   UNL     1     -43.066  58.571 -56.948  1.00  0.00    -0.041 A 
HETATM   14  C   UNL     1     -44.419  58.662 -57.303  1.00  0.00     0.027 A 
HETATM   15  C   UNL     1     -44.956  57.702 -58.149  1.00  0.00     0.116 A 
HETATM   16  N   UNL     1     -44.249  56.678 -58.670  1.00  0.00    -0.273 NA
HETATM   17  C   UNL     1     -42.946  56.609 -58.331  1.00  0.00     0.116 A 
HETATM   18  C   UNL     1     -42.318  57.517 -57.492  1.00  0.00     0.027 A 
ENDBRANCH   7  13
BRANCH  11  19
HETATM   19  N   UNL     1     -43.312  63.292 -56.173  1.00  0.00    -0.282 NA
HETATM   20  H   UNL     1     -42.565  63.923 -55.897  1.00  0.00     0.126 HD
HETATM   21  H   UNL     1     -43.566  63.376 -57.156  1.00  0.00     0.126 HD
ENDBRANCH  11  19
BRANCH   1  22
HETATM   22  C   UNL     1     -42.736  56.946 -53.902  1.00  0.00    -0.007 A 
HETATM   23  C   UNL     1     -43.682  55.968 -54.231  1.00  0.00     0.016 A 
HETATM   24  C   UNL     1     -43.286  54.645 -54.429  1.00  0.00     0.037 A 
HETATM   25  C   UNL     1     -41.942  54.296 -54.320  1.00  0.00     0.069 A 
HETATM   26  C   UNL     1     -41.000  55.248 -53.934  1.00  0.00     0.037 A 
HETATM   27  C   UNL     1     -41.397  56.572 -53.731  1.00  0.00     0.016 A 
BRANCH  25  28
HETATM   28  O   UNL     1     -41.631  52.992 -54.585  1.00  0.00    -0.347 OA
BRANCH  28  29
HETATM   29  C   UNL     1     -40.227  52.714 -54.503  1.00  0.00     0.214 C 
BRANCH  29  30
HETATM   30  C   UNL     1     -39.975  51.707 -53.405  1.00  0.00    -0.034 A 
HETATM   31  C   UNL     1     -39.945  52.116 -52.063  1.00  0.00     0.009 A 
HETATM   32  C   UNL     1     -39.727  51.189 -51.043  1.00  0.00     0.001 A 
HETATM   33  C   UNL     1     -39.542  49.843 -51.351  1.00  0.00     0.000 A 
HETATM   34  C   UNL     1     -39.578  49.422 -52.678  1.00  0.00     0.001 A 
HETATM   35  C   UNL     1     -39.798  50.348 -53.701  1.00  0.00     0.009 A 
ENDBRANCH  29  30
ENDBRANCH  28  29
ENDBRANCH  25  28
ENDBRANCH   1  22
TORSDOF 6
ENDMDL
MODEL 7
REMARK VINA RESULT:      -7.9      2.358      4.330
REMARK  6 active torsions:
REMARK  status: ('A' for Active; 'I' for Inactive)
REMARK    1  A    between atoms: C_4  and  C_5 
REMARK    2  A    between atoms: C_5  and  O_6 
REMARK    3  A    between atoms: O_6  and  C_7 
REMARK    4  A    between atoms: C_10  and  C_11 
REMARK    5  A    between atoms: C_17  and  C_18 
REMARK    6  A    between atoms: C_27  and  N_28 
ROOT
HETATM    1  C   UNL     1     -42.958  56.091 -56.560  1.00  0.00     0.072 A 
HETATM    2  N   UNL     1     -42.548  55.668 -57.807  1.00  0.00    -0.274 N 
HETATM    3  H   UNL     1     -41.990  54.850 -58.029  1.00  0.00     0.189 HD
HETATM    4  N   UNL     1     -42.955  56.461 -58.819  1.00  0.00    -0.148 NA
HETATM    5  C   UNL     1     -43.646  57.399 -58.184  1.00  0.00     0.199 A 
HETATM    6  C   UNL     1     -43.684  57.246 -56.797  1.00  0.00     0.040 A 
HETATM    7  C   UNL     1     -44.395  58.235 -55.944  1.00  0.00     0.106 A 
HETATM    8  C   UNL     1     -45.049  59.319 -56.793  1.00  0.00     0.081 A 
HETATM    9  C   UNL     1     -45.842  60.280 -56.097  1.00  0.00     0.100 C 
HETATM   10  N   UNL     1     -46.482  61.057 -55.522  1.00  0.00    -0.191 NA
HETATM   11  C   UNL     1     -44.944  59.361 -58.147  1.00  0.00     0.140 A 
HETATM   12  O   UNL     1     -44.215  58.406 -58.871  1.00  0.00    -0.277 OA
ENDROOT
BRANCH   7  13
HETATM   13  C   UNL     1     -43.364  58.782 -54.965  1.00  0.00    -0.041 A 
HETATM   14  C   UNL     1     -42.223  59.484 -55.379  1.00  0.00     0.027 A 
HETATM   15  C   UNL     1     -41.338  59.950 -54.418  1.00  0.00     0.116 A 
HETATM   16  N   UNL     1     -41.511  59.783 -53.091  1.00  0.00    -0.273 NA
HETATM   17  C   UNL     1     -42.619  59.118 -52.705  1.00  0.00     0.116 A 
HETATM   18  C   UNL     1     -43.561  58.611 -53.587  1.00  0.00     0.027 A 
ENDBRANCH   7  13
BRANCH  11  19
HETATM   19  N   UNL     1     -45.523  60.312 -58.959  1.00  0.00    -0.282 NA
HETATM   20  H   UNL     1     -45.835  61.162 -58.496  1.00  0.00     0.126 HD
HETATM   21  H   UNL     1     -44.969  60.489 -59.794  1.00  0.00     0.126 HD
ENDBRANCH  11  19
BRANCH   1  22
HETATM   22  C   UNL     1     -42.585  55.422 -55.324  1.00  0.00    -0.007 A 
HETATM   23  C   UNL     1     -41.291  55.566 -54.807  1.00  0.00     0.016 A 
HETATM   24  C   UNL     1     -40.963  55.012 -53.569  1.00  0.00     0.037 A 
HETATM   25  C   UNL     1     -41.928  54.330 -52.832  1.00  0.00     0.069 A 
HETATM   26  C   UNL     1     -43.201  54.127 -53.363  1.00  0.00     0.037 A 
HETATM   27  C   UNL     1     -43.530  54.679 -54.604  1.00  0.00     0.016 A 
BRANCH  25  28
HETATM   28  O   UNL     1     -41.541  53.867 -51.607  1.00  0.00    -0.347 OA
BRANCH  28  29
HETATM   29  C   UNL     1     -40.149  53.534 -51.537  1.00  0.00     0.214 C 
BRANCH  29  30
HETATM   30  C   UNL     1     -39.964  52.065 -51.839  1.00  0.00    -0.034 A 
HETATM   31  C   UNL     1     -39.836  51.627 -53.166  1.00  0.00     0.009 A 
HETATM   32  C   UNL     1     -39.651  50.273 -53.452  1.00  0.00     0.001 A 
HETATM   33  C   UNL     1     -39.586  49.344 -52.416  1.00  0.00     0.000 A 
HETATM   34  C   UNL     1     -39.702  49.767 -51.094  1.00  0.00     0.001 A 
HETATM   35  C   UNL     1     -39.886  51.121 -50.806  1.00  0.00     0.009 A 
ENDBRANCH  29  30
ENDBRANCH  28  29
ENDBRANCH  25  28
ENDBRANCH   1  22
TORSDOF 6
ENDMDL
MODEL 8
REMARK VINA RESULT:      -7.6      3.136      4.614
REMARK  6 active torsions:
REMARK  status: ('A' for Active; 'I' for Inactive)
REMARK    1  A    between atoms: C_4  and  C_5 
REMARK    2  A    between atoms: C_5  and  O_6 
REMARK    3  A    between atoms: O_6  and  C_7 
REMARK    4  A    between atoms: C_10  and  C_11 
REMARK    5  A    between atoms: C_17  and  C_18 
REMARK    6  A    between atoms: C_27  and  N_28 
ROOT
HETATM    1  C   UNL     1     -43.707  58.583 -55.762  1.00  0.00     0.072 A 
HETATM    2  N   UNL     1     -44.750  58.931 -54.929  1.00  0.00    -0.274 N 
HETATM    3  H   UNL     1     -45.106  58.410 -54.135  1.00  0.00     0.189 HD
HETATM    4  N   UNL     1     -45.337  60.105 -55.242  1.00  0.00    -0.148 NA
HETATM    5  C   UNL     1     -44.633  60.503 -56.294  1.00  0.00     0.199 A 
HETATM    6  C   UNL     1     -43.624  59.618 -56.679  1.00  0.00     0.040 A 
HETATM    7  C   UNL     1     -42.768  59.910 -57.860  1.00  0.00     0.106 A 
HETATM    8  C   UNL     1     -43.137  61.252 -58.483  1.00  0.00     0.081 A 
HETATM    9  C   UNL     1     -42.326  61.692 -59.571  1.00  0.00     0.100 C 
HETATM   10  N   UNL     1     -41.662  62.039 -60.457  1.00  0.00    -0.191 NA
HETATM   11  C   UNL     1     -44.146  62.032 -58.014  1.00  0.00     0.140 A 
HETATM   12  O   UNL     1     -44.933  61.657 -56.915  1.00  0.00    -0.277 OA
ENDROOT
BRANCH   7  13
HETATM   13  C   UNL     1     -42.937  58.739 -58.817  1.00  0.00    -0.041 A 
HETATM   14  C   UNL     1     -41.869  57.919 -59.208  1.00  0.00     0.027 A 
HETATM   15  C   UNL     1     -42.114  56.870 -60.082  1.00  0.00     0.116 A 
HETATM   16  N   UNL     1     -43.332  56.573 -60.579  1.00  0.00    -0.273 NA
HETATM   17  C   UNL     1     -44.353  57.361 -60.186  1.00  0.00     0.116 A 
HETATM   18  C   UNL     1     -44.210  58.434 -59.319  1.00  0.00     0.027 A 
ENDBRANCH   7  13
BRANCH  11  19
HETATM   19  N   UNL     1     -44.512  63.254 -58.535  1.00  0.00    -0.282 NA
HETATM   20  H   UNL     1     -44.763  63.970 -57.858  1.00  0.00     0.126 HD
HETATM   21  H   UNL     1     -43.854  63.581 -59.240  1.00  0.00     0.126 HD
ENDBRANCH  11  19
BRANCH   1  22
HETATM   22  C   UNL     1     -42.971  57.335 -55.647  1.00  0.00    -0.007 A 
HETATM   23  C   UNL     1     -41.908  57.224 -54.743  1.00  0.00     0.016 A 
HETATM   24  C   UNL     1     -41.268  55.998 -54.555  1.00  0.00     0.037 A 
HETATM   25  C   UNL     1     -41.700  54.873 -55.254  1.00  0.00     0.069 A 
HETATM   26  C   UNL     1     -42.716  54.983 -56.201  1.00  0.00     0.037 A 
HETATM   27  C   UNL     1     -43.355  56.212 -56.391  1.00  0.00     0.016 A 
BRANCH  25  28
HETATM   28  O   UNL     1     -41.057  53.701 -54.972  1.00  0.00    -0.347 OA
BRANCH  28  29
HETATM   29  C   UNL     1     -40.474  53.671 -53.664  1.00  0.00     0.214 C 
BRANCH  29  30
HETATM   30  C   UNL     1     -40.156  52.242 -53.285  1.00  0.00    -0.034 A 
HETATM   31  C   UNL     1     -40.239  51.221 -54.243  1.00  0.00     0.009 A 
HETATM   32  C   UNL     1     -39.934  49.903 -53.904  1.00  0.00     0.001 A 
HETATM   33  C   UNL     1     -39.536  49.590 -52.605  1.00  0.00     0.000 A 
HETATM   34  C   UNL     1     -39.441  50.596 -51.646  1.00  0.00     0.001 A 
HETATM   35  C   UNL     1     -39.745  51.917 -51.984  1.00  0.00     0.009 A 
ENDBRANCH  29  30
ENDBRANCH  28  29
ENDBRANCH  25  28
ENDBRANCH   1  22
TORSDOF 6
ENDMDL
MODEL 9
REMARK VINA RESULT:      -7.4      2.437      8.016
REMARK  6 active torsions:
REMARK  status: ('A' for Active; 'I' for Inactive)
REMARK    1  A    between atoms: C_4  and  C_5 
REMARK    2  A    between atoms: C_5  and  O_6 
REMARK    3  A    between atoms: O_6  and  C_7 
REMARK    4  A    between atoms: C_10  and  C_11 
REMARK    5  A    between atoms: C_17  and  C_18 
REMARK    6  A    between atoms: C_27  and  N_28 
ROOT
HETATM    1  C   UNL     1     -40.891  55.430 -54.068  1.00  0.00     0.072 A 
HETATM    2  N   UNL     1     -40.712  54.621 -55.170  1.00  0.00    -0.274 N 
HETATM    3  H   UNL     1     -40.781  54.884 -56.148  1.00  0.00     0.189 HD
HETATM    4  N   UNL     1     -40.413  53.340 -54.870  1.00  0.00    -0.148 NA
HETATM    5  C   UNL     1     -40.398  53.355 -53.544  1.00  0.00     0.199 A 
HETATM    6  C   UNL     1     -40.692  54.598 -52.979  1.00  0.00     0.040 A 
HETATM    7  C   UNL     1     -40.743  54.767 -51.502  1.00  0.00     0.106 A 
HETATM    8  C   UNL     1     -40.402  53.463 -50.791  1.00  0.00     0.081 A 
HETATM    9  C   UNL     1     -40.326  53.516 -49.367  1.00  0.00     0.100 C 
HETATM   10  N   UNL     1     -40.269  53.570 -48.210  1.00  0.00    -0.191 NA
HETATM   11  C   UNL     1     -40.128  52.309 -51.454  1.00  0.00     0.140 A 
HETATM   12  O   UNL     1     -40.144  52.229 -52.854  1.00  0.00    -0.277 OA
ENDROOT
BRANCH   7  13
HETATM   13  C   UNL     1     -42.138  55.282 -51.174  1.00  0.00    -0.041 A 
HETATM   14  C   UNL     1     -42.432  56.646 -51.045  1.00  0.00     0.027 A 
HETATM   15  C   UNL     1     -43.732  57.027 -50.747  1.00  0.00     0.116 A 
HETATM   16  N   UNL     1     -44.752  56.159 -50.584  1.00  0.00    -0.273 NA
HETATM   17  C   UNL     1     -44.459  54.850 -50.722  1.00  0.00     0.116 A 
HETATM   18  C   UNL     1     -43.192  54.370 -51.016  1.00  0.00     0.027 A 
ENDBRANCH   7  13
BRANCH  11  19
HETATM   19  N   UNL     1     -39.806  51.108 -50.858  1.00  0.00    -0.282 NA
HETATM   20  H   UNL     1     -38.847  51.015 -50.535  1.00  0.00     0.126 HD
HETATM   21  H   UNL     1     -40.494  50.832 -50.160  1.00  0.00     0.126 HD
ENDBRANCH  11  19
BRANCH   1  22
HETATM   22  C   UNL     1     -41.276  56.830 -54.155  1.00  0.00    -0.007 A 
HETATM   23  C   UNL     1     -42.455  57.197 -54.815  1.00  0.00     0.016 A 
HETATM   24  C   UNL     1     -42.880  58.526 -54.809  1.00  0.00     0.037 A 
HETATM   25  C   UNL     1     -42.141  59.491 -54.128  1.00  0.00     0.069 A 
HETATM   26  C   UNL     1     -40.935  59.149 -53.519  1.00  0.00     0.037 A 
HETATM   27  C   UNL     1     -40.507  57.818 -53.528  1.00  0.00     0.016 A 
BRANCH  25  28
HETATM   28  O   UNL     1     -42.654  60.757 -54.124  1.00  0.00    -0.347 OA
BRANCH  28  29
HETATM   29  C   UNL     1     -44.045  60.807 -53.782  1.00  0.00     0.214 C 
BRANCH  29  30
HETATM   30  C   UNL     1     -44.193  60.914 -52.282  1.00  0.00    -0.034 A 
HETATM   31  C   UNL     1     -45.254  60.270 -51.629  1.00  0.00     0.009 A 
HETATM   32  C   UNL     1     -45.388  60.352 -50.242  1.00  0.00     0.001 A 
HETATM   33  C   UNL     1     -44.461  61.073 -49.492  1.00  0.00     0.000 A 
HETATM   34  C   UNL     1     -43.398  61.710 -50.128  1.00  0.00     0.001 A 
HETATM   35  C   UNL     1     -43.261  61.628 -51.516  1.00  0.00     0.009 A 
ENDBRANCH  29  30
ENDBRANCH  28  29
ENDBRANCH  25  28
ENDBRANCH   1  22
TORSDOF 6
ENDMDL
MODEL 10
REMARK VINA RESULT:      -7.2      3.452      6.576
REMARK  6 active torsions:
REMARK  status: ('A' for Active; 'I' for Inactive)
REMARK    1  A    between atoms: C_4  and  C_5 
REMARK    2  A    between atoms: C_5  and  O_6 
REMARK    3  A    between atoms: O_6  and  C_7 
REMARK    4  A    between atoms: C_10  and  C_11 
REMARK    5  A    between atoms: C_17  and  C_18 
REMARK    6  A    between atoms: C_27  and  N_28 
ROOT
HETATM    1  C   UNL     1     -43.034  56.149 -57.739  1.00  0.00     0.072 A 
HETATM    2  N   UNL     1     -42.327  55.704 -58.836  1.00  0.00    -0.274 N 
HETATM    3  H   UNL     1     -41.512  55.099 -58.842  1.00  0.00     0.189 HD
HETATM    4  N   UNL     1     -42.805  56.148 -60.017  1.00  0.00    -0.148 NA
HETATM    5  C   UNL     1     -43.844  56.883 -59.644  1.00  0.00     0.199 A 
HETATM    6  C   UNL     1     -44.043  56.940 -58.264  1.00  0.00     0.040 A 
HETATM    7  C   UNL     1     -45.151  57.750 -57.689  1.00  0.00     0.106 A 
HETATM    8  C   UNL     1     -45.976  58.405 -58.791  1.00  0.00     0.081 A 
HETATM    9  C   UNL     1     -47.128  59.136 -58.373  1.00  0.00     0.100 C 
HETATM   10  N   UNL     1     -48.060  59.730 -58.022  1.00  0.00    -0.191 NA
HETATM   11  C   UNL     1     -45.684  58.273 -60.111  1.00  0.00     0.140 A 
HETATM   12  O   UNL     1     -44.590  57.521 -60.564  1.00  0.00    -0.277 OA
ENDROOT
BRANCH   7  13
HETATM   13  C   UNL     1     -44.508  58.755 -56.744  1.00  0.00    -0.041 A 
HETATM   14  C   UNL     1     -43.577  59.712 -57.173  1.00  0.00     0.027 A 
HETATM   15  C   UNL     1     -43.044  60.592 -56.243  1.00  0.00     0.116 A 
HETATM   16  N   UNL     1     -43.375  60.598 -54.936  1.00  0.00    -0.273 NA
HETATM   17  C   UNL     1     -44.280  59.681 -54.538  1.00  0.00     0.116 A 
HETATM   18  C   UNL     1     -44.868  58.758 -55.388  1.00  0.00     0.027 A 
ENDBRANCH   7  13
BRANCH  11  19
HETATM   19  N   UNL     1     -46.403  58.837 -61.143  1.00  0.00    -0.282 NA
HETATM   20  H   UNL     1     -46.940  59.668 -60.909  1.00  0.00     0.126 HD
HETATM   21  H   UNL     1     -45.841  58.945 -61.985  1.00  0.00     0.126 HD
ENDBRANCH  11  19
BRANCH   1  22
HETATM   22  C   UNL     1     -42.663  55.843 -56.367  1.00  0.00    -0.007 A 
HETATM   23  C   UNL     1     -41.772  56.672 -55.676  1.00  0.00     0.016 A 
HETATM   24  C   UNL     1     -41.496  56.440 -54.328  1.00  0.00     0.037 A 
HETATM   25  C   UNL     1     -42.122  55.392 -53.659  1.00  0.00     0.069 A 
HETATM   26  C   UNL     1     -42.963  54.522 -54.351  1.00  0.00     0.037 A 
HETATM   27  C   UNL     1     -43.237  54.752 -55.702  1.00  0.00     0.016 A 
BRANCH  25  28
HETATM   28  O   UNL     1     -41.840  55.267 -52.328  1.00  0.00    -0.347 OA
BRANCH  28  29
HETATM   29  C   UNL     1     -42.819  55.876 -51.478  1.00  0.00     0.214 C 
BRANCH  29  30
HETATM   30  C   UNL     1     -42.393  57.287 -51.146  1.00  0.00    -0.034 A 
HETATM   31  C   UNL     1     -41.113  57.536 -50.627  1.00  0.00     0.009 A 
HETATM   32  C   UNL     1     -40.708  58.838 -50.332  1.00  0.00     0.001 A 
HETATM   33  C   UNL     1     -41.573  59.907 -50.558  1.00  0.00     0.000 A 
HETATM   34  C   UNL     1     -42.843  59.674 -51.081  1.00  0.00     0.001 A 
HETATM   35  C   UNL     1     -43.250  58.372 -51.379  1.00  0.00     0.009 A 
ENDBRANCH  29  30
ENDBRANCH  28  29
ENDBRANCH  25  28
ENDBRANCH   1  22
TORSDOF 6
ENDMDL
