MODEL 1
REMARK VINA RESULT:      -8.6      0.000      0.000
REMARK  5 active torsions:
REMARK  status: ('A' for Active; 'I' for Inactive)
REMARK    1  A    between atoms: C_7  and  C_8 
REMARK    2  A    between atoms: C_10  and  N_11 
REMARK       I    between atoms: N_11  and  C_12 
REMARK    3  A    between atoms: C_12  and  C_13 
REMARK    4  A    between atoms: C_15  and  O_16 
REMARK    5  A    between atoms: C_19  and  O_20 
ROOT
HETATM    1  C   UNL     1     -42.917  57.437 -56.196  1.00  0.00     0.019 A 
HETATM    2  C   UNL     1     -42.524  56.379 -55.356  1.00  0.00     0.045 A 
HETATM    3  C   UNL     1     -41.753  56.609 -54.212  1.00  0.00     0.035 A 
HETATM    4  C   UNL     1     -41.356  57.919 -53.918  1.00  0.00     0.029 A 
HETATM    5  C   UNL     1     -41.716  58.978 -54.755  1.00  0.00     0.003 A 
HETATM    6  C   UNL     1     -42.496  58.736 -55.885  1.00  0.00     0.016 A 
ENDROOT
BRANCH   3   7
HETATM    7  N   UNL     1     -41.369  55.597 -53.300  1.00  0.00    -0.323 N 
HETATM    8  C   UNL     1     -40.667  54.438 -53.587  1.00  0.00     0.256 C 
HETATM    9  O   UNL     1     -40.210  54.134 -54.685  1.00  0.00    -0.267 OA
HETATM   10  H   UNL     1     -41.680  55.745 -52.352  1.00  0.00     0.169 HD
BRANCH   8  11
HETATM   11  C   UNL     1     -40.464  53.471 -52.460  1.00  0.00     0.037 A 
HETATM   12  C   UNL     1     -40.052  52.171 -52.802  1.00  0.00     0.054 A 
HETATM   13  C   UNL     1     -39.837  51.212 -51.816  1.00  0.00     0.071 A 
HETATM   14  C   UNL     1     -40.059  51.550 -50.482  1.00  0.00     0.073 A 
HETATM   15  C   UNL     1     -40.461  52.839 -50.120  1.00  0.00     0.071 A 
HETATM   16  C   UNL     1     -40.650  53.806 -51.110  1.00  0.00     0.054 A 
BRANCH  13  17
HETATM   17  O   UNL     1     -39.427  49.924 -52.025  1.00  0.00    -0.356 OA
HETATM   18  C   UNL     1     -39.422  49.464 -53.372  1.00  0.00     0.210 C 
ENDBRANCH  13  17
BRANCH  15  19
HETATM   19  O   UNL     1     -40.621  53.023 -48.774  1.00  0.00    -0.356 OA
HETATM   20  C   UNL     1     -40.649  54.361 -48.294  1.00  0.00     0.210 C 
ENDBRANCH  15  19
ENDBRANCH   8  11
ENDBRANCH   3   7
BRANCH   1  21
HETATM   21  C   UNL     1     -43.781  57.214 -57.355  1.00  0.00     0.181 A 
HETATM   22  O   UNL     1     -43.388  56.236 -58.235  1.00  0.00    -0.289 OA
HETATM   23  C   UNL     1     -44.383  56.207 -59.164  1.00  0.00     0.106 A 
HETATM   24  C   UNL     1     -45.320  57.161 -58.812  1.00  0.00     0.094 A 
HETATM   25  C   UNL     1     -44.474  55.376 -60.272  1.00  0.00     0.040 A 
HETATM   26  C   UNL     1     -46.463  57.315 -59.610  1.00  0.00     0.041 A 
HETATM   27  N   UNL     1     -44.922  57.807 -57.668  1.00  0.00    -0.221 NA
HETATM   28  C   UNL     1     -46.617  56.478 -60.734  1.00  0.00    -0.060 A 
HETATM   29  C   UNL     1     -47.822  56.626 -61.618  1.00  0.00     0.048 C 
HETATM   30  C   UNL     1     -45.621  55.538 -61.059  1.00  0.00     0.009 A 
ENDBRANCH   1  21
TORSDOF 5
ENDMDL
MODEL 2
REMARK VINA RESULT:      -8.5      0.285      2.427
REMARK  5 active torsions:
REMARK  status: ('A' for Active; 'I' for Inactive)
REMARK    1  A    between atoms: C_7  and  C_8 
REMARK    2  A    between atoms: C_10  and  N_11 
REMARK       I    between atoms: N_11  and  C_12 
REMARK    3  A    between atoms: C_12  and  C_13 
REMARK    4  A    between atoms: C_15  and  O_16 
REMARK    5  A    between atoms: C_19  and  O_20 
ROOT
HETATM    1  C   UNL     1     -43.074  57.556 -56.315  1.00  0.00     0.019 A 
HETATM    2  C   UNL     1     -42.649  56.490 -55.501  1.00  0.00     0.045 A 
HETATM    3  C   UNL     1     -41.875  56.714 -54.358  1.00  0.00     0.035 A 
HETATM    4  C   UNL     1     -41.509  58.027 -54.037  1.00  0.00     0.029 A 
HETATM    5  C   UNL     1     -41.902  59.094 -54.848  1.00  0.00     0.003 A 
HETATM    6  C   UNL     1     -42.684  58.858 -55.977  1.00  0.00     0.016 A 
ENDROOT
BRANCH   3   7
HETATM    7  N   UNL     1     -41.459  55.692 -53.471  1.00  0.00    -0.323 N 
HETATM    8  C   UNL     1     -40.715  54.567 -53.785  1.00  0.00     0.256 C 
HETATM    9  O   UNL     1     -40.241  54.310 -54.889  1.00  0.00    -0.267 OA
HETATM   10  H   UNL     1     -41.779  55.803 -52.522  1.00  0.00     0.169 HD
BRANCH   8  11
HETATM   11  C   UNL     1     -40.482  53.578 -52.684  1.00  0.00     0.037 A 
HETATM   12  C   UNL     1     -40.723  54.018 -51.371  1.00  0.00     0.054 A 
HETATM   13  C   UNL     1     -40.535  53.161 -50.289  1.00  0.00     0.071 A 
HETATM   14  C   UNL     1     -40.082  51.863 -50.524  1.00  0.00     0.073 A 
HETATM   15  C   UNL     1     -39.845  51.403 -51.822  1.00  0.00     0.071 A 
HETATM   16  C   UNL     1     -40.060  52.258 -52.906  1.00  0.00     0.054 A 
BRANCH  13  17
HETATM   17  O   UNL     1     -40.746  53.470 -48.974  1.00  0.00    -0.356 OA
HETATM   18  C   UNL     1     -40.956  54.844 -48.665  1.00  0.00     0.210 C 
ENDBRANCH  13  17
BRANCH  15  19
HETATM   19  O   UNL     1     -39.421  50.105 -51.893  1.00  0.00    -0.356 OA
HETATM   20  C   UNL     1     -39.480  49.464 -53.161  1.00  0.00     0.210 C 
ENDBRANCH  15  19
ENDBRANCH   8  11
ENDBRANCH   3   7
BRANCH   1  21
HETATM   21  C   UNL     1     -43.941  57.337 -57.473  1.00  0.00     0.181 A 
HETATM   22  O   UNL     1     -43.551  56.361 -58.356  1.00  0.00    -0.289 OA
HETATM   23  C   UNL     1     -44.547  56.335 -59.283  1.00  0.00     0.106 A 
HETATM   24  C   UNL     1     -45.483  57.290 -58.926  1.00  0.00     0.094 A 
HETATM   25  C   UNL     1     -44.641  55.508 -60.393  1.00  0.00     0.040 A 
HETATM   26  C   UNL     1     -46.627  57.447 -59.722  1.00  0.00     0.041 A 
HETATM   27  N   UNL     1     -45.081  57.932 -57.782  1.00  0.00    -0.221 NA
HETATM   28  C   UNL     1     -46.784  56.613 -60.848  1.00  0.00    -0.060 A 
HETATM   29  C   UNL     1     -47.991  56.766 -61.729  1.00  0.00     0.048 C 
HETATM   30  C   UNL     1     -45.790  55.673 -61.177  1.00  0.00     0.009 A 
ENDBRANCH   1  21
TORSDOF 5
ENDMDL
MODEL 3
REMARK VINA RESULT:      -8.4      3.041      4.135
REMARK  5 active torsions:
REMARK  status: ('A' for Active; 'I' for Inactive)
REMARK    1  A    between atoms: C_7  and  C_8 
REMARK    2  A    between atoms: C_10  and  N_11 
REMARK       I    between atoms: N_11  and  C_12 
REMARK    3  A    between atoms: C_12  and  C_13 
REMARK    4  A    between atoms: C_15  and  O_16 
REMARK    5  A    between atoms: C_19  and  O_20 
ROOT
HETATM    1  C   UNL     1     -42.930  58.699 -56.294  1.00  0.00     0.019 A 
HETATM    2  C   UNL     1     -42.180  57.794 -55.519  1.00  0.00     0.045 A 
HETATM    3  C   UNL     1     -42.804  56.886 -54.658  1.00  0.00     0.035 A 
HETATM    4  C   UNL     1     -44.201  56.898 -54.561  1.00  0.00     0.029 A 
HETATM    5  C   UNL     1     -44.959  57.806 -55.304  1.00  0.00     0.003 A 
HETATM    6  C   UNL     1     -44.326  58.697 -56.168  1.00  0.00     0.016 A 
ENDROOT
BRANCH   3   7
HETATM    7  N   UNL     1     -42.111  55.918 -53.892  1.00  0.00    -0.323 N 
HETATM    8  C   UNL     1     -41.560  54.732 -54.347  1.00  0.00     0.256 C 
HETATM    9  O   UNL     1     -41.535  54.360 -55.517  1.00  0.00    -0.267 OA
HETATM   10  H   UNL     1     -42.055  56.124 -52.907  1.00  0.00     0.169 HD
BRANCH   8  11
HETATM   11  C   UNL     1     -40.958  53.824 -53.318  1.00  0.00     0.037 A 
HETATM   12  C   UNL     1     -40.469  52.585 -53.769  1.00  0.00     0.054 A 
HETATM   13  C   UNL     1     -39.891  51.684 -52.879  1.00  0.00     0.071 A 
HETATM   14  C   UNL     1     -39.822  52.017 -51.527  1.00  0.00     0.073 A 
HETATM   15  C   UNL     1     -40.293  53.246 -51.060  1.00  0.00     0.071 A 
HETATM   16  C   UNL     1     -40.849  54.159 -51.960  1.00  0.00     0.054 A 
BRANCH  13  17
HETATM   17  O   UNL     1     -39.374  50.459 -53.200  1.00  0.00    -0.356 OA
HETATM   18  C   UNL     1     -39.765  49.907 -54.452  1.00  0.00     0.210 C 
ENDBRANCH  13  17
BRANCH  15  19
HETATM   19  O   UNL     1     -40.141  53.435 -49.714  1.00  0.00    -0.356 OA
HETATM   20  C   UNL     1     -41.006  54.370 -49.081  1.00  0.00     0.210 C 
ENDBRANCH  15  19
ENDBRANCH   8  11
ENDBRANCH   3   7
BRANCH   1  21
HETATM   21  C   UNL     1     -42.291  59.604 -57.248  1.00  0.00     0.181 A 
HETATM   22  O   UNL     1     -42.693  59.501 -58.556  1.00  0.00    -0.289 OA
HETATM   23  C   UNL     1     -41.992  60.477 -59.197  1.00  0.00     0.106 A 
HETATM   24  C   UNL     1     -41.202  61.116 -58.258  1.00  0.00     0.094 A 
HETATM   25  C   UNL     1     -42.045  60.802 -60.544  1.00  0.00     0.040 A 
HETATM   26  C   UNL     1     -40.391  62.183 -58.671  1.00  0.00     0.041 A 
HETATM   27  N   UNL     1     -41.388  60.545 -57.024  1.00  0.00    -0.221 NA
HETATM   28  C   UNL     1     -40.426  62.571 -60.026  1.00  0.00    -0.060 A 
HETATM   29  C   UNL     1     -39.558  63.701 -60.504  1.00  0.00     0.048 C 
HETATM   30  C   UNL     1     -41.232  61.871 -60.942  1.00  0.00     0.009 A 
ENDBRANCH   1  21
TORSDOF 5
ENDMDL
MODEL 4
REMARK VINA RESULT:      -8.3      5.608      9.112
REMARK  5 active torsions:
REMARK  status: ('A' for Active; 'I' for Inactive)
REMARK    1  A    between atoms: C_7  and  C_8 
REMARK    2  A    between atoms: C_10  and  N_11 
REMARK       I    between atoms: N_11  and  C_12 
REMARK    3  A    between atoms: C_12  and  C_13 
REMARK    4  A    between atoms: C_15  and  O_16 
REMARK    5  A    between atoms: C_19  and  O_20 
ROOT
HETATM    1  C   UNL     1     -43.326  56.593 -53.519  1.00  0.00     0.019 A 
HETATM    2  C   UNL     1     -43.300  57.514 -52.456  1.00  0.00     0.045 A 
HETATM    3  C   UNL     1     -44.154  58.621 -52.434  1.00  0.00     0.035 A 
HETATM    4  C   UNL     1     -45.036  58.814 -53.504  1.00  0.00     0.029 A 
HETATM    5  C   UNL     1     -45.058  57.923 -54.579  1.00  0.00     0.003 A 
HETATM    6  C   UNL     1     -44.211  56.817 -54.583  1.00  0.00     0.016 A 
ENDROOT
BRANCH   3   7
HETATM    7  N   UNL     1     -44.213  59.554 -51.371  1.00  0.00    -0.323 N 
HETATM    8  C   UNL     1     -45.203  59.663 -50.410  1.00  0.00     0.256 C 
HETATM    9  O   UNL     1     -46.169  58.914 -50.293  1.00  0.00    -0.267 OA
HETATM   10  H   UNL     1     -43.456  60.220 -51.355  1.00  0.00     0.169 HD
BRANCH   8  11
HETATM   11  C   UNL     1     -45.087  60.801 -49.441  1.00  0.00     0.037 A 
HETATM   12  C   UNL     1     -44.661  62.037 -49.958  1.00  0.00     0.054 A 
HETATM   13  C   UNL     1     -44.530  63.146 -49.127  1.00  0.00     0.071 A 
HETATM   14  C   UNL     1     -44.806  63.011 -47.767  1.00  0.00     0.073 A 
HETATM   15  C   UNL     1     -45.239  61.794 -47.235  1.00  0.00     0.071 A 
HETATM   16  C   UNL     1     -45.394  60.689 -48.076  1.00  0.00     0.054 A 
BRANCH  13  17
HETATM   17  O   UNL     1     -44.136  64.397 -49.515  1.00  0.00    -0.356 OA
HETATM   18  C   UNL     1     -43.135  64.469 -50.524  1.00  0.00     0.210 C 
ENDBRANCH  13  17
BRANCH  15  19
HETATM   19  O   UNL     1     -45.485  61.821 -45.890  1.00  0.00    -0.356 OA
HETATM   20  C   UNL     1     -44.647  61.034 -45.053  1.00  0.00     0.210 C 
ENDBRANCH  15  19
ENDBRANCH   8  11
ENDBRANCH   3   7
BRANCH   1  21
HETATM   21  C   UNL     1     -42.485  55.396 -53.517  1.00  0.00     0.181 A 
HETATM   22  O   UNL     1     -41.779  55.145 -52.368  1.00  0.00    -0.289 OA
HETATM   23  C   UNL     1     -41.143  53.967 -52.620  1.00  0.00     0.106 A 
HETATM   24  C   UNL     1     -41.486  53.566 -53.898  1.00  0.00     0.094 A 
HETATM   25  C   UNL     1     -40.302  53.267 -51.767  1.00  0.00     0.040 A 
HETATM   26  C   UNL     1     -40.968  52.359 -54.391  1.00  0.00     0.041 A 
HETATM   27  N   UNL     1     -42.329  54.488 -54.467  1.00  0.00    -0.221 NA
HETATM   28  C   UNL     1     -40.129  51.595 -53.554  1.00  0.00    -0.060 A 
HETATM   29  C   UNL     1     -39.546  50.305 -54.056  1.00  0.00     0.048 C 
HETATM   30  C   UNL     1     -39.795  52.062 -52.270  1.00  0.00     0.009 A 
ENDBRANCH   1  21
TORSDOF 5
ENDMDL
MODEL 5
REMARK VINA RESULT:      -8.2      3.123      4.813
REMARK  5 active torsions:
REMARK  status: ('A' for Active; 'I' for Inactive)
REMARK    1  A    between atoms: C_7  and  C_8 
REMARK    2  A    between atoms: C_10  and  N_11 
REMARK       I    between atoms: N_11  and  C_12 
REMARK    3  A    between atoms: C_12  and  C_13 
REMARK    4  A    between atoms: C_15  and  O_16 
REMARK    5  A    between atoms: C_19  and  O_20 
ROOT
HETATM    1  C   UNL     1     -43.085  58.708 -56.397  1.00  0.00     0.019 A 
HETATM    2  C   UNL     1     -42.409  57.664 -55.739  1.00  0.00     0.045 A 
HETATM    3  C   UNL     1     -43.093  56.760 -54.920  1.00  0.00     0.035 A 
HETATM    4  C   UNL     1     -44.473  56.916 -54.746  1.00  0.00     0.029 A 
HETATM    5  C   UNL     1     -45.156  57.961 -55.373  1.00  0.00     0.003 A 
HETATM    6  C   UNL     1     -44.465  58.848 -56.197  1.00  0.00     0.016 A 
ENDROOT
BRANCH   3   7
HETATM    7  N   UNL     1     -42.480  55.660 -54.272  1.00  0.00    -0.323 N 
HETATM    8  C   UNL     1     -41.635  55.703 -53.175  1.00  0.00     0.256 C 
HETATM    9  O   UNL     1     -41.331  56.714 -52.549  1.00  0.00    -0.267 OA
HETATM   10  H   UNL     1     -42.671  54.764 -54.693  1.00  0.00     0.169 HD
BRANCH   8  11
HETATM   11  C   UNL     1     -41.035  54.404 -52.730  1.00  0.00     0.037 A 
HETATM   12  C   UNL     1     -40.942  54.188 -51.343  1.00  0.00     0.054 A 
HETATM   13  C   UNL     1     -40.400  53.006 -50.845  1.00  0.00     0.071 A 
HETATM   14  C   UNL     1     -39.928  52.047 -51.739  1.00  0.00     0.073 A 
HETATM   15  C   UNL     1     -40.019  52.238 -53.120  1.00  0.00     0.071 A 
HETATM   16  C   UNL     1     -40.587  53.414 -53.617  1.00  0.00     0.054 A 
BRANCH  13  17
HETATM   17  O   UNL     1     -40.268  52.679 -49.523  1.00  0.00    -0.356 OA
HETATM   18  C   UNL     1     -40.602  53.689 -48.577  1.00  0.00     0.210 C 
ENDBRANCH  13  17
BRANCH  15  19
HETATM   19  O   UNL     1     -39.530  51.203 -53.868  1.00  0.00    -0.356 OA
HETATM   20  C   UNL     1     -39.785  49.882 -53.406  1.00  0.00     0.210 C 
ENDBRANCH  15  19
ENDBRANCH   8  11
ENDBRANCH   3   7
BRANCH   1  21
HETATM   21  C   UNL     1     -42.390  59.615 -57.310  1.00  0.00     0.181 A 
HETATM   22  O   UNL     1     -42.784  59.584 -58.624  1.00  0.00    -0.289 OA
HETATM   23  C   UNL     1     -42.027  60.546 -59.220  1.00  0.00     0.106 A 
HETATM   24  C   UNL     1     -41.215  61.107 -58.251  1.00  0.00     0.094 A 
HETATM   25  C   UNL     1     -42.049  60.926 -60.554  1.00  0.00     0.040 A 
HETATM   26  C   UNL     1     -40.346  62.146 -58.614  1.00  0.00     0.041 A 
HETATM   27  N   UNL     1     -41.442  60.498 -57.042  1.00  0.00    -0.221 NA
HETATM   28  C   UNL     1     -40.347  62.588 -59.953  1.00  0.00    -0.060 A 
HETATM   29  C   UNL     1     -39.418  63.688 -60.379  1.00  0.00     0.048 C 
HETATM   30  C   UNL     1     -41.179  61.966 -60.903  1.00  0.00     0.009 A 
ENDBRANCH   1  21
TORSDOF 5
ENDMDL
MODEL 6
REMARK VINA RESULT:      -8.2      5.588      9.173
REMARK  5 active torsions:
REMARK  status: ('A' for Active; 'I' for Inactive)
REMARK    1  A    between atoms: C_7  and  C_8 
REMARK    2  A    between atoms: C_10  and  N_11 
REMARK       I    between atoms: N_11  and  C_12 
REMARK    3  A    between atoms: C_12  and  C_13 
REMARK    4  A    between atoms: C_15  and  O_16 
REMARK    5  A    between atoms: C_19  and  O_20 
ROOT
HETATM    1  C   UNL     1     -43.272  56.540 -53.534  1.00  0.00     0.019 A 
HETATM    2  C   UNL     1     -43.235  57.474 -52.482  1.00  0.00     0.045 A 
HETATM    3  C   UNL     1     -44.086  58.582 -52.466  1.00  0.00     0.035 A 
HETATM    4  C   UNL     1     -44.977  58.766 -53.530  1.00  0.00     0.029 A 
HETATM    5  C   UNL     1     -45.010  57.862 -54.595  1.00  0.00     0.003 A 
HETATM    6  C   UNL     1     -44.165  56.754 -54.592  1.00  0.00     0.016 A 
ENDROOT
BRANCH   3   7
HETATM    7  N   UNL     1     -44.133  59.528 -51.413  1.00  0.00    -0.323 N 
HETATM    8  C   UNL     1     -45.132  59.672 -50.465  1.00  0.00     0.256 C 
HETATM    9  O   UNL     1     -46.118  58.950 -50.352  1.00  0.00    -0.267 OA
HETATM   10  H   UNL     1     -43.360  60.175 -51.395  1.00  0.00     0.169 HD
BRANCH   8  11
HETATM   11  C   UNL     1     -44.999  60.817 -49.507  1.00  0.00     0.037 A 
HETATM   12  C   UNL     1     -45.415  60.592 -48.183  1.00  0.00     0.054 A 
HETATM   13  C   UNL     1     -45.322  61.601 -47.228  1.00  0.00     0.071 A 
HETATM   14  C   UNL     1     -44.831  62.849 -47.608  1.00  0.00     0.073 A 
HETATM   15  C   UNL     1     -44.405  63.092 -48.916  1.00  0.00     0.071 A 
HETATM   16  C   UNL     1     -44.475  62.069 -49.865  1.00  0.00     0.054 A 
BRANCH  13  17
HETATM   17  O   UNL     1     -45.683  61.498 -45.913  1.00  0.00    -0.356 OA
HETATM   18  C   UNL     1     -44.669  61.092 -45.001  1.00  0.00     0.210 C 
ENDBRANCH  13  17
BRANCH  15  19
HETATM   19  O   UNL     1     -43.933  64.358 -49.132  1.00  0.00    -0.356 OA
HETATM   20  C   UNL     1     -43.259  64.606 -50.359  1.00  0.00     0.210 C 
ENDBRANCH  15  19
ENDBRANCH   8  11
ENDBRANCH   3   7
BRANCH   1  21
HETATM   21  C   UNL     1     -42.434  55.341 -53.525  1.00  0.00     0.181 A 
HETATM   22  O   UNL     1     -41.736  55.090 -52.370  1.00  0.00    -0.289 OA
HETATM   23  C   UNL     1     -41.101  53.911 -52.617  1.00  0.00     0.106 A 
HETATM   24  C   UNL     1     -41.436  53.509 -53.898  1.00  0.00     0.094 A 
HETATM   25  C   UNL     1     -40.268  53.209 -51.758  1.00  0.00     0.040 A 
HETATM   26  C   UNL     1     -40.917  52.301 -54.386  1.00  0.00     0.041 A 
HETATM   27  N   UNL     1     -42.273  54.433 -54.473  1.00  0.00    -0.221 NA
HETATM   28  C   UNL     1     -40.086  51.535 -53.543  1.00  0.00    -0.060 A 
HETATM   29  C   UNL     1     -39.502  50.244 -54.039  1.00  0.00     0.048 C 
HETATM   30  C   UNL     1     -39.760  52.003 -52.256  1.00  0.00     0.009 A 
ENDBRANCH   1  21
TORSDOF 5
ENDMDL
MODEL 7
REMARK VINA RESULT:      -8.2      1.921      9.892
REMARK  5 active torsions:
REMARK  status: ('A' for Active; 'I' for Inactive)
REMARK    1  A    between atoms: C_7  and  C_8 
REMARK    2  A    between atoms: C_10  and  N_11 
REMARK       I    between atoms: N_11  and  C_12 
REMARK    3  A    between atoms: C_12  and  C_13 
REMARK    4  A    between atoms: C_15  and  O_16 
REMARK    5  A    between atoms: C_19  and  O_20 
ROOT
HETATM    1  C   UNL     1     -41.686  55.828 -54.167  1.00  0.00     0.019 A 
HETATM    2  C   UNL     1     -42.710  55.915 -55.127  1.00  0.00     0.045 A 
HETATM    3  C   UNL     1     -43.094  57.146 -55.668  1.00  0.00     0.035 A 
HETATM    4  C   UNL     1     -42.451  58.308 -55.226  1.00  0.00     0.029 A 
HETATM    5  C   UNL     1     -41.449  58.243 -54.255  1.00  0.00     0.003 A 
HETATM    6  C   UNL     1     -41.066  57.008 -53.734  1.00  0.00     0.016 A 
ENDROOT
BRANCH   3   7
HETATM    7  N   UNL     1     -44.081  57.296 -56.672  1.00  0.00    -0.323 N 
HETATM    8  C   UNL     1     -43.952  57.000 -58.019  1.00  0.00     0.256 C 
HETATM    9  O   UNL     1     -42.965  56.496 -58.547  1.00  0.00    -0.267 OA
HETATM   10  H   UNL     1     -44.950  57.693 -56.352  1.00  0.00     0.169 HD
BRANCH   8  11
HETATM   11  C   UNL     1     -45.114  57.337 -58.903  1.00  0.00     0.037 A 
HETATM   12  C   UNL     1     -45.694  58.607 -58.735  1.00  0.00     0.054 A 
HETATM   13  C   UNL     1     -46.776  59.002 -59.518  1.00  0.00     0.071 A 
HETATM   14  C   UNL     1     -47.293  58.112 -60.458  1.00  0.00     0.073 A 
HETATM   15  C   UNL     1     -46.726  56.848 -60.646  1.00  0.00     0.071 A 
HETATM   16  C   UNL     1     -45.625  56.466 -59.877  1.00  0.00     0.054 A 
BRANCH  13  17
HETATM   17  O   UNL     1     -47.414  60.210 -59.454  1.00  0.00    -0.356 OA
HETATM   18  C   UNL     1     -46.720  61.267 -58.800  1.00  0.00     0.210 C 
ENDBRANCH  13  17
BRANCH  15  19
HETATM   19  O   UNL     1     -47.332  56.096 -61.615  1.00  0.00    -0.356 OA
HETATM   20  C   UNL     1     -48.381  56.703 -62.357  1.00  0.00     0.210 C 
ENDBRANCH  15  19
ENDBRANCH   8  11
ENDBRANCH   3   7
BRANCH   1  21
HETATM   21  C   UNL     1     -41.230  54.539 -53.647  1.00  0.00     0.181 A 
HETATM   22  O   UNL     1     -41.035  53.540 -54.568  1.00  0.00    -0.289 OA
HETATM   23  C   UNL     1     -40.569  52.495 -53.830  1.00  0.00     0.106 A 
HETATM   24  C   UNL     1     -40.509  52.902 -52.510  1.00  0.00     0.094 A 
HETATM   25  C   UNL     1     -40.204  51.238 -54.291  1.00  0.00     0.040 A 
HETATM   26  C   UNL     1     -40.037  52.001 -51.544  1.00  0.00     0.041 A 
HETATM   27  N   UNL     1     -40.945  54.199 -52.400  1.00  0.00    -0.221 NA
HETATM   28  C   UNL     1     -39.629  50.718 -51.963  1.00  0.00    -0.060 A 
HETATM   29  C   UNL     1     -39.133  49.724 -50.953  1.00  0.00     0.048 C 
HETATM   30  C   UNL     1     -39.732  50.349 -53.317  1.00  0.00     0.009 A 
ENDBRANCH   1  21
TORSDOF 5
ENDMDL
MODEL 8
REMARK VINA RESULT:      -8.0      1.920      9.652
REMARK  5 active torsions:
REMARK  status: ('A' for Active; 'I' for Inactive)
REMARK    1  A    between atoms: C_7  and  C_8 
REMARK    2  A    between atoms: C_10  and  N_11 
REMARK       I    between atoms: N_11  and  C_12 
REMARK    3  A    between atoms: C_12  and  C_13 
REMARK    4  A    between atoms: C_15  and  O_16 
REMARK    5  A    between atoms: C_19  and  O_20 
ROOT
HETATM    1  C   UNL     1     -41.549  56.115 -53.988  1.00  0.00     0.019 A 
HETATM    2  C   UNL     1     -42.577  56.260 -54.938  1.00  0.00     0.045 A 
HETATM    3  C   UNL     1     -42.928  57.516 -55.440  1.00  0.00     0.035 A 
HETATM    4  C   UNL     1     -42.249  58.646 -54.969  1.00  0.00     0.029 A 
HETATM    5  C   UNL     1     -41.243  58.523 -54.008  1.00  0.00     0.003 A 
HETATM    6  C   UNL     1     -40.893  57.263 -53.525  1.00  0.00     0.016 A 
ENDROOT
BRANCH   3   7
HETATM    7  N   UNL     1     -43.917  57.724 -56.432  1.00  0.00    -0.323 N 
HETATM    8  C   UNL     1     -43.847  57.363 -57.767  1.00  0.00     0.256 C 
HETATM    9  O   UNL     1     -42.926  56.742 -58.291  1.00  0.00    -0.267 OA
HETATM   10  H   UNL     1     -44.736  58.218 -56.113  1.00  0.00     0.169 HD
BRANCH   8  11
HETATM   11  C   UNL     1     -44.989  57.780 -58.644  1.00  0.00     0.037 A 
HETATM   12  C   UNL     1     -45.579  56.782 -59.440  1.00  0.00     0.054 A 
HETATM   13  C   UNL     1     -46.647  57.084 -60.280  1.00  0.00     0.071 A 
HETATM   14  C   UNL     1     -47.111  58.396 -60.341  1.00  0.00     0.073 A 
HETATM   15  C   UNL     1     -46.545  59.401 -59.552  1.00  0.00     0.071 A 
HETATM   16  C   UNL     1     -45.490  59.089 -58.691  1.00  0.00     0.054 A 
BRANCH  13  17
HETATM   17  O   UNL     1     -47.306  56.199 -61.089  1.00  0.00    -0.356 OA
HETATM   18  C   UNL     1     -48.189  56.753 -62.058  1.00  0.00     0.210 C 
ENDBRANCH  13  17
BRANCH  15  19
HETATM   19  O   UNL     1     -47.118  60.633 -59.708  1.00  0.00    -0.356 OA
HETATM   20  C   UNL     1     -48.463  60.791 -59.274  1.00  0.00     0.210 C 
ENDBRANCH  15  19
ENDBRANCH   8  11
ENDBRANCH   3   7
BRANCH   1  21
HETATM   21  C   UNL     1     -41.128  54.798 -53.509  1.00  0.00     0.181 A 
HETATM   22  O   UNL     1     -40.972  53.821 -54.460  1.00  0.00    -0.289 OA
HETATM   23  C   UNL     1     -40.531  52.741 -53.757  1.00  0.00     0.106 A 
HETATM   24  C   UNL     1     -40.446  53.109 -52.426  1.00  0.00     0.094 A 
HETATM   25  C   UNL     1     -40.208  51.488 -54.256  1.00  0.00     0.040 A 
HETATM   26  C   UNL     1     -39.993  52.167 -51.491  1.00  0.00     0.041 A 
HETATM   27  N   UNL     1     -40.842  54.415 -52.275  1.00  0.00    -0.221 NA
HETATM   28  C   UNL     1     -39.627  50.885 -51.949  1.00  0.00    -0.060 A 
HETATM   29  C   UNL     1     -39.152  49.848 -50.972  1.00  0.00     0.048 C 
HETATM   30  C   UNL     1     -39.754  50.558 -53.312  1.00  0.00     0.009 A 
ENDBRANCH   1  21
TORSDOF 5
ENDMDL
MODEL 9
REMARK VINA RESULT:      -7.9      3.831      5.262
REMARK  5 active torsions:
REMARK  status: ('A' for Active; 'I' for Inactive)
REMARK    1  A    between atoms: C_7  and  C_8 
REMARK    2  A    between atoms: C_10  and  N_11 
REMARK       I    between atoms: N_11  and  C_12 
REMARK    3  A    between atoms: C_12  and  C_13 
REMARK    4  A    between atoms: C_15  and  O_16 
REMARK    5  A    between atoms: C_19  and  O_20 
ROOT
HETATM    1  C   UNL     1     -42.813  57.941 -59.521  1.00  0.00     0.019 A 
HETATM    2  C   UNL     1     -42.462  57.318 -58.309  1.00  0.00     0.045 A 
HETATM    3  C   UNL     1     -42.925  56.038 -57.992  1.00  0.00     0.035 A 
HETATM    4  C   UNL     1     -43.766  55.380 -58.897  1.00  0.00     0.029 A 
HETATM    5  C   UNL     1     -44.144  55.994 -60.093  1.00  0.00     0.003 A 
HETATM    6  C   UNL     1     -43.665  57.265 -60.404  1.00  0.00     0.016 A 
ENDROOT
BRANCH   3   7
HETATM    7  N   UNL     1     -42.569  55.337 -56.814  1.00  0.00    -0.323 N 
HETATM    8  C   UNL     1     -43.073  55.536 -55.540  1.00  0.00     0.256 C 
HETATM    9  O   UNL     1     -43.966  56.323 -55.241  1.00  0.00    -0.267 OA
HETATM   10  H   UNL     1     -41.845  54.646 -56.939  1.00  0.00     0.169 HD
BRANCH   8  11
HETATM   11  C   UNL     1     -42.462  54.729 -54.435  1.00  0.00     0.037 A 
HETATM   12  C   UNL     1     -41.422  53.851 -54.786  1.00  0.00     0.054 A 
HETATM   13  C   UNL     1     -40.798  53.066 -53.820  1.00  0.00     0.071 A 
HETATM   14  C   UNL     1     -41.234  53.146 -52.498  1.00  0.00     0.073 A 
HETATM   15  C   UNL     1     -42.260  54.018 -52.126  1.00  0.00     0.071 A 
HETATM   16  C   UNL     1     -42.867  54.822 -53.094  1.00  0.00     0.054 A 
BRANCH  13  17
HETATM   17  O   UNL     1     -39.773  52.188 -54.038  1.00  0.00    -0.356 OA
HETATM   18  C   UNL     1     -40.134  50.841 -54.326  1.00  0.00     0.210 C 
ENDBRANCH  13  17
BRANCH  15  19
HETATM   19  O   UNL     1     -42.565  53.996 -50.793  1.00  0.00    -0.356 OA
HETATM   20  C   UNL     1     -43.787  54.600 -50.389  1.00  0.00     0.210 C 
ENDBRANCH  15  19
ENDBRANCH   8  11
ENDBRANCH   3   7
BRANCH   1  21
HETATM   21  C   UNL     1     -42.278  59.251 -59.892  1.00  0.00     0.181 A 
HETATM   22  O   UNL     1     -41.781  60.022 -58.871  1.00  0.00    -0.289 OA
HETATM   23  C   UNL     1     -41.309  61.136 -59.496  1.00  0.00     0.106 A 
HETATM   24  C   UNL     1     -41.543  60.992 -60.852  1.00  0.00     0.094 A 
HETATM   25  C   UNL     1     -40.692  62.231 -58.910  1.00  0.00     0.040 A 
HETATM   26  C   UNL     1     -41.127  62.010 -61.723  1.00  0.00     0.041 A 
HETATM   27  N   UNL     1     -42.173  59.797 -61.093  1.00  0.00    -0.221 NA
HETATM   28  C   UNL     1     -40.471  63.134 -61.181  1.00  0.00    -0.060 A 
HETATM   29  C   UNL     1     -40.026  64.248 -62.084  1.00  0.00     0.048 C 
HETATM   30  C   UNL     1     -40.278  63.239 -59.791  1.00  0.00     0.009 A 
ENDBRANCH   1  21
TORSDOF 5
ENDMDL
MODEL 10
REMARK VINA RESULT:      -7.5      2.712      9.861
REMARK  5 active torsions:
REMARK  status: ('A' for Active; 'I' for Inactive)
REMARK    1  A    between atoms: C_7  and  C_8 
REMARK    2  A    between atoms: C_10  and  N_11 
REMARK       I    between atoms: N_11  and  C_12 
REMARK    3  A    between atoms: C_12  and  C_13 
REMARK    4  A    between atoms: C_15  and  O_16 
REMARK    5  A    between atoms: C_19  and  O_20 
ROOT
HETATM    1  C   UNL     1     -41.281  56.382 -53.709  1.00  0.00     0.019 A 
HETATM    2  C   UNL     1     -41.923  56.636 -54.935  1.00  0.00     0.045 A 
HETATM    3  C   UNL     1     -42.187  57.942 -55.358  1.00  0.00     0.035 A 
HETATM    4  C   UNL     1     -41.815  59.009 -54.531  1.00  0.00     0.029 A 
HETATM    5  C   UNL     1     -41.199  58.773 -53.300  1.00  0.00     0.003 A 
HETATM    6  C   UNL     1     -40.930  57.467 -52.895  1.00  0.00     0.016 A 
ENDROOT
BRANCH   3   7
HETATM    7  N   UNL     1     -42.782  58.266 -56.601  1.00  0.00    -0.323 N 
HETATM    8  C   UNL     1     -42.338  59.201 -57.521  1.00  0.00     0.256 C 
HETATM    9  O   UNL     1     -41.308  59.861 -57.426  1.00  0.00    -0.267 OA
HETATM   10  H   UNL     1     -43.639  57.771 -56.798  1.00  0.00     0.169 HD
BRANCH   8  11
HETATM   11  C   UNL     1     -43.200  59.431 -58.726  1.00  0.00     0.037 A 
HETATM   12  C   UNL     1     -42.809  60.459 -59.601  1.00  0.00     0.054 A 
HETATM   13  C   UNL     1     -43.553  60.737 -60.746  1.00  0.00     0.071 A 
HETATM   14  C   UNL     1     -44.705  59.996 -61.002  1.00  0.00     0.073 A 
HETATM   15  C   UNL     1     -45.106  58.964 -60.149  1.00  0.00     0.071 A 
HETATM   16  C   UNL     1     -44.343  58.671 -59.015  1.00  0.00     0.054 A 
BRANCH  13  17
HETATM   17  O   UNL     1     -43.267  61.701 -61.673  1.00  0.00    -0.356 OA
HETATM   18  C   UNL     1     -42.355  62.720 -61.278  1.00  0.00     0.210 C 
ENDBRANCH  13  17
BRANCH  15  19
HETATM   19  O   UNL     1     -46.245  58.317 -60.541  1.00  0.00    -0.356 OA
HETATM   20  C   UNL     1     -46.770  57.325 -59.668  1.00  0.00     0.210 C 
ENDBRANCH  15  19
ENDBRANCH   8  11
ENDBRANCH   3   7
BRANCH   1  21
HETATM   21  C   UNL     1     -40.939  55.023 -53.290  1.00  0.00     0.181 A 
HETATM   22  O   UNL     1     -40.734  54.106 -54.291  1.00  0.00    -0.289 OA
HETATM   23  C   UNL     1     -40.384  52.968 -53.631  1.00  0.00     0.106 A 
HETATM   24  C   UNL     1     -40.398  53.243 -52.275  1.00  0.00     0.094 A 
HETATM   25  C   UNL     1     -40.058  51.740 -54.188  1.00  0.00     0.040 A 
HETATM   26  C   UNL     1     -40.050  52.226 -51.374  1.00  0.00     0.041 A 
HETATM   27  N   UNL     1     -40.767  54.549 -52.067  1.00  0.00    -0.221 NA
HETATM   28  C   UNL     1     -39.686  50.965 -51.890  1.00  0.00    -0.060 A 
HETATM   29  C   UNL     1     -39.322  49.849 -50.952  1.00  0.00     0.048 C 
HETATM   30  C   UNL     1     -39.710  50.734 -53.278  1.00  0.00     0.009 A 
ENDBRANCH   1  21
TORSDOF 5
ENDMDL
